MODEL 1
REMARK VINA RESULT:      -8.1      0.000      0.000
REMARK  7 active torsions:
REMARK  status: ('A' for Active; 'I' for Inactive)
REMARK    1  A    between atoms: O_2  and  C_3 
REMARK    2  A    between atoms: C_4  and  O_5 
REMARK    3  A    between atoms: C_9  and  C_10 
REMARK    4  A    between atoms: C_10  and  N_11 
REMARK    5  A    between atoms: C_14  and  C_15 
REMARK    6  A    between atoms: C_15  and  N_16 
REMARK    7  A    between atoms: N_16  and  C_17 
ROOT
HETATM    1  N   UNL     1      26.853  44.654  52.021  1.00  0.00    -0.067 N 
HETATM    2  H   UNL     1      27.612  45.325  52.223  1.00  0.00     0.280 HD
HETATM    3  C   UNL     1      25.592  45.452  51.761  1.00  0.00     0.241 C 
HETATM    4  C   UNL     1      25.027  44.853  50.475  1.00  0.00     0.031 C 
HETATM    5  C   UNL     1      26.297  44.548  49.689  1.00  0.00     0.035 C 
HETATM    6  C   UNL     1      27.217  43.936  50.737  1.00  0.00     0.235 C 
ENDROOT
BRANCH   1   7
HETATM    7  C   UNL     1      26.812  43.740  53.228  1.00  0.00     0.274 C 
BRANCH   7   8
HETATM    8  C   UNL     1      28.054  43.814  54.080  1.00  0.00    -0.012 A 
HETATM    9  C   UNL     1      29.059  42.828  54.030  1.00  0.00     0.021 A 
HETATM   10  C   UNL     1      30.208  42.947  54.808  1.00  0.00     0.059 A 
HETATM   11 BR   UNL     1      28.923  41.314  52.891  1.00  0.00    -0.050 Br
HETATM   12  C   UNL     1      30.361  44.054  55.632  1.00  0.00     0.100 A 
HETATM   13  C   UNL     1      29.387  45.051  55.712  1.00  0.00     0.101 A 
HETATM   14  C   UNL     1      28.230  44.920  54.942  1.00  0.00     0.049 A 
BRANCH  12  15
HETATM   15  O   UNL     1      31.507  44.144  56.368  1.00  0.00    -0.358 OA
HETATM   16  H   UNL     1      31.682  43.251  56.726  1.00  0.00     0.218 HD
ENDBRANCH  12  15
BRANCH  13  17
HETATM   17  O   UNL     1      29.686  46.085  56.555  1.00  0.00    -0.353 OA
HETATM   18  C   UNL     1      29.051  46.108  57.827  1.00  0.00     0.210 C 
ENDBRANCH  13  17
ENDBRANCH   7   8
ENDBRANCH   1   7
BRANCH   4  19
HETATM   19  C   UNL     1      24.049  45.807  49.782  1.00  0.00     0.127 C 
BRANCH  19  20
HETATM   20  N   UNL     1      24.191  47.173  50.291  1.00  0.00    -0.376 N 
HETATM   21  H   UNL     1      24.173  47.281  51.299  1.00  0.00     0.161 HD
BRANCH  20  22
HETATM   22  C   UNL     1      24.869  48.130  49.552  1.00  0.00     0.100 A 
HETATM   23  N   UNL     1      24.149  48.984  48.802  1.00  0.00    -0.353 N 
HETATM   24  H   UNL     1      23.139  48.883  48.798  1.00  0.00     0.166 HD
HETATM   25  C   UNL     1      24.688  49.949  48.041  1.00  0.00     0.089 A 
HETATM   26  C   UNL     1      26.063  50.108  47.988  1.00  0.00     0.017 A 
HETATM   27  C   UNL     1      26.860  49.244  48.722  1.00  0.00     0.005 A 
HETATM   28  C   UNL     1      26.266  48.249  49.499  1.00  0.00     0.048 A 
ENDBRANCH  20  22
ENDBRANCH  19  20
ENDBRANCH   4  19
TORSDOF 7
ENDMDL
MODEL 2
REMARK VINA RESULT:      -8.1      4.418      8.810
REMARK  7 active torsions:
REMARK  status: ('A' for Active; 'I' for Inactive)
REMARK    1  A    between atoms: O_2  and  C_3 
REMARK    2  A    between atoms: C_4  and  O_5 
REMARK    3  A    between atoms: C_9  and  C_10 
REMARK    4  A    between atoms: C_10  and  N_11 
REMARK    5  A    between atoms: C_14  and  C_15 
REMARK    6  A    between atoms: C_15  and  N_16 
REMARK    7  A    between atoms: N_16  and  C_17 
ROOT
HETATM    1  N   UNL     1      25.453  46.678  51.897  1.00  0.00    -0.067 N 
HETATM    2  H   UNL     1      24.587  47.241  51.894  1.00  0.00     0.280 HD
HETATM    3  C   UNL     1      26.340  47.204  53.006  1.00  0.00     0.241 C 
HETATM    4  C   UNL     1      26.782  45.953  53.759  1.00  0.00     0.031 C 
HETATM    5  C   UNL     1      25.527  45.090  53.695  1.00  0.00     0.035 C 
HETATM    6  C   UNL     1      25.064  45.257  52.254  1.00  0.00     0.235 C 
ENDROOT
BRANCH   1   7
HETATM    7  C   UNL     1      26.007  46.812  50.495  1.00  0.00     0.274 C 
BRANCH   7   8
HETATM    8  C   UNL     1      25.262  47.813  49.648  1.00  0.00    -0.012 A 
HETATM    9  C   UNL     1      25.910  48.889  49.010  1.00  0.00     0.021 A 
HETATM   10  C   UNL     1      25.193  49.775  48.209  1.00  0.00     0.059 A 
HETATM   11 BR   UNL     1      27.780  49.173  49.178  1.00  0.00    -0.050 Br
HETATM   12  C   UNL     1      23.828  49.585  48.036  1.00  0.00     0.100 A 
HETATM   13  C   UNL     1      23.149  48.533  48.653  1.00  0.00     0.101 A 
HETATM   14  C   UNL     1      23.868  47.656  49.467  1.00  0.00     0.049 A 
BRANCH  12  15
HETATM   15  O   UNL     1      23.163  50.464  47.231  1.00  0.00    -0.358 OA
HETATM   16  H   UNL     1      22.210  50.262  47.322  1.00  0.00     0.218 HD
ENDBRANCH  12  15
BRANCH  13  17
HETATM   17  O   UNL     1      21.812  48.467  48.376  1.00  0.00    -0.353 OA
HETATM   18  C   UNL     1      20.911  49.048  49.311  1.00  0.00     0.210 C 
ENDBRANCH  13  17
ENDBRANCH   7   8
ENDBRANCH   1   7
BRANCH   4  19
HETATM   19  C   UNL     1      27.272  46.280  55.174  1.00  0.00     0.127 C 
BRANCH  19  20
HETATM   20  N   UNL     1      28.728  46.437  55.206  1.00  0.00    -0.376 N 
HETATM   21  H   UNL     1      29.076  47.387  55.289  1.00  0.00     0.161 HD
BRANCH  20  22
HETATM   22  C   UNL     1      29.534  45.412  55.676  1.00  0.00     0.100 A 
HETATM   23  N   UNL     1      30.160  45.584  56.855  1.00  0.00    -0.353 N 
HETATM   24  H   UNL     1      30.026  46.462  57.346  1.00  0.00     0.166 HD
HETATM   25  C   UNL     1      30.969  44.669  57.412  1.00  0.00     0.089 A 
HETATM   26  C   UNL     1      31.209  43.467  56.768  1.00  0.00     0.017 A 
HETATM   27  C   UNL     1      30.610  43.241  55.539  1.00  0.00     0.005 A 
HETATM   28  C   UNL     1      29.778  44.215  54.987  1.00  0.00     0.048 A 
ENDBRANCH  20  22
ENDBRANCH  19  20
ENDBRANCH   4  19
TORSDOF 7
ENDMDL
MODEL 3
REMARK VINA RESULT:      -8.1      0.983      1.348
REMARK  7 active torsions:
REMARK  status: ('A' for Active; 'I' for Inactive)
REMARK    1  A    between atoms: O_2  and  C_3 
REMARK    2  A    between atoms: C_4  and  O_5 
REMARK    3  A    between atoms: C_9  and  C_10 
REMARK    4  A    between atoms: C_10  and  N_11 
REMARK    5  A    between atoms: C_14  and  C_15 
REMARK    6  A    between atoms: C_15  and  N_16 
REMARK    7  A    between atoms: N_16  and  C_17 
ROOT
HETATM    1  N   UNL     1      26.772  44.935  51.984  1.00  0.00    -0.067 N 
HETATM    2  H   UNL     1      27.431  45.661  52.308  1.00  0.00     0.280 HD
HETATM    3  C   UNL     1      25.447  45.610  51.698  1.00  0.00     0.241 C 
HETATM    4  C   UNL     1      25.048  45.087  50.321  1.00  0.00     0.031 C 
HETATM    5  C   UNL     1      26.397  45.005  49.615  1.00  0.00     0.035 C 
HETATM    6  C   UNL     1      27.307  44.396  50.672  1.00  0.00     0.235 C 
ENDROOT
BRANCH   1   7
HETATM    7  C   UNL     1      26.755  43.903  53.092  1.00  0.00     0.274 C 
BRANCH   7   8
HETATM    8  C   UNL     1      27.990  43.932  53.958  1.00  0.00    -0.012 A 
HETATM    9  C   UNL     1      28.973  42.925  53.898  1.00  0.00     0.021 A 
HETATM   10  C   UNL     1      30.117  43.002  54.690  1.00  0.00     0.059 A 
HETATM   11 BR   UNL     1      28.814  41.437  52.729  1.00  0.00    -0.050 Br
HETATM   12  C   UNL     1      30.285  44.089  55.538  1.00  0.00     0.100 A 
HETATM   13  C   UNL     1      29.333  45.106  55.627  1.00  0.00     0.101 A 
HETATM   14  C   UNL     1      28.182  45.017  54.844  1.00  0.00     0.049 A 
BRANCH  12  15
HETATM   15  O   UNL     1      31.426  44.139  56.286  1.00  0.00    -0.358 OA
HETATM   16  H   UNL     1      31.781  45.046  56.197  1.00  0.00     0.218 HD
ENDBRANCH  12  15
BRANCH  13  17
HETATM   17  O   UNL     1      29.647  46.117  56.493  1.00  0.00    -0.353 OA
HETATM   18  C   UNL     1      28.991  46.137  57.755  1.00  0.00     0.210 C 
ENDBRANCH  13  17
ENDBRANCH   7   8
ENDBRANCH   1   7
BRANCH   4  19
HETATM   19  C   UNL     1      24.014  45.992  49.642  1.00  0.00     0.127 C 
BRANCH  19  20
HETATM   20  N   UNL     1      23.953  47.304  50.290  1.00  0.00    -0.376 N 
HETATM   21  H   UNL     1      24.571  47.442  51.083  1.00  0.00     0.161 HD
BRANCH  20  22
HETATM   22  C   UNL     1      23.564  48.424  49.573  1.00  0.00     0.100 A 
HETATM   23  N   UNL     1      22.264  48.771  49.589  1.00  0.00    -0.353 N 
HETATM   24  H   UNL     1      21.620  48.191  50.117  1.00  0.00     0.166 HD
HETATM   25  C   UNL     1      21.764  49.830  48.933  1.00  0.00     0.089 A 
HETATM   26  C   UNL     1      22.596  50.635  48.174  1.00  0.00     0.017 A 
HETATM   27  C   UNL     1      23.943  50.315  48.099  1.00  0.00     0.005 A 
HETATM   28  C   UNL     1      24.428  49.205  48.791  1.00  0.00     0.048 A 
ENDBRANCH  20  22
ENDBRANCH  19  20
ENDBRANCH   4  19
TORSDOF 7
ENDMDL
MODEL 4
REMARK VINA RESULT:      -7.8      2.785      3.617
REMARK  7 active torsions:
REMARK  status: ('A' for Active; 'I' for Inactive)
REMARK    1  A    between atoms: O_2  and  C_3 
REMARK    2  A    between atoms: C_4  and  O_5 
REMARK    3  A    between atoms: C_9  and  C_10 
REMARK    4  A    between atoms: C_10  and  N_11 
REMARK    5  A    between atoms: C_14  and  C_15 
REMARK    6  A    between atoms: C_15  and  N_16 
REMARK    7  A    between atoms: N_16  and  C_17 
ROOT
HETATM    1  N   UNL     1      26.192  46.010  51.795  1.00  0.00    -0.067 N 
HETATM    2  H   UNL     1      27.196  46.248  51.760  1.00  0.00     0.280 HD
HETATM    3  C   UNL     1      25.416  47.218  51.313  1.00  0.00     0.241 C 
HETATM    4  C   UNL     1      24.430  46.649  50.295  1.00  0.00     0.031 C 
HETATM    5  C   UNL     1      25.264  45.560  49.629  1.00  0.00     0.035 C 
HETATM    6  C   UNL     1      25.961  44.888  50.803  1.00  0.00     0.235 C 
ENDROOT
BRANCH   1   7
HETATM    7  C   UNL     1      25.940  45.601  53.231  1.00  0.00     0.274 C 
BRANCH   7   8
HETATM    8  C   UNL     1      27.198  45.507  54.058  1.00  0.00    -0.012 A 
HETATM    9  C   UNL     1      27.560  46.499  54.990  1.00  0.00     0.021 A 
HETATM   10  C   UNL     1      28.713  46.362  55.759  1.00  0.00     0.059 A 
HETATM   11 BR   UNL     1      26.496  48.047  55.272  1.00  0.00    -0.050 Br
HETATM   12  C   UNL     1      29.504  45.231  55.605  1.00  0.00     0.100 A 
HETATM   13  C   UNL     1      29.181  44.227  54.691  1.00  0.00     0.101 A 
HETATM   14  C   UNL     1      28.033  44.375  53.911  1.00  0.00     0.049 A 
BRANCH  12  15
HETATM   15  O   UNL     1      30.618  45.124  56.388  1.00  0.00    -0.358 OA
HETATM   16  H   UNL     1      30.844  44.174  56.425  1.00  0.00     0.218 HD
ENDBRANCH  12  15
BRANCH  13  17
HETATM   17  O   UNL     1      30.046  43.169  54.665  1.00  0.00    -0.353 OA
HETATM   18  C   UNL     1      30.380  42.617  53.397  1.00  0.00     0.210 C 
ENDBRANCH  13  17
ENDBRANCH   7   8
ENDBRANCH   1   7
BRANCH   4  19
HETATM   19  C   UNL     1      23.899  47.730  49.348  1.00  0.00     0.127 C 
BRANCH  19  20
HETATM   20  N   UNL     1      22.434  47.757  49.346  1.00  0.00    -0.376 N 
HETATM   21  H   UNL     1      21.970  46.986  49.814  1.00  0.00     0.161 HD
BRANCH  20  22
HETATM   22  C   UNL     1      21.755  48.962  49.259  1.00  0.00     0.100 A 
HETATM   23  N   UNL     1      20.607  49.097  49.948  1.00  0.00    -0.353 N 
HETATM   24  H   UNL     1      20.279  48.306  50.493  1.00  0.00     0.166 HD
HETATM   25  C   UNL     1      19.857  50.211  49.942  1.00  0.00     0.089 A 
HETATM   26  C   UNL     1      20.244  51.307  49.190  1.00  0.00     0.017 A 
HETATM   27  C   UNL     1      21.407  51.221  48.441  1.00  0.00     0.005 A 
HETATM   28  C   UNL     1      22.160  50.047  48.467  1.00  0.00     0.048 A 
ENDBRANCH  20  22
ENDBRANCH  19  20
ENDBRANCH   4  19
TORSDOF 7
ENDMDL
MODEL 5
REMARK VINA RESULT:      -7.4      4.513      8.529
REMARK  7 active torsions:
REMARK  status: ('A' for Active; 'I' for Inactive)
REMARK    1  A    between atoms: O_2  and  C_3 
REMARK    2  A    between atoms: C_4  and  O_5 
REMARK    3  A    between atoms: C_9  and  C_10 
REMARK    4  A    between atoms: C_10  and  N_11 
REMARK    5  A    between atoms: C_14  and  C_15 
REMARK    6  A    between atoms: C_15  and  N_16 
REMARK    7  A    between atoms: N_16  and  C_17 
ROOT
HETATM    1  N   UNL     1      25.131  46.504  51.492  1.00  0.00    -0.067 N 
HETATM    2  H   UNL     1      24.327  47.147  51.574  1.00  0.00     0.280 HD
HETATM    3  C   UNL     1      26.106  46.844  52.600  1.00  0.00     0.241 C 
HETATM    4  C   UNL     1      26.448  45.495  53.227  1.00  0.00     0.031 C 
HETATM    5  C   UNL     1      25.111  44.766  53.147  1.00  0.00     0.035 C 
HETATM    6  C   UNL     1      24.615  45.102  51.747  1.00  0.00     0.235 C 
ENDROOT
BRANCH   1   7
HETATM    7  C   UNL     1      25.646  46.705  50.082  1.00  0.00     0.274 C 
BRANCH   7   8
HETATM    8  C   UNL     1      24.986  47.853  49.360  1.00  0.00    -0.012 A 
HETATM    9  C   UNL     1      25.717  48.956  48.877  1.00  0.00     0.021 A 
HETATM   10  C   UNL     1      25.077  49.983  48.186  1.00  0.00     0.059 A 
HETATM   11 BR   UNL     1      27.597  49.092  49.108  1.00  0.00    -0.050 Br
HETATM   12  C   UNL     1      23.708  49.908  47.970  1.00  0.00     0.100 A 
HETATM   13  C   UNL     1      22.948  48.833  48.436  1.00  0.00     0.101 A 
HETATM   14  C   UNL     1      23.590  47.814  49.140  1.00  0.00     0.049 A 
BRANCH  12  15
HETATM   15  O   UNL     1      23.119  50.925  47.275  1.00  0.00    -0.358 OA
HETATM   16  H   UNL     1      22.318  51.180  47.776  1.00  0.00     0.218 HD
ENDBRANCH  12  15
BRANCH  13  17
HETATM   17  O   UNL     1      21.616  48.893  48.132  1.00  0.00    -0.353 OA
HETATM   18  C   UNL     1      20.685  48.662  49.183  1.00  0.00     0.210 C 
ENDBRANCH  13  17
ENDBRANCH   7   8
ENDBRANCH   1   7
BRANCH   4  19
HETATM   19  C   UNL     1      27.018  45.649  54.641  1.00  0.00     0.127 C 
BRANCH  19  20
HETATM   20  N   UNL     1      27.432  44.355  55.189  1.00  0.00    -0.376 N 
HETATM   21  H   UNL     1      26.875  43.994  55.956  1.00  0.00     0.161 HD
BRANCH  20  22
HETATM   22  C   UNL     1      28.107  43.441  54.396  1.00  0.00     0.100 A 
HETATM   23  N   UNL     1      27.474  42.304  54.053  1.00  0.00    -0.353 N 
HETATM   24  H   UNL     1      26.532  42.158  54.400  1.00  0.00     0.166 HD
HETATM   25  C   UNL     1      28.022  41.341  53.295  1.00  0.00     0.089 A 
HETATM   26  C   UNL     1      29.316  41.479  52.823  1.00  0.00     0.017 A 
HETATM   27  C   UNL     1      30.029  42.619  53.161  1.00  0.00     0.005 A 
HETATM   28  C   UNL     1      29.429  43.597  53.954  1.00  0.00     0.048 A 
ENDBRANCH  20  22
ENDBRANCH  19  20
ENDBRANCH   4  19
TORSDOF 7
ENDMDL
MODEL 6
REMARK VINA RESULT:      -7.0      4.379      8.684
REMARK  7 active torsions:
REMARK  status: ('A' for Active; 'I' for Inactive)
REMARK    1  A    between atoms: O_2  and  C_3 
REMARK    2  A    between atoms: C_4  and  O_5 
REMARK    3  A    between atoms: C_9  and  C_10 
REMARK    4  A    between atoms: C_10  and  N_11 
REMARK    5  A    between atoms: C_14  and  C_15 
REMARK    6  A    between atoms: C_15  and  N_16 
REMARK    7  A    between atoms: N_16  and  C_17 
ROOT
HETATM    1  N   UNL     1      26.349  43.749  50.802  1.00  0.00    -0.067 N 
HETATM    2  H   UNL     1      25.389  43.372  50.854  1.00  0.00     0.280 HD
HETATM    3  C   UNL     1      26.660  44.400  52.133  1.00  0.00     0.241 C 
HETATM    4  C   UNL     1      28.032  43.848  52.510  1.00  0.00     0.031 C 
HETATM    5  C   UNL     1      27.942  42.414  52.002  1.00  0.00     0.035 C 
HETATM    6  C   UNL     1      27.286  42.569  50.636  1.00  0.00     0.235 C 
ENDROOT
BRANCH   1   7
HETATM    7  C   UNL     1      26.337  44.676  49.605  1.00  0.00     0.274 C 
BRANCH   7   8
HETATM    8  C   UNL     1      25.043  45.433  49.445  1.00  0.00    -0.012 A 
HETATM    9  C   UNL     1      24.961  46.828  49.624  1.00  0.00     0.021 A 
HETATM   10  C   UNL     1      23.754  47.498  49.436  1.00  0.00     0.059 A 
HETATM   11 BR   UNL     1      26.478  47.869  50.096  1.00  0.00    -0.050 Br
HETATM   12  C   UNL     1      22.627  46.778  49.061  1.00  0.00     0.100 A 
HETATM   13  C   UNL     1      22.667  45.395  48.877  1.00  0.00     0.101 A 
HETATM   14  C   UNL     1      23.874  44.725  49.081  1.00  0.00     0.049 A 
BRANCH  12  15
HETATM   15  O   UNL     1      21.467  47.471  48.870  1.00  0.00    -0.358 OA
HETATM   16  H   UNL     1      20.736  46.829  48.976  1.00  0.00     0.218 HD
ENDBRANCH  12  15
BRANCH  13  17
HETATM   17  O   UNL     1      21.482  44.829  48.493  1.00  0.00    -0.353 OA
HETATM   18  C   UNL     1      21.454  44.124  47.258  1.00  0.00     0.210 C 
ENDBRANCH  13  17
ENDBRANCH   7   8
ENDBRANCH   1   7
BRANCH   4  19
HETATM   19  C   UNL     1      28.312  43.988  54.010  1.00  0.00     0.127 C 
BRANCH  19  20
HETATM   20  N   UNL     1      29.735  43.801  54.302  1.00  0.00    -0.376 N 
HETATM   21  H   UNL     1      30.369  43.877  53.514  1.00  0.00     0.161 HD
BRANCH  20  22
HETATM   22  C   UNL     1      30.236  44.086  55.563  1.00  0.00     0.100 A 
HETATM   23  N   UNL     1      29.841  45.224  56.163  1.00  0.00    -0.353 N 
HETATM   24  H   UNL     1      29.201  45.832  55.663  1.00  0.00     0.166 HD
HETATM   25  C   UNL     1      30.258  45.613  57.378  1.00  0.00     0.089 A 
HETATM   26  C   UNL     1      31.154  44.833  58.089  1.00  0.00     0.017 A 
HETATM   27  C   UNL     1      31.616  43.660  57.513  1.00  0.00     0.005 A 
HETATM   28  C   UNL     1      31.165  43.288  56.247  1.00  0.00     0.048 A 
ENDBRANCH  20  22
ENDBRANCH  19  20
ENDBRANCH   4  19
TORSDOF 7
ENDMDL
MODEL 7
REMARK VINA RESULT:      -6.9     12.221     14.455
REMARK  7 active torsions:
REMARK  status: ('A' for Active; 'I' for Inactive)
REMARK    1  A    between atoms: O_2  and  C_3 
REMARK    2  A    between atoms: C_4  and  O_5 
REMARK    3  A    between atoms: C_9  and  C_10 
REMARK    4  A    between atoms: C_10  and  N_11 
REMARK    5  A    between atoms: C_14  and  C_15 
REMARK    6  A    between atoms: C_15  and  N_16 
REMARK    7  A    between atoms: N_16  and  C_17 
ROOT
HETATM    1  N   UNL     1      28.732  48.309  41.528  1.00  0.00    -0.067 N 
HETATM    2  H   UNL     1      28.271  47.570  42.084  1.00  0.00     0.280 HD
HETATM    3  C   UNL     1      30.093  48.562  42.140  1.00  0.00     0.241 C 
HETATM    4  C   UNL     1      31.049  48.547  40.950  1.00  0.00     0.031 C 
HETATM    5  C   UNL     1      30.440  47.456  40.075  1.00  0.00     0.035 C 
HETATM    6  C   UNL     1      28.948  47.755  40.134  1.00  0.00     0.235 C 
ENDROOT
BRANCH   1   7
HETATM    7  C   UNL     1      27.769  49.478  41.565  1.00  0.00     0.274 C 
BRANCH   7   8
HETATM    8  C   UNL     1      28.044  50.515  40.504  1.00  0.00    -0.012 A 
HETATM    9  C   UNL     1      27.350  50.539  39.279  1.00  0.00     0.021 A 
HETATM   10  C   UNL     1      27.608  51.532  38.337  1.00  0.00     0.059 A 
HETATM   11 BR   UNL     1      26.016  49.255  38.857  1.00  0.00    -0.050 Br
HETATM   12  C   UNL     1      28.556  52.507  38.618  1.00  0.00     0.100 A 
HETATM   13  C   UNL     1      29.267  52.516  39.820  1.00  0.00     0.101 A 
HETATM   14  C   UNL     1      29.016  51.511  40.754  1.00  0.00     0.049 A 
BRANCH  12  15
HETATM   15  O   UNL     1      28.770  53.473  37.678  1.00  0.00    -0.358 OA
HETATM   16  H   UNL     1      27.958  54.016  37.643  1.00  0.00     0.218 HD
ENDBRANCH  12  15
BRANCH  13  17
HETATM   17  O   UNL     1      30.153  53.548  39.959  1.00  0.00    -0.353 OA
HETATM   18  C   UNL     1      31.079  53.486  41.037  1.00  0.00     0.210 C 
ENDBRANCH  13  17
ENDBRANCH   7   8
ENDBRANCH   1   7
BRANCH   4  19
HETATM   19  C   UNL     1      32.497  48.298  41.382  1.00  0.00     0.127 C 
BRANCH  19  20
HETATM   20  N   UNL     1      33.357  49.429  41.025  1.00  0.00    -0.376 N 
HETATM   21  H   UNL     1      33.285  49.764  40.070  1.00  0.00     0.161 HD
BRANCH  20  22
HETATM   22  C   UNL     1      33.773  50.328  41.994  1.00  0.00     0.100 A 
HETATM   23  N   UNL     1      35.078  50.654  42.043  1.00  0.00    -0.353 N 
HETATM   24  H   UNL     1      35.706  50.218  41.375  1.00  0.00     0.166 HD
HETATM   25  C   UNL     1      35.604  51.507  42.936  1.00  0.00     0.089 A 
HETATM   26  C   UNL     1      34.795  52.105  43.888  1.00  0.00     0.017 A 
HETATM   27  C   UNL     1      33.444  51.791  43.903  1.00  0.00     0.005 A 
HETATM   28  C   UNL     1      32.933  50.897  42.963  1.00  0.00     0.048 A 
ENDBRANCH  20  22
ENDBRANCH  19  20
ENDBRANCH   4  19
TORSDOF 7
ENDMDL
MODEL 8
REMARK VINA RESULT:      -6.9      4.416      8.742
REMARK  7 active torsions:
REMARK  status: ('A' for Active; 'I' for Inactive)
REMARK    1  A    between atoms: O_2  and  C_3 
REMARK    2  A    between atoms: C_4  and  O_5 
REMARK    3  A    between atoms: C_9  and  C_10 
REMARK    4  A    between atoms: C_10  and  N_11 
REMARK    5  A    between atoms: C_14  and  C_15 
REMARK    6  A    between atoms: C_15  and  N_16 
REMARK    7  A    between atoms: N_16  and  C_17 
ROOT
HETATM    1  N   UNL     1      24.654  45.785  51.427  1.00  0.00    -0.067 N 
HETATM    2  H   UNL     1      23.669  46.019  51.634  1.00  0.00     0.280 HD
HETATM    3  C   UNL     1      25.528  46.733  52.221  1.00  0.00     0.241 C 
HETATM    4  C   UNL     1      26.559  45.826  52.887  1.00  0.00     0.031 C 
HETATM    5  C   UNL     1      25.724  44.593  53.214  1.00  0.00     0.035 C 
HETATM    6  C   UNL     1      24.902  44.384  51.949  1.00  0.00     0.235 C 
ENDROOT
BRANCH   1   7
HETATM    7  C   UNL     1      24.770  45.892  49.921  1.00  0.00     0.274 C 
BRANCH   7   8
HETATM    8  C   UNL     1      23.621  46.630  49.281  1.00  0.00    -0.012 A 
HETATM    9  C   UNL     1      22.643  45.973  48.510  1.00  0.00     0.021 A 
HETATM   10  C   UNL     1      21.578  46.683  47.961  1.00  0.00     0.059 A 
HETATM   11 BR   UNL     1      22.701  44.100  48.201  1.00  0.00    -0.050 Br
HETATM   12  C   UNL     1      21.482  48.050  48.187  1.00  0.00     0.100 A 
HETATM   13  C   UNL     1      22.433  48.738  48.944  1.00  0.00     0.101 A 
HETATM   14  C   UNL     1      23.506  48.026  49.479  1.00  0.00     0.049 A 
BRANCH  12  15
HETATM   15  O   UNL     1      20.416  48.709  47.647  1.00  0.00    -0.358 OA
HETATM   16  H   UNL     1      20.762  49.245  46.906  1.00  0.00     0.218 HD
ENDBRANCH  12  15
BRANCH  13  17
HETATM   17  O   UNL     1      22.195  50.077  49.092  1.00  0.00    -0.353 OA
HETATM   18  C   UNL     1      23.098  50.983  48.471  1.00  0.00     0.210 C 
ENDBRANCH  13  17
ENDBRANCH   7   8
ENDBRANCH   1   7
BRANCH   4  19
HETATM   19  C   UNL     1      27.219  46.500  54.094  1.00  0.00     0.127 C 
BRANCH  19  20
HETATM   20  N   UNL     1      27.395  45.554  55.198  1.00  0.00    -0.376 N 
HETATM   21  H   UNL     1      26.572  45.028  55.474  1.00  0.00     0.161 HD
BRANCH  20  22
HETATM   22  C   UNL     1      28.635  44.987  55.447  1.00  0.00     0.100 A 
HETATM   23  N   UNL     1      29.426  45.566  56.369  1.00  0.00    -0.353 N 
HETATM   24  H   UNL     1      29.087  46.400  56.836  1.00  0.00     0.166 HD
HETATM   25  C   UNL     1      30.648  45.115  56.695  1.00  0.00     0.089 A 
HETATM   26  C   UNL     1      31.170  43.998  56.065  1.00  0.00     0.017 A 
HETATM   27  C   UNL     1      30.411  43.372  55.089  1.00  0.00     0.005 A 
HETATM   28  C   UNL     1      29.147  43.869  54.772  1.00  0.00     0.048 A 
ENDBRANCH  20  22
ENDBRANCH  19  20
ENDBRANCH   4  19
TORSDOF 7
ENDMDL
MODEL 9
REMARK VINA RESULT:      -6.8      2.990      4.156
REMARK  7 active torsions:
REMARK  status: ('A' for Active; 'I' for Inactive)
REMARK    1  A    between atoms: O_2  and  C_3 
REMARK    2  A    between atoms: C_4  and  O_5 
REMARK    3  A    between atoms: C_9  and  C_10 
REMARK    4  A    between atoms: C_10  and  N_11 
REMARK    5  A    between atoms: C_14  and  C_15 
REMARK    6  A    between atoms: C_15  and  N_16 
REMARK    7  A    between atoms: N_16  and  C_17 
ROOT
HETATM    1  N   UNL     1      25.930  46.064  50.428  1.00  0.00    -0.067 N 
HETATM    2  H   UNL     1      25.903  45.974  51.457  1.00  0.00     0.280 HD
HETATM    3  C   UNL     1      24.530  45.816  49.908  1.00  0.00     0.241 C 
HETATM    4  C   UNL     1      24.277  46.972  48.943  1.00  0.00     0.031 C 
HETATM    5  C   UNL     1      24.982  48.125  49.647  1.00  0.00     0.035 C 
HETATM    6  C   UNL     1      26.291  47.502  50.112  1.00  0.00     0.235 C 
ENDROOT
BRANCH   1   7
HETATM    7  C   UNL     1      26.982  45.071  49.979  1.00  0.00     0.274 C 
BRANCH   7   8
HETATM    8  C   UNL     1      27.133  43.895  50.911  1.00  0.00    -0.012 A 
HETATM    9  C   UNL     1      26.794  42.583  50.527  1.00  0.00     0.021 A 
HETATM   10  C   UNL     1      26.979  41.517  51.404  1.00  0.00     0.059 A 
HETATM   11 BR   UNL     1      26.104  42.190  48.802  1.00  0.00    -0.050 Br
HETATM   12  C   UNL     1      27.509  41.757  52.665  1.00  0.00     0.100 A 
HETATM   13  C   UNL     1      27.854  43.043  53.085  1.00  0.00     0.101 A 
HETATM   14  C   UNL     1      27.654  44.110  52.208  1.00  0.00     0.049 A 
BRANCH  12  15
HETATM   15  O   UNL     1      27.690  40.685  53.491  1.00  0.00    -0.358 OA
HETATM   16  H   UNL     1      27.594  39.885  52.938  1.00  0.00     0.218 HD
ENDBRANCH  12  15
BRANCH  13  17
HETATM   17  O   UNL     1      28.379  43.118  54.346  1.00  0.00    -0.353 OA
HETATM   18  C   UNL     1      29.048  44.318  54.714  1.00  0.00     0.210 C 
ENDBRANCH  13  17
ENDBRANCH   7   8
ENDBRANCH   1   7
BRANCH   4  19
HETATM   19  C   UNL     1      22.782  47.185  48.685  1.00  0.00     0.127 C 
BRANCH  19  20
HETATM   20  N   UNL     1      22.209  48.127  49.650  1.00  0.00    -0.376 N 
HETATM   21  H   UNL     1      22.673  48.187  50.550  1.00  0.00     0.161 HD
BRANCH  20  22
HETATM   22  C   UNL     1      21.505  49.238  49.212  1.00  0.00     0.100 A 
HETATM   23  N   UNL     1      21.015  50.086  50.136  1.00  0.00    -0.353 N 
HETATM   24  H   UNL     1      21.171  49.870  51.115  1.00  0.00     0.166 HD
HETATM   25  C   UNL     1      20.314  51.192  49.839  1.00  0.00     0.089 A 
HETATM   26  C   UNL     1      20.048  51.514  48.519  1.00  0.00     0.017 A 
HETATM   27  C   UNL     1      20.507  50.666  47.523  1.00  0.00     0.005 A 
HETATM   28  C   UNL     1      21.228  49.524  47.867  1.00  0.00     0.048 A 
ENDBRANCH  20  22
ENDBRANCH  19  20
ENDBRANCH   4  19
TORSDOF 7
ENDMDL
MODEL 10
REMARK VINA RESULT:      -6.8      5.126      7.734
REMARK  7 active torsions:
REMARK  status: ('A' for Active; 'I' for Inactive)
REMARK    1  A    between atoms: O_2  and  C_3 
REMARK    2  A    between atoms: C_4  and  O_5 
REMARK    3  A    between atoms: C_9  and  C_10 
REMARK    4  A    between atoms: C_10  and  N_11 
REMARK    5  A    between atoms: C_14  and  C_15 
REMARK    6  A    between atoms: C_15  and  N_16 
REMARK    7  A    between atoms: N_16  and  C_17 
ROOT
HETATM    1  N   UNL     1      27.170  41.322  50.981  1.00  0.00    -0.067 N 
HETATM    2  H   UNL     1      26.355  40.696  51.088  1.00  0.00     0.280 HD
HETATM    3  C   UNL     1      27.181  42.268  52.163  1.00  0.00     0.241 C 
HETATM    4  C   UNL     1      28.620  42.222  52.668  1.00  0.00     0.031 C 
HETATM    5  C   UNL     1      28.980  40.757  52.451  1.00  0.00     0.035 C 
HETATM    6  C   UNL     1      28.413  40.460  51.070  1.00  0.00     0.235 C 
ENDROOT
BRANCH   1   7
HETATM    7  C   UNL     1      26.986  41.970  49.624  1.00  0.00     0.274 C 
BRANCH   7   8
HETATM    8  C   UNL     1      25.581  42.460  49.378  1.00  0.00    -0.012 A 
HETATM    9  C   UNL     1      25.244  43.826  49.423  1.00  0.00     0.021 A 
HETATM   10  C   UNL     1      23.941  44.244  49.158  1.00  0.00     0.059 A 
HETATM   11 BR   UNL     1      26.533  45.166  49.810  1.00  0.00    -0.050 Br
HETATM   12  C   UNL     1      22.974  43.299  48.841  1.00  0.00     0.100 A 
HETATM   13  C   UNL     1      23.269  41.936  48.790  1.00  0.00     0.101 A 
HETATM   14  C   UNL     1      24.571  41.520  49.071  1.00  0.00     0.049 A 
BRANCH  12  15
HETATM   15  O   UNL     1      21.713  43.748  48.572  1.00  0.00    -0.358 OA
HETATM   16  H   UNL     1      21.454  43.358  47.714  1.00  0.00     0.218 HD
ENDBRANCH  12  15
BRANCH  13  17
HETATM   17  O   UNL     1      22.217  41.130  48.449  1.00  0.00    -0.353 OA
HETATM   18  C   UNL     1      22.320  40.380  47.245  1.00  0.00     0.210 C 
ENDBRANCH  13  17
ENDBRANCH   7   8
ENDBRANCH   1   7
BRANCH   4  19
HETATM   19  C   UNL     1      28.734  42.710  54.116  1.00  0.00     0.127 C 
BRANCH  19  20
HETATM   20  N   UNL     1      27.540  43.457  54.518  1.00  0.00    -0.376 N 
HETATM   21  H   UNL     1      26.886  42.969  55.121  1.00  0.00     0.161 HD
BRANCH  20  22
HETATM   22  C   UNL     1      27.567  44.841  54.584  1.00  0.00     0.100 A 
HETATM   23  N   UNL     1      28.624  45.431  55.172  1.00  0.00    -0.353 N 
HETATM   24  H   UNL     1      29.353  44.836  55.554  1.00  0.00     0.166 HD
HETATM   25  C   UNL     1      28.764  46.759  55.302  1.00  0.00     0.089 A 
HETATM   26  C   UNL     1      27.784  47.613  54.824  1.00  0.00     0.017 A 
HETATM   27  C   UNL     1      26.659  47.064  54.228  1.00  0.00     0.005 A 
HETATM   28  C   UNL     1      26.545  45.679  54.114  1.00  0.00     0.048 A 
ENDBRANCH  20  22
ENDBRANCH  19  20
ENDBRANCH   4  19
TORSDOF 7
ENDMDL
