MODEL 1
REMARK VINA RESULT:     -10.1      0.000      0.000
REMARK  6 active torsions:
REMARK  status: ('A' for Active; 'I' for Inactive)
REMARK    1  A    between atoms: C_2  and  O_3 
REMARK    2  A    between atoms: O_3  and  C_4 
REMARK    3  A    between atoms: C_5  and  O_6 
REMARK    4  A    between atoms: O_6  and  C_7 
REMARK    5  A    between atoms: C_7  and  C_8 
REMARK    6  A    between atoms: C_18  and  C_19 
ROOT
HETATM    1  C   UNL     1      24.659  44.278  50.810  1.00  0.00     0.103 A 
HETATM    2  C   UNL     1      25.786  44.738  51.501  1.00  0.00     0.112 A 
HETATM    3  C   UNL     1      26.183  46.075  51.455  1.00  0.00     0.041 A 
HETATM    4  C   UNL     1      25.421  46.986  50.732  1.00  0.00     0.014 A 
HETATM    5  C   UNL     1      24.272  46.565  50.038  1.00  0.00    -0.013 A 
HETATM    6  C   UNL     1      23.905  45.204  50.081  1.00  0.00     0.050 A 
ENDROOT
BRANCH   5   7
HETATM    7  C   UNL     1      23.439  47.559  49.260  1.00  0.00     0.219 C 
HETATM    8  N   UNL     1      23.543  48.880  49.824  1.00  0.00    -0.332 N 
HETATM    9  C   UNL     1      22.653  49.877  49.520  1.00  0.00     0.256 C 
HETATM   10  H   UNL     1      24.458  49.202  50.103  1.00  0.00     0.165 HD
HETATM   11  O   UNL     1      22.918  51.061  49.690  1.00  0.00    -0.267 OA
HETATM   12  C   UNL     1      21.365  49.424  49.021  1.00  0.00     0.073 A 
HETATM   13  C   UNL     1      21.127  48.072  48.925  1.00  0.00     0.088 A 
HETATM   14  C   UNL     1      20.226  50.192  48.622  1.00  0.00    -0.023 A 
HETATM   15  S   UNL     1      19.559  47.717  48.376  1.00  0.00    -0.074 SA
HETATM   16  N   UNL     1      22.050  47.144  49.258  1.00  0.00    -0.358 N 
HETATM   17  C   UNL     1      19.172  49.371  48.259  1.00  0.00     0.018 A 
HETATM   18  C   UNL     1      17.836  49.843  47.802  1.00  0.00     0.281 C 
HETATM   19  N   UNL     1      17.620  51.313  48.148  1.00  0.00    -0.070 N 
HETATM   20  C   UNL     1      18.859  52.150  47.835  1.00  0.00     0.239 C 
HETATM   21  H   UNL     1      16.876  51.645  47.523  1.00  0.00     0.279 HD
HETATM   22  C   UNL     1      17.109  51.507  49.547  1.00  0.00     0.270 C 
HETATM   23  C   UNL     1      20.095  51.686  48.624  1.00  0.00     0.068 C 
HETATM   24  H   UNL     1      21.897  46.168  49.017  1.00  0.00     0.162 HD
ENDBRANCH   5   7
BRANCH   1  25
HETATM   25  O   UNL     1      24.400  42.938  50.900  1.00  0.00    -0.349 OA
BRANCH  25  26
HETATM   26  C   UNL     1      24.698  42.132  49.762  1.00  0.00     0.171 C 
HETATM   27  C   UNL     1      25.749  41.114  50.166  1.00  0.00     0.034 C 
ENDBRANCH  25  26
ENDBRANCH   1  25
BRANCH   2  28
HETATM   28  O   UNL     1      26.583  43.849  52.227  1.00  0.00    -0.272 OA
BRANCH  28  29
HETATM   29  C   UNL     1      26.423  44.017  53.585  1.00  0.00     0.300 C 
HETATM   30  O   UNL     1      25.387  44.059  54.232  1.00  0.00    -0.259 OA
BRANCH  29  31
HETATM   31  C   UNL     1      27.758  44.067  54.211  1.00  0.00     0.061 A 
HETATM   32  C   UNL     1      28.243  45.198  54.878  1.00  0.00     0.050 A 
HETATM   33 CL   UNL     1      27.316  46.643  55.076  1.00  0.00    -0.083 Cl
HETATM   34  C   UNL     1      29.511  45.162  55.465  1.00  0.00     0.025 A 
HETATM   35  C   UNL     1      30.285  44.001  55.401  1.00  0.00     0.002 A 
HETATM   36  C   UNL     1      29.793  42.868  54.756  1.00  0.00     0.001 A 
HETATM   37  C   UNL     1      28.529  42.896  54.164  1.00  0.00     0.019 A 
ENDBRANCH  29  31
ENDBRANCH  28  29
ENDBRANCH   2  28
TORSDOF 6
ENDMDL
MODEL 2
REMARK VINA RESULT:      -9.5      1.810      2.990
REMARK  6 active torsions:
REMARK  status: ('A' for Active; 'I' for Inactive)
REMARK    1  A    between atoms: C_2  and  O_3 
REMARK    2  A    between atoms: O_3  and  C_4 
REMARK    3  A    between atoms: C_5  and  O_6 
REMARK    4  A    between atoms: O_6  and  C_7 
REMARK    5  A    between atoms: C_7  and  C_8 
REMARK    6  A    between atoms: C_18  and  C_19 
ROOT
HETATM    1  C   UNL     1      25.865  46.663  52.283  1.00  0.00     0.103 A 
HETATM    2  C   UNL     1      25.867  45.263  52.291  1.00  0.00     0.112 A 
HETATM    3  C   UNL     1      25.120  44.520  51.377  1.00  0.00     0.041 A 
HETATM    4  C   UNL     1      24.377  45.184  50.406  1.00  0.00     0.014 A 
HETATM    5  C   UNL     1      24.363  46.590  50.355  1.00  0.00    -0.013 A 
HETATM    6  C   UNL     1      25.109  47.319  51.305  1.00  0.00     0.050 A 
ENDROOT
BRANCH   5   7
HETATM    7  C   UNL     1      23.564  47.310  49.292  1.00  0.00     0.219 C 
HETATM    8  N   UNL     1      23.293  48.671  49.678  1.00  0.00    -0.332 N 
HETATM    9  C   UNL     1      22.329  49.427  49.063  1.00  0.00     0.256 C 
HETATM   10  H   UNL     1      24.045  49.202  50.093  1.00  0.00     0.165 HD
HETATM   11  O   UNL     1      22.327  50.651  49.119  1.00  0.00    -0.267 OA
HETATM   12  C   UNL     1      21.295  48.670  48.378  1.00  0.00     0.073 A 
HETATM   13  C   UNL     1      21.336  47.295  48.422  1.00  0.00     0.088 A 
HETATM   14  C   UNL     1      20.156  49.142  47.651  1.00  0.00    -0.023 A 
HETATM   15  S   UNL     1      20.028  46.571  47.616  1.00  0.00    -0.074 SA
HETATM   16  N   UNL     1      22.312  46.616  49.062  1.00  0.00    -0.358 N 
HETATM   17  C   UNL     1      19.382  48.089  47.196  1.00  0.00     0.018 A 
HETATM   18  C   UNL     1      18.123  48.227  46.413  1.00  0.00     0.281 C 
HETATM   19  N   UNL     1      17.568  49.646  46.501  1.00  0.00    -0.070 N 
HETATM   20  C   UNL     1      18.671  50.690  46.337  1.00  0.00     0.239 C 
HETATM   21  H   UNL     1      16.939  49.754  45.697  1.00  0.00     0.279 HD
HETATM   22  C   UNL     1      16.724  49.860  47.725  1.00  0.00     0.270 C 
HETATM   23  C   UNL     1      19.758  50.570  47.419  1.00  0.00     0.068 C 
HETATM   24  H   UNL     1      22.399  45.611  48.931  1.00  0.00     0.162 HD
ENDBRANCH   5   7
BRANCH   1  25
HETATM   25  O   UNL     1      26.605  47.275  53.257  1.00  0.00    -0.349 OA
BRANCH  25  26
HETATM   26  C   UNL     1      25.907  47.775  54.397  1.00  0.00     0.171 C 
HETATM   27  C   UNL     1      26.933  48.279  55.395  1.00  0.00     0.034 C 
ENDBRANCH  25  26
ENDBRANCH   1  25
BRANCH   2  28
HETATM   28  O   UNL     1      26.590  44.563  53.260  1.00  0.00    -0.272 OA
BRANCH  28  29
HETATM   29  C   UNL     1      27.833  44.193  52.796  1.00  0.00     0.300 C 
HETATM   30  O   UNL     1      28.181  43.962  51.647  1.00  0.00    -0.259 OA
BRANCH  29  31
HETATM   31  C   UNL     1      28.774  44.186  53.931  1.00  0.00     0.061 A 
HETATM   32  C   UNL     1      29.738  43.187  54.113  1.00  0.00     0.050 A 
HETATM   33 CL   UNL     1      29.958  41.878  53.006  1.00  0.00    -0.083 Cl
HETATM   34  C   UNL     1      30.611  43.260  55.203  1.00  0.00     0.025 A 
HETATM   35  C   UNL     1      30.533  44.329  56.099  1.00  0.00     0.002 A 
HETATM   36  C   UNL     1      29.587  45.335  55.905  1.00  0.00     0.001 A 
HETATM   37  C   UNL     1      28.711  45.268  54.821  1.00  0.00     0.019 A 
ENDBRANCH  29  31
ENDBRANCH  28  29
ENDBRANCH   2  28
TORSDOF 6
ENDMDL
MODEL 3
REMARK VINA RESULT:      -9.2      3.257      4.147
REMARK  6 active torsions:
REMARK  status: ('A' for Active; 'I' for Inactive)
REMARK    1  A    between atoms: C_2  and  O_3 
REMARK    2  A    between atoms: O_3  and  C_4 
REMARK    3  A    between atoms: C_5  and  O_6 
REMARK    4  A    between atoms: O_6  and  C_7 
REMARK    5  A    between atoms: C_7  and  C_8 
REMARK    6  A    between atoms: C_18  and  C_19 
ROOT
HETATM    1  C   UNL     1      26.849  44.382  53.034  1.00  0.00     0.103 A 
HETATM    2  C   UNL     1      26.873  45.456  53.930  1.00  0.00     0.112 A 
HETATM    3  C   UNL     1      26.347  46.705  53.597  1.00  0.00     0.041 A 
HETATM    4  C   UNL     1      25.750  46.881  52.353  1.00  0.00     0.014 A 
HETATM    5  C   UNL     1      25.691  45.820  51.432  1.00  0.00    -0.013 A 
HETATM    6  C   UNL     1      26.251  44.574  51.784  1.00  0.00     0.050 A 
ENDROOT
BRANCH   5   7
HETATM    7  C   UNL     1      25.033  46.010  50.083  1.00  0.00     0.219 C 
HETATM    8  N   UNL     1      24.009  47.022  50.142  1.00  0.00    -0.332 N 
HETATM    9  C   UNL     1      23.057  47.155  49.166  1.00  0.00     0.256 C 
HETATM   10  H   UNL     1      24.212  47.869  50.652  1.00  0.00     0.165 HD
HETATM   11  O   UNL     1      22.424  48.193  49.010  1.00  0.00    -0.267 OA
HETATM   12  C   UNL     1      22.828  45.967  48.360  1.00  0.00     0.073 A 
HETATM   13  C   UNL     1      23.535  44.822  48.647  1.00  0.00     0.088 A 
HETATM   14  C   UNL     1      21.913  45.767  47.278  1.00  0.00    -0.023 A 
HETATM   15  S   UNL     1      23.109  43.517  47.646  1.00  0.00    -0.074 SA
HETATM   16  N   UNL     1      24.451  44.760  49.637  1.00  0.00    -0.358 N 
HETATM   17  C   UNL     1      21.967  44.465  46.812  1.00  0.00     0.018 A 
HETATM   18  C   UNL     1      21.141  43.918  45.700  1.00  0.00     0.281 C 
HETATM   19  N   UNL     1      19.957  44.829  45.389  1.00  0.00    -0.070 N 
HETATM   20  C   UNL     1      20.373  46.299  45.362  1.00  0.00     0.239 C 
HETATM   21  H   UNL     1      19.659  44.590  44.436  1.00  0.00     0.279 HD
HETATM   22  C   UNL     1      18.775  44.562  46.277  1.00  0.00     0.270 C 
HETATM   23  C   UNL     1      20.954  46.769  46.706  1.00  0.00     0.068 C 
HETATM   24  H   UNL     1      25.066  43.954  49.709  1.00  0.00     0.162 HD
ENDBRANCH   5   7
BRANCH   1  25
HETATM   25  O   UNL     1      27.435  43.222  53.464  1.00  0.00    -0.349 OA
BRANCH  25  26
HETATM   26  C   UNL     1      28.256  42.516  52.534  1.00  0.00     0.171 C 
HETATM   27  C   UNL     1      28.535  41.138  53.105  1.00  0.00     0.034 C 
ENDBRANCH  25  26
ENDBRANCH   1  25
BRANCH   2  28
HETATM   28  O   UNL     1      27.477  45.319  55.183  1.00  0.00    -0.272 OA
BRANCH  28  29
HETATM   29  C   UNL     1      28.673  46.000  55.246  1.00  0.00     0.300 C 
HETATM   30  O   UNL     1      28.915  47.149  54.907  1.00  0.00    -0.259 OA
BRANCH  29  31
HETATM   31  C   UNL     1      29.673  45.131  55.893  1.00  0.00     0.061 A 
HETATM   32  C   UNL     1      30.068  45.289  57.227  1.00  0.00     0.050 A 
HETATM   33 CL   UNL     1      29.398  46.492  58.270  1.00  0.00    -0.083 Cl
HETATM   34  C   UNL     1      31.007  44.411  57.777  1.00  0.00     0.025 A 
HETATM   35  C   UNL     1      31.537  43.373  57.008  1.00  0.00     0.002 A 
HETATM   36  C   UNL     1      31.127  43.203  55.687  1.00  0.00     0.001 A 
HETATM   37  C   UNL     1      30.193  44.076  55.128  1.00  0.00     0.019 A 
ENDBRANCH  29  31
ENDBRANCH  28  29
ENDBRANCH   2  28
TORSDOF 6
ENDMDL
MODEL 4
REMARK VINA RESULT:      -9.2      1.765      2.855
REMARK  6 active torsions:
REMARK  status: ('A' for Active; 'I' for Inactive)
REMARK    1  A    between atoms: C_2  and  O_3 
REMARK    2  A    between atoms: O_3  and  C_4 
REMARK    3  A    between atoms: C_5  and  O_6 
REMARK    4  A    between atoms: O_6  and  C_7 
REMARK    5  A    between atoms: C_7  and  C_8 
REMARK    6  A    between atoms: C_18  and  C_19 
ROOT
HETATM    1  C   UNL     1      25.370  46.192  51.376  1.00  0.00     0.103 A 
HETATM    2  C   UNL     1      25.210  44.845  51.035  1.00  0.00     0.112 A 
HETATM    3  C   UNL     1      24.279  44.432  50.081  1.00  0.00     0.041 A 
HETATM    4  C   UNL     1      23.511  45.387  49.423  1.00  0.00     0.014 A 
HETATM    5  C   UNL     1      23.656  46.753  49.726  1.00  0.00    -0.013 A 
HETATM    6  C   UNL     1      24.588  47.142  50.711  1.00  0.00     0.050 A 
ENDROOT
BRANCH   5   7
HETATM    7  C   UNL     1      22.828  47.791  49.002  1.00  0.00     0.219 C 
HETATM    8  N   UNL     1      23.028  49.102  49.564  1.00  0.00    -0.332 N 
HETATM    9  C   UNL     1      22.170  50.141  49.318  1.00  0.00     0.256 C 
HETATM   10  H   UNL     1      23.972  49.378  49.791  1.00  0.00     0.165 HD
HETATM   11  O   UNL     1      22.501  51.311  49.477  1.00  0.00    -0.267 OA
HETATM   12  C   UNL     1      20.835  49.753  48.893  1.00  0.00     0.073 A 
HETATM   13  C   UNL     1      20.528  48.415  48.806  1.00  0.00     0.088 A 
HETATM   14  C   UNL     1      19.712  50.578  48.565  1.00  0.00    -0.023 A 
HETATM   15  S   UNL     1      18.915  48.139  48.348  1.00  0.00    -0.074 SA
HETATM   16  N   UNL     1      21.423  47.442  49.079  1.00  0.00    -0.358 N 
HETATM   17  C   UNL     1      18.601  49.810  48.261  1.00  0.00     0.018 A 
HETATM   18  C   UNL     1      17.265  50.349  47.885  1.00  0.00     0.281 C 
HETATM   19  N   UNL     1      17.140  51.825  48.250  1.00  0.00    -0.070 N 
HETATM   20  C   UNL     1      18.397  52.605  47.868  1.00  0.00     0.239 C 
HETATM   21  H   UNL     1      16.377  52.196  47.671  1.00  0.00     0.279 HD
HETATM   22  C   UNL     1      16.722  52.033  49.678  1.00  0.00     0.270 C 
HETATM   23  C   UNL     1      19.654  52.076  48.581  1.00  0.00     0.068 C 
HETATM   24  H   UNL     1      21.210  46.476  48.844  1.00  0.00     0.162 HD
ENDBRANCH   5   7
BRANCH   1  25
HETATM   25  O   UNL     1      26.286  46.464  52.356  1.00  0.00    -0.349 OA
BRANCH  25  26
HETATM   26  C   UNL     1      25.794  46.987  53.589  1.00  0.00     0.171 C 
HETATM   27  C   UNL     1      26.985  47.409  54.430  1.00  0.00     0.034 C 
ENDBRANCH  25  26
ENDBRANCH   1  25
BRANCH   2  28
HETATM   28  O   UNL     1      25.954  43.856  51.686  1.00  0.00    -0.272 OA
BRANCH  28  29
HETATM   29  C   UNL     1      27.220  43.743  51.154  1.00  0.00     0.300 C 
HETATM   30  O   UNL     1      27.598  44.006  50.021  1.00  0.00    -0.259 OA
BRANCH  29  31
HETATM   31  C   UNL     1      28.139  43.310  52.222  1.00  0.00     0.061 A 
HETATM   32  C   UNL     1      28.706  42.030  52.263  1.00  0.00     0.050 A 
HETATM   33 CL   UNL     1      28.424  40.836  51.046  1.00  0.00    -0.083 Cl
HETATM   34  C   UNL     1      29.588  41.699  53.297  1.00  0.00     0.025 A 
HETATM   35  C   UNL     1      29.913  42.641  54.276  1.00  0.00     0.002 A 
HETATM   36  C   UNL     1      29.365  43.921  54.222  1.00  0.00     0.001 A 
HETATM   37  C   UNL     1      28.483  44.260  53.195  1.00  0.00     0.019 A 
ENDBRANCH  29  31
ENDBRANCH  28  29
ENDBRANCH   2  28
TORSDOF 6
ENDMDL
MODEL 5
REMARK VINA RESULT:      -9.0      6.632      9.907
REMARK  6 active torsions:
REMARK  status: ('A' for Active; 'I' for Inactive)
REMARK    1  A    between atoms: C_2  and  O_3 
REMARK    2  A    between atoms: O_3  and  C_4 
REMARK    3  A    between atoms: C_5  and  O_6 
REMARK    4  A    between atoms: O_6  and  C_7 
REMARK    5  A    between atoms: C_7  and  C_8 
REMARK    6  A    between atoms: C_18  and  C_19 
ROOT
HETATM    1  C   UNL     1      27.279  42.969  52.459  1.00  0.00     0.103 A 
HETATM    2  C   UNL     1      28.186  42.359  53.332  1.00  0.00     0.112 A 
HETATM    3  C   UNL     1      28.692  41.081  53.094  1.00  0.00     0.041 A 
HETATM    4  C   UNL     1      28.313  40.404  51.940  1.00  0.00     0.014 A 
HETATM    5  C   UNL     1      27.416  40.991  51.029  1.00  0.00    -0.013 A 
HETATM    6  C   UNL     1      26.901  42.275  51.304  1.00  0.00     0.050 A 
ENDROOT
BRANCH   5   7
HETATM    7  C   UNL     1      27.012  40.258  49.769  1.00  0.00     0.219 C 
HETATM    8  N   UNL     1      27.349  38.860  49.850  1.00  0.00    -0.332 N 
HETATM    9  C   UNL     1      27.392  38.054  48.743  1.00  0.00     0.256 C 
HETATM   10  H   UNL     1      27.156  38.378  50.716  1.00  0.00     0.165 HD
HETATM   11  O   UNL     1      27.318  36.833  48.823  1.00  0.00    -0.267 OA
HETATM   12  C   UNL     1      27.570  38.749  47.479  1.00  0.00     0.073 A 
HETATM   13  C   UNL     1      27.712  40.117  47.487  1.00  0.00     0.088 A 
HETATM   14  C   UNL     1      27.661  38.214  46.155  1.00  0.00    -0.023 A 
HETATM   15  S   UNL     1      27.963  40.762  45.935  1.00  0.00    -0.074 SA
HETATM   16  N   UNL     1      27.674  40.848  48.621  1.00  0.00    -0.358 N 
HETATM   17  C   UNL     1      27.887  39.216  45.226  1.00  0.00     0.018 A 
HETATM   18  C   UNL     1      28.041  39.005  43.761  1.00  0.00     0.281 C 
HETATM   19  N   UNL     1      28.316  37.540  43.436  1.00  0.00    -0.070 N 
HETATM   20  C   UNL     1      27.405  36.610  44.235  1.00  0.00     0.239 C 
HETATM   21  H   UNL     1      28.067  37.417  42.448  1.00  0.00     0.279 HD
HETATM   22  C   UNL     1      29.772  37.187  43.549  1.00  0.00     0.270 C 
HETATM   23  C   UNL     1      27.589  36.771  45.754  1.00  0.00     0.068 C 
HETATM   24  H   UNL     1      27.616  41.861  48.570  1.00  0.00     0.162 HD
ENDBRANCH   5   7
BRANCH   1  25
HETATM   25  O   UNL     1      26.824  44.207  52.826  1.00  0.00    -0.349 OA
BRANCH  25  26
HETATM   26  C   UNL     1      25.428  44.344  53.086  1.00  0.00     0.171 C 
HETATM   27  C   UNL     1      25.222  44.301  54.589  1.00  0.00     0.034 C 
ENDBRANCH  25  26
ENDBRANCH   1  25
BRANCH   2  28
HETATM   28  O   UNL     1      28.579  43.004  54.509  1.00  0.00    -0.272 OA
BRANCH  28  29
HETATM   29  C   UNL     1      29.890  43.422  54.444  1.00  0.00     0.300 C 
HETATM   30  O   UNL     1      30.671  43.343  53.507  1.00  0.00    -0.259 OA
BRANCH  29  31
HETATM   31  C   UNL     1      30.230  44.094  55.711  1.00  0.00     0.061 A 
HETATM   32  C   UNL     1      29.657  45.309  56.105  1.00  0.00     0.050 A 
HETATM   33 CL   UNL     1      28.459  46.131  55.169  1.00  0.00    -0.083 Cl
HETATM   34  C   UNL     1      30.013  45.875  57.333  1.00  0.00     0.025 A 
HETATM   35  C   UNL     1      30.925  45.227  58.170  1.00  0.00     0.002 A 
HETATM   36  C   UNL     1      31.479  44.007  57.788  1.00  0.00     0.001 A 
HETATM   37  C   UNL     1      31.130  43.436  56.563  1.00  0.00     0.019 A 
ENDBRANCH  29  31
ENDBRANCH  28  29
ENDBRANCH   2  28
TORSDOF 6
ENDMDL
MODEL 6
REMARK VINA RESULT:      -8.8      2.100      3.590
REMARK  6 active torsions:
REMARK  status: ('A' for Active; 'I' for Inactive)
REMARK    1  A    between atoms: C_2  and  O_3 
REMARK    2  A    between atoms: O_3  and  C_4 
REMARK    3  A    between atoms: C_5  and  O_6 
REMARK    4  A    between atoms: O_6  and  C_7 
REMARK    5  A    between atoms: C_7  and  C_8 
REMARK    6  A    between atoms: C_18  and  C_19 
ROOT
HETATM    1  C   UNL     1      25.072  45.279  51.594  1.00  0.00     0.103 A 
HETATM    2  C   UNL     1      25.358  44.136  50.840  1.00  0.00     0.112 A 
HETATM    3  C   UNL     1      24.926  43.996  49.521  1.00  0.00     0.041 A 
HETATM    4  C   UNL     1      24.220  45.035  48.923  1.00  0.00     0.014 A 
HETATM    5  C   UNL     1      23.927  46.207  49.643  1.00  0.00    -0.013 A 
HETATM    6  C   UNL     1      24.355  46.314  50.983  1.00  0.00     0.050 A 
ENDROOT
BRANCH   5   7
HETATM    7  C   UNL     1      23.167  47.339  48.989  1.00  0.00     0.219 C 
HETATM    8  N   UNL     1      23.376  48.580  49.690  1.00  0.00    -0.332 N 
HETATM    9  C   UNL     1      22.562  49.668  49.508  1.00  0.00     0.256 C 
HETATM   10  H   UNL     1      24.315  48.800  49.989  1.00  0.00     0.165 HD
HETATM   11  O   UNL     1      22.918  50.804  49.800  1.00  0.00    -0.267 OA
HETATM   12  C   UNL     1      21.241  49.369  48.982  1.00  0.00     0.073 A 
HETATM   13  C   UNL     1      20.899  48.057  48.745  1.00  0.00     0.088 A 
HETATM   14  C   UNL     1      20.160  50.260  48.685  1.00  0.00    -0.023 A 
HETATM   15  S   UNL     1      19.306  47.883  48.184  1.00  0.00    -0.074 SA
HETATM   16  N   UNL     1      21.751  47.032  48.962  1.00  0.00    -0.358 N 
HETATM   17  C   UNL     1      19.045  49.564  48.252  1.00  0.00     0.018 A 
HETATM   18  C   UNL     1      17.746  50.183  47.868  1.00  0.00     0.281 C 
HETATM   19  N   UNL     1      17.645  51.619  48.373  1.00  0.00    -0.070 N 
HETATM   20  C   UNL     1      18.942  52.389  48.133  1.00  0.00     0.239 C 
HETATM   21  H   UNL     1      16.924  52.071  47.798  1.00  0.00     0.279 HD
HETATM   22  C   UNL     1      17.160  51.698  49.793  1.00  0.00     0.270 C 
HETATM   23  C   UNL     1      20.145  51.750  48.849  1.00  0.00     0.068 C 
HETATM   24  H   UNL     1      21.522  46.102  48.620  1.00  0.00     0.162 HD
ENDBRANCH   5   7
BRANCH   1  25
HETATM   25  O   UNL     1      25.515  45.277  52.889  1.00  0.00    -0.349 OA
BRANCH  25  26
HETATM   26  C   UNL     1      26.554  46.194  53.230  1.00  0.00     0.171 C 
HETATM   27  C   UNL     1      25.961  47.265  54.127  1.00  0.00     0.034 C 
ENDBRANCH  25  26
ENDBRANCH   1  25
BRANCH   2  28
HETATM   28  O   UNL     1      26.054  43.067  51.412  1.00  0.00    -0.272 OA
BRANCH  28  29
HETATM   29  C   UNL     1      27.385  43.079  51.054  1.00  0.00     0.300 C 
HETATM   30  O   UNL     1      28.211  43.965  51.217  1.00  0.00    -0.259 OA
BRANCH  29  31
HETATM   31  C   UNL     1      27.727  41.764  50.481  1.00  0.00     0.061 A 
HETATM   32  C   UNL     1      28.298  40.732  51.235  1.00  0.00     0.050 A 
HETATM   33 CL   UNL     1      28.625  40.872  52.926  1.00  0.00    -0.083 Cl
HETATM   34  C   UNL     1      28.575  39.504  50.626  1.00  0.00     0.025 A 
HETATM   35  C   UNL     1      28.271  39.302  49.277  1.00  0.00     0.002 A 
HETATM   36  C   UNL     1      27.683  40.322  48.533  1.00  0.00     0.001 A 
HETATM   37  C   UNL     1      27.405  41.552  49.132  1.00  0.00     0.019 A 
ENDBRANCH  29  31
ENDBRANCH  28  29
ENDBRANCH   2  28
TORSDOF 6
ENDMDL
MODEL 7
REMARK VINA RESULT:      -8.7      4.950      7.543
REMARK  6 active torsions:
REMARK  status: ('A' for Active; 'I' for Inactive)
REMARK    1  A    between atoms: C_2  and  O_3 
REMARK    2  A    between atoms: O_3  and  C_4 
REMARK    3  A    between atoms: C_5  and  O_6 
REMARK    4  A    between atoms: O_6  and  C_7 
REMARK    5  A    between atoms: C_7  and  C_8 
REMARK    6  A    between atoms: C_18  and  C_19 
ROOT
HETATM    1  C   UNL     1      20.187  48.726  49.150  1.00  0.00     0.103 A 
HETATM    2  C   UNL     1      21.204  49.634  49.465  1.00  0.00     0.112 A 
HETATM    3  C   UNL     1      20.957  51.001  49.595  1.00  0.00     0.041 A 
HETATM    4  C   UNL     1      19.657  51.474  49.443  1.00  0.00     0.014 A 
HETATM    5  C   UNL     1      18.605  50.589  49.145  1.00  0.00    -0.013 A 
HETATM    6  C   UNL     1      18.886  49.215  48.995  1.00  0.00     0.050 A 
ENDROOT
BRANCH   5   7
HETATM    7  C   UNL     1      17.192  51.104  48.990  1.00  0.00     0.219 C 
HETATM    8  N   UNL     1      16.944  51.549  47.643  1.00  0.00    -0.332 N 
HETATM    9  C   UNL     1      15.877  52.347  47.322  1.00  0.00     0.256 C 
HETATM   10  H   UNL     1      17.284  50.974  46.887  1.00  0.00     0.165 HD
HETATM   11  O   UNL     1      15.451  52.435  46.176  1.00  0.00    -0.267 OA
HETATM   12  C   UNL     1      15.317  53.105  48.428  1.00  0.00     0.073 A 
HETATM   13  C   UNL     1      15.900  52.998  49.670  1.00  0.00     0.088 A 
HETATM   14  C   UNL     1      14.219  54.023  48.435  1.00  0.00    -0.023 A 
HETATM   15  S   UNL     1      15.156  53.987  50.834  1.00  0.00    -0.074 SA
HETATM   16  N   UNL     1      16.962  52.200  49.911  1.00  0.00    -0.358 N 
HETATM   17  C   UNL     1      14.041  54.578  49.690  1.00  0.00     0.018 A 
HETATM   18  C   UNL     1      12.995  55.577  50.044  1.00  0.00     0.281 C 
HETATM   19  N   UNL     1      12.393  56.215  48.796  1.00  0.00    -0.070 N 
HETATM   20  C   UNL     1      12.100  55.172  47.719  1.00  0.00     0.239 C 
HETATM   21  H   UNL     1      11.487  56.602  49.085  1.00  0.00     0.279 HD
HETATM   22  C   UNL     1      13.203  57.377  48.294  1.00  0.00     0.270 C 
HETATM   23  C   UNL     1      13.366  54.423  47.268  1.00  0.00     0.068 C 
HETATM   24  H   UNL     1      17.256  52.022  50.868  1.00  0.00     0.162 HD
ENDBRANCH   5   7
BRANCH   1  25
HETATM   25  O   UNL     1      20.566  47.418  49.008  1.00  0.00    -0.349 OA
BRANCH  25  26
HETATM   26  C   UNL     1      20.166  46.743  47.817  1.00  0.00     0.171 C 
HETATM   27  C   UNL     1      21.391  46.571  46.939  1.00  0.00     0.034 C 
ENDBRANCH  25  26
ENDBRANCH   1  25
BRANCH   2  28
HETATM   28  O   UNL     1      22.524  49.196  49.610  1.00  0.00    -0.272 OA
BRANCH  28  29
HETATM   29  C   UNL     1      23.248  49.377  48.452  1.00  0.00     0.300 C 
HETATM   30  O   UNL     1      22.850  49.722  47.349  1.00  0.00    -0.259 OA
BRANCH  29  31
HETATM   31  C   UNL     1      24.675  49.162  48.755  1.00  0.00     0.061 A 
HETATM   32  C   UNL     1      25.143  48.042  49.452  1.00  0.00     0.050 A 
HETATM   33 CL   UNL     1      24.107  46.771  49.996  1.00  0.00    -0.083 Cl
HETATM   34  C   UNL     1      26.515  47.896  49.682  1.00  0.00     0.025 A 
HETATM   35  C   UNL     1      27.416  48.853  49.209  1.00  0.00     0.002 A 
HETATM   36  C   UNL     1      26.951  49.957  48.496  1.00  0.00     0.001 A 
HETATM   37  C   UNL     1      25.583  50.112  48.264  1.00  0.00     0.019 A 
ENDBRANCH  29  31
ENDBRANCH  28  29
ENDBRANCH   2  28
TORSDOF 6
ENDMDL
MODEL 8
REMARK VINA RESULT:      -8.6      6.566     10.164
REMARK  6 active torsions:
REMARK  status: ('A' for Active; 'I' for Inactive)
REMARK    1  A    between atoms: C_2  and  O_3 
REMARK    2  A    between atoms: O_3  and  C_4 
REMARK    3  A    between atoms: C_5  and  O_6 
REMARK    4  A    between atoms: O_6  and  C_7 
REMARK    5  A    between atoms: C_7  and  C_8 
REMARK    6  A    between atoms: C_18  and  C_19 
ROOT
HETATM    1  C   UNL     1      16.974  50.352  48.194  1.00  0.00     0.103 A 
HETATM    2  C   UNL     1      18.302  50.714  48.448  1.00  0.00     0.112 A 
HETATM    3  C   UNL     1      18.631  51.921  49.065  1.00  0.00     0.041 A 
HETATM    4  C   UNL     1      17.613  52.776  49.473  1.00  0.00     0.014 A 
HETATM    5  C   UNL     1      16.265  52.440  49.251  1.00  0.00    -0.013 A 
HETATM    6  C   UNL     1      15.959  51.224  48.604  1.00  0.00     0.050 A 
ENDROOT
BRANCH   5   7
HETATM    7  C   UNL     1      15.159  53.367  49.703  1.00  0.00     0.219 C 
HETATM    8  N   UNL     1      14.919  54.403  48.732  1.00  0.00    -0.332 N 
HETATM    9  C   UNL     1      14.216  55.540  49.036  1.00  0.00     0.256 C 
HETATM   10  H   UNL     1      14.897  54.141  47.758  1.00  0.00     0.165 HD
HETATM   11  O   UNL     1      13.702  56.239  48.170  1.00  0.00    -0.267 OA
HETATM   12  C   UNL     1      14.158  55.871  50.450  1.00  0.00     0.073 A 
HETATM   13  C   UNL     1      14.821  55.068  51.349  1.00  0.00     0.088 A 
HETATM   14  C   UNL     1      13.520  56.977  51.097  1.00  0.00    -0.023 A 
HETATM   15  S   UNL     1      14.694  55.627  52.948  1.00  0.00    -0.074 SA
HETATM   16  N   UNL     1      15.508  53.968  50.975  1.00  0.00    -0.358 N 
HETATM   17  C   UNL     1      13.751  56.958  52.461  1.00  0.00     0.018 A 
HETATM   18  C   UNL     1      13.239  57.966  53.430  1.00  0.00     0.281 C 
HETATM   19  N   UNL     1      12.767  59.230  52.719  1.00  0.00    -0.070 N 
HETATM   20  C   UNL     1      11.942  58.898  51.477  1.00  0.00     0.239 C 
HETATM   21  H   UNL     1      12.135  59.704  53.374  1.00  0.00     0.279 HD
HETATM   22  C   UNL     1      13.888  60.192  52.447  1.00  0.00     0.270 C 
HETATM   23  C   UNL     1      12.737  58.078  50.446  1.00  0.00     0.068 C 
HETATM   24  H   UNL     1      15.841  53.314  51.679  1.00  0.00     0.162 HD
ENDBRANCH   5   7
BRANCH   1  25
HETATM   25  O   UNL     1      16.784  49.162  47.545  1.00  0.00    -0.349 OA
BRANCH  25  26
HETATM   26  C   UNL     1      15.896  48.220  48.145  1.00  0.00     0.171 C 
HETATM   27  C   UNL     1      16.731  47.195  48.890  1.00  0.00     0.034 C 
ENDBRANCH  25  26
ENDBRANCH   1  25
BRANCH   2  28
HETATM   28  O   UNL     1      19.351  49.885  48.041  1.00  0.00    -0.272 OA
BRANCH  28  29
HETATM   29  C   UNL     1      20.044  49.377  49.118  1.00  0.00     0.300 C 
HETATM   30  O   UNL     1      19.607  48.792  50.099  1.00  0.00    -0.259 OA
BRANCH  29  31
HETATM   31  C   UNL     1      21.486  49.575  48.883  1.00  0.00     0.061 A 
HETATM   32  C   UNL     1      22.370  48.515  48.651  1.00  0.00     0.050 A 
HETATM   33 CL   UNL     1      21.862  46.865  48.574  1.00  0.00    -0.083 Cl
HETATM   34  C   UNL     1      23.722  48.783  48.414  1.00  0.00     0.025 A 
HETATM   35  C   UNL     1      24.187  50.100  48.394  1.00  0.00     0.002 A 
HETATM   36  C   UNL     1      23.302  51.156  48.603  1.00  0.00     0.001 A 
HETATM   37  C   UNL     1      21.952  50.898  48.843  1.00  0.00     0.019 A 
ENDBRANCH  29  31
ENDBRANCH  28  29
ENDBRANCH   2  28
TORSDOF 6
ENDMDL
MODEL 9
REMARK VINA RESULT:      -8.6      5.603      9.777
REMARK  6 active torsions:
REMARK  status: ('A' for Active; 'I' for Inactive)
REMARK    1  A    between atoms: C_2  and  O_3 
REMARK    2  A    between atoms: O_3  and  C_4 
REMARK    3  A    between atoms: C_5  and  O_6 
REMARK    4  A    between atoms: O_6  and  C_7 
REMARK    5  A    between atoms: C_7  and  C_8 
REMARK    6  A    between atoms: C_18  and  C_19 
ROOT
HETATM    1  C   UNL     1      26.812  44.009  50.610  1.00  0.00     0.103 A 
HETATM    2  C   UNL     1      27.638  43.684  51.692  1.00  0.00     0.112 A 
HETATM    3  C   UNL     1      28.249  42.434  51.803  1.00  0.00     0.041 A 
HETATM    4  C   UNL     1      28.063  41.495  50.794  1.00  0.00     0.014 A 
HETATM    5  C   UNL     1      27.255  41.791  49.682  1.00  0.00    -0.013 A 
HETATM    6  C   UNL     1      26.629  43.053  49.605  1.00  0.00     0.050 A 
ENDROOT
BRANCH   5   7
HETATM    7  C   UNL     1      27.062  40.772  48.581  1.00  0.00     0.219 C 
HETATM    8  N   UNL     1      27.863  39.597  48.812  1.00  0.00    -0.332 N 
HETATM    9  C   UNL     1      28.122  38.684  47.825  1.00  0.00     0.256 C 
HETATM   10  H   UNL     1      27.894  39.226  49.750  1.00  0.00     0.165 HD
HETATM   11  O   UNL     1      28.477  37.537  48.074  1.00  0.00    -0.267 OA
HETATM   12  C   UNL     1      27.982  39.185  46.468  1.00  0.00     0.073 A 
HETATM   13  C   UNL     1      27.644  40.505  46.277  1.00  0.00     0.088 A 
HETATM   14  C   UNL     1      28.181  38.504  45.225  1.00  0.00    -0.023 A 
HETATM   15  S   UNL     1      27.574  40.936  44.636  1.00  0.00    -0.074 SA
HETATM   16  N   UNL     1      27.417  41.354  47.302  1.00  0.00    -0.358 N 
HETATM   17  C   UNL     1      27.998  39.360  44.152  1.00  0.00     0.018 A 
HETATM   18  C   UNL     1      28.137  38.979  42.719  1.00  0.00     0.281 C 
HETATM   19  N   UNL     1      28.882  37.656  42.567  1.00  0.00    -0.070 N 
HETATM   20  C   UNL     1      28.391  36.618  43.575  1.00  0.00     0.239 C 
HETATM   21  H   UNL     1      28.638  37.300  41.635  1.00  0.00     0.279 HD
HETATM   22  C   UNL     1      30.374  37.830  42.572  1.00  0.00     0.270 C 
HETATM   23  C   UNL     1      28.589  37.074  45.030  1.00  0.00     0.068 C 
HETATM   24  H   UNL     1      27.011  42.269  47.122  1.00  0.00     0.162 HD
ENDBRANCH   5   7
BRANCH   1  25
HETATM   25  O   UNL     1      26.238  45.251  50.639  1.00  0.00    -0.349 OA
BRANCH  25  26
HETATM   26  C   UNL     1      26.715  46.218  49.705  1.00  0.00     0.171 C 
HETATM   27  C   UNL     1      26.243  47.586  50.161  1.00  0.00     0.034 C 
ENDBRANCH  25  26
ENDBRANCH   1  25
BRANCH   2  28
HETATM   28  O   UNL     1      27.836  44.598  52.731  1.00  0.00    -0.272 OA
BRANCH  28  29
HETATM   29  C   UNL     1      27.623  44.019  53.963  1.00  0.00     0.300 C 
HETATM   30  O   UNL     1      26.654  43.381  54.348  1.00  0.00    -0.259 OA
BRANCH  29  31
HETATM   31  C   UNL     1      28.829  44.216  54.788  1.00  0.00     0.061 A 
HETATM   32  C   UNL     1      29.102  45.413  55.461  1.00  0.00     0.050 A 
HETATM   33 CL   UNL     1      28.037  46.773  55.432  1.00  0.00    -0.083 Cl
HETATM   34  C   UNL     1      30.257  45.517  56.243  1.00  0.00     0.025 A 
HETATM   35  C   UNL     1      31.126  44.430  56.364  1.00  0.00     0.002 A 
HETATM   36  C   UNL     1      30.842  43.232  55.712  1.00  0.00     0.001 A 
HETATM   37  C   UNL     1      29.694  43.120  54.927  1.00  0.00     0.019 A 
ENDBRANCH  29  31
ENDBRANCH  28  29
ENDBRANCH   2  28
TORSDOF 6
ENDMDL
MODEL 10
REMARK VINA RESULT:      -8.5     14.165     17.094
REMARK  6 active torsions:
REMARK  status: ('A' for Active; 'I' for Inactive)
REMARK    1  A    between atoms: C_2  and  O_3 
REMARK    2  A    between atoms: O_3  and  C_4 
REMARK    3  A    between atoms: C_5  and  O_6 
REMARK    4  A    between atoms: O_6  and  C_7 
REMARK    5  A    between atoms: C_7  and  C_8 
REMARK    6  A    between atoms: C_18  and  C_19 
ROOT
HETATM    1  C   UNL     1      33.202  50.378  41.899  1.00  0.00     0.103 A 
HETATM    2  C   UNL     1      32.248  50.793  42.836  1.00  0.00     0.112 A 
HETATM    3  C   UNL     1      32.588  51.586  43.931  1.00  0.00     0.041 A 
HETATM    4  C   UNL     1      33.905  52.008  44.083  1.00  0.00     0.014 A 
HETATM    5  C   UNL     1      34.889  51.626  43.153  1.00  0.00    -0.013 A 
HETATM    6  C   UNL     1      34.524  50.805  42.066  1.00  0.00     0.050 A 
ENDROOT
BRANCH   5   7
HETATM    7  C   UNL     1      36.318  52.094  43.314  1.00  0.00     0.219 C 
HETATM    8  N   UNL     1      37.149  51.052  43.859  1.00  0.00    -0.332 N 
HETATM    9  C   UNL     1      38.382  51.307  44.401  1.00  0.00     0.256 C 
HETATM   10  H   UNL     1      37.034  50.118  43.494  1.00  0.00     0.165 HD
HETATM   11  O   UNL     1      39.230  50.433  44.532  1.00  0.00    -0.267 OA
HETATM   12  C   UNL     1      38.591  52.677  44.839  1.00  0.00     0.073 A 
HETATM   13  C   UNL     1      37.561  53.580  44.716  1.00  0.00     0.088 A 
HETATM   14  C   UNL     1      39.745  53.269  45.444  1.00  0.00    -0.023 A 
HETATM   15  S   UNL     1      37.956  55.117  45.323  1.00  0.00    -0.074 SA
HETATM   16  N   UNL     1      36.364  53.252  44.185  1.00  0.00    -0.358 N 
HETATM   17  C   UNL     1      39.516  54.596  45.764  1.00  0.00     0.018 A 
HETATM   18  C   UNL     1      40.502  55.503  46.413  1.00  0.00     0.281 C 
HETATM   19  N   UNL     1      41.649  54.718  47.042  1.00  0.00    -0.070 N 
HETATM   20  C   UNL     1      42.145  53.612  46.113  1.00  0.00     0.239 C 
HETATM   21  H   UNL     1      42.423  55.383  47.147  1.00  0.00     0.279 HD
HETATM   22  C   UNL     1      41.323  54.231  48.425  1.00  0.00     0.270 C 
HETATM   23  C   UNL     1      41.044  52.594  45.771  1.00  0.00     0.068 C 
HETATM   24  H   UNL     1      35.692  53.982  43.959  1.00  0.00     0.162 HD
ENDBRANCH   5   7
BRANCH   1  25
HETATM   25  O   UNL     1      32.750  49.568  40.893  1.00  0.00    -0.349 OA
BRANCH  25  26
HETATM   26  C   UNL     1      32.649  48.172  41.169  1.00  0.00     0.171 C 
HETATM   27  C   UNL     1      31.514  47.608  40.334  1.00  0.00     0.034 C 
ENDBRANCH  25  26
ENDBRANCH   1  25
BRANCH   2  28
HETATM   28  O   UNL     1      30.918  50.377  42.723  1.00  0.00    -0.272 OA
BRANCH  28  29
HETATM   29  C   UNL     1      30.147  51.317  42.076  1.00  0.00     0.300 C 
HETATM   30  O   UNL     1      30.033  52.510  42.319  1.00  0.00    -0.259 OA
BRANCH  29  31
HETATM   31  C   UNL     1      29.490  50.672  40.924  1.00  0.00     0.061 A 
HETATM   32  C   UNL     1      29.855  50.931  39.598  1.00  0.00     0.050 A 
HETATM   33 CL   UNL     1      31.141  52.002  39.168  1.00  0.00    -0.083 Cl
HETATM   34  C   UNL     1      29.200  50.263  38.559  1.00  0.00     0.025 A 
HETATM   35  C   UNL     1      28.198  49.332  38.840  1.00  0.00     0.002 A 
HETATM   36  C   UNL     1      27.850  49.058  40.161  1.00  0.00     0.001 A 
HETATM   37  C   UNL     1      28.496  49.722  41.205  1.00  0.00     0.019 A 
ENDBRANCH  29  31
ENDBRANCH  28  29
ENDBRANCH   2  28
TORSDOF 6
ENDMDL
