MODEL 1
REMARK VINA RESULT:     -10.2      0.000      0.000
REMARK  2 active torsions:
REMARK  status: ('A' for Active; 'I' for Inactive)
REMARK    1  A    between atoms: C_4  and  N_5 
REMARK    2  A    between atoms: C_12  and  C_13 
ROOT
HETATM    1  N   UNL     1      25.449  47.382  50.657  1.00  0.00    -0.236 N 
HETATM    2  N   UNL     1      24.049  47.565  50.666  1.00  0.00    -0.179 NA
HETATM    3  C   UNL     1      23.779  48.517  49.702  1.00  0.00     0.119 A 
HETATM    4  C   UNL     1      24.886  48.898  49.043  1.00  0.00     0.123 A 
HETATM    5  C   UNL     1      26.017  48.176  49.649  1.00  0.00     0.280 A 
HETATM    6  O   UNL     1      27.182  48.296  49.314  1.00  0.00    -0.265 OA
HETATM    7  N   UNL     1      22.563  49.080  49.425  1.00  0.00    -0.344 N 
HETATM    8  C   UNL     1      22.404  49.999  48.404  1.00  0.00     0.047 A 
HETATM    9  C   UNL     1      23.453  50.447  47.687  1.00  0.00     0.086 A 
HETATM   10  C   UNL     1      24.814  49.909  47.986  1.00  0.00     0.193 A 
HETATM   11  O   UNL     1      25.782  50.316  47.360  1.00  0.00    -0.287 OA
HETATM   12  H   UNL     1      23.707  47.872  51.577  1.00  0.00     0.155 HD
HETATM   13  H   UNL     1      21.735  48.608  49.776  1.00  0.00     0.167 HD
ENDROOT
BRANCH   8  14
HETATM   14  C   UNL     1      21.043  50.504  48.141  1.00  0.00    -0.009 A 
HETATM   15  C   UNL     1      20.571  51.676  48.754  1.00  0.00     0.015 A 
HETATM   16  C   UNL     1      19.280  52.146  48.492  1.00  0.00     0.024 A 
HETATM   17  C   UNL     1      18.454  51.450  47.612  1.00  0.00     0.034 A 
HETATM   18 CL   UNL     1      16.867  52.028  47.290  1.00  0.00    -0.084 Cl
HETATM   19  C   UNL     1      18.908  50.288  46.992  1.00  0.00     0.024 A 
HETATM   20  C   UNL     1      20.198  49.818  47.255  1.00  0.00     0.015 A 
ENDBRANCH   8  14
BRANCH   1  21
HETATM   21  C   UNL     1      26.065  46.489  51.560  1.00  0.00     0.055 A 
HETATM   22  C   UNL     1      26.565  45.252  51.133  1.00  0.00     0.031 A 
HETATM   23  C   UNL     1      27.192  44.380  52.029  1.00  0.00     0.002 A 
HETATM   24  C   UNL     1      27.326  44.731  53.369  1.00  0.00     0.000 A 
HETATM   25  C   UNL     1      26.828  45.950  53.815  1.00  0.00     0.002 A 
HETATM   26  C   UNL     1      26.202  46.822  52.918  1.00  0.00     0.031 A 
ENDBRANCH   1  21
TORSDOF 2
ENDMDL
MODEL 2
REMARK VINA RESULT:      -9.7      4.626      9.447
REMARK  2 active torsions:
REMARK  status: ('A' for Active; 'I' for Inactive)
REMARK    1  A    between atoms: C_4  and  N_5 
REMARK    2  A    between atoms: C_12  and  C_13 
ROOT
HETATM    1  N   UNL     1      24.529  47.281  50.074  1.00  0.00    -0.236 N 
HETATM    2  N   UNL     1      25.682  47.463  50.868  1.00  0.00    -0.179 NA
HETATM    3  C   UNL     1      25.927  46.246  51.475  1.00  0.00     0.119 A 
HETATM    4  C   UNL     1      25.064  45.298  51.075  1.00  0.00     0.123 A 
HETATM    5  C   UNL     1      24.115  45.942  50.153  1.00  0.00     0.280 A 
HETATM    6  O   UNL     1      23.176  45.382  49.613  1.00  0.00    -0.265 OA
HETATM    7  N   UNL     1      26.890  45.976  52.410  1.00  0.00    -0.344 N 
HETATM    8  C   UNL     1      27.070  44.704  52.920  1.00  0.00     0.047 A 
HETATM    9  C   UNL     1      26.255  43.686  52.584  1.00  0.00     0.086 A 
HETATM   10  C   UNL     1      25.149  43.938  51.612  1.00  0.00     0.193 A 
HETATM   11  O   UNL     1      24.386  43.032  51.308  1.00  0.00    -0.287 OA
HETATM   12  H   UNL     1      25.554  48.193  51.570  1.00  0.00     0.155 HD
HETATM   13  H   UNL     1      27.650  46.643  52.508  1.00  0.00     0.167 HD
ENDROOT
BRANCH   8  14
HETATM   14  C   UNL     1      28.174  44.499  53.877  1.00  0.00    -0.009 A 
HETATM   15  C   UNL     1      28.474  45.459  54.857  1.00  0.00     0.015 A 
HETATM   16  C   UNL     1      29.520  45.250  55.761  1.00  0.00     0.024 A 
HETATM   17  C   UNL     1      30.270  44.078  55.695  1.00  0.00     0.034 A 
HETATM   18 CL   UNL     1      31.556  43.821  56.807  1.00  0.00    -0.084 Cl
HETATM   19  C   UNL     1      29.983  43.113  54.733  1.00  0.00     0.024 A 
HETATM   20  C   UNL     1      28.938  43.323  53.828  1.00  0.00     0.015 A 
ENDBRANCH   8  14
BRANCH   1  21
HETATM   21  C   UNL     1      23.982  48.354  49.339  1.00  0.00     0.055 A 
HETATM   22  C   UNL     1      22.597  48.516  49.208  1.00  0.00     0.031 A 
HETATM   23  C   UNL     1      22.062  49.594  48.494  1.00  0.00     0.002 A 
HETATM   24  C   UNL     1      22.905  50.525  47.896  1.00  0.00     0.000 A 
HETATM   25  C   UNL     1      24.284  50.376  48.005  1.00  0.00     0.002 A 
HETATM   26  C   UNL     1      24.818  49.299  48.719  1.00  0.00     0.031 A 
ENDBRANCH   1  21
TORSDOF 2
ENDMDL
MODEL 3
REMARK VINA RESULT:      -9.2      6.134      7.669
REMARK  2 active torsions:
REMARK  status: ('A' for Active; 'I' for Inactive)
REMARK    1  A    between atoms: C_4  and  N_5 
REMARK    2  A    between atoms: C_12  and  C_13 
ROOT
HETATM    1  N   UNL     1      28.556  45.126  55.098  1.00  0.00    -0.236 N 
HETATM    2  N   UNL     1      28.189  44.054  54.255  1.00  0.00    -0.179 NA
HETATM    3  C   UNL     1      27.159  44.523  53.463  1.00  0.00     0.119 A 
HETATM    4  C   UNL     1      26.895  45.820  53.691  1.00  0.00     0.123 A 
HETATM    5  C   UNL     1      27.792  46.258  54.773  1.00  0.00     0.280 A 
HETATM    6  O   UNL     1      27.811  47.377  55.255  1.00  0.00    -0.265 OA
HETATM    7  N   UNL     1      26.425  43.800  52.561  1.00  0.00    -0.344 N 
HETATM    8  C   UNL     1      25.440  44.389  51.790  1.00  0.00     0.047 A 
HETATM    9  C   UNL     1      25.098  45.682  51.946  1.00  0.00     0.086 A 
HETATM   10  C   UNL     1      25.827  46.504  52.957  1.00  0.00     0.193 A 
HETATM   11  O   UNL     1      25.520  47.675  53.128  1.00  0.00    -0.287 OA
HETATM   12  H   UNL     1      27.888  43.235  54.784  1.00  0.00     0.155 HD
HETATM   13  H   UNL     1      26.800  42.907  52.258  1.00  0.00     0.167 HD
ENDROOT
BRANCH   8  14
HETATM   14  C   UNL     1      24.745  43.541  50.802  1.00  0.00    -0.009 A 
HETATM   15  C   UNL     1      23.470  43.881  50.321  1.00  0.00     0.015 A 
HETATM   16  C   UNL     1      22.825  43.071  49.381  1.00  0.00     0.024 A 
HETATM   17  C   UNL     1      23.452  41.919  48.912  1.00  0.00     0.034 A 
HETATM   18 CL   UNL     1      22.659  40.923  47.756  1.00  0.00    -0.084 Cl
HETATM   19  C   UNL     1      24.718  41.569  49.375  1.00  0.00     0.024 A 
HETATM   20  C   UNL     1      25.362  42.378  50.315  1.00  0.00     0.015 A 
ENDBRANCH   8  14
BRANCH   1  21
HETATM   21  C   UNL     1      29.570  44.967  56.067  1.00  0.00     0.055 A 
HETATM   22  C   UNL     1      29.617  45.777  57.209  1.00  0.00     0.031 A 
HETATM   23  C   UNL     1      30.614  45.601  58.175  1.00  0.00     0.002 A 
HETATM   24  C   UNL     1      31.581  44.615  58.012  1.00  0.00     0.000 A 
HETATM   25  C   UNL     1      31.558  43.807  56.879  1.00  0.00     0.002 A 
HETATM   26  C   UNL     1      30.561  43.983  55.914  1.00  0.00     0.031 A 
ENDBRANCH   1  21
TORSDOF 2
ENDMDL
MODEL 4
REMARK VINA RESULT:      -9.2      8.503     10.441
REMARK  2 active torsions:
REMARK  status: ('A' for Active; 'I' for Inactive)
REMARK    1  A    between atoms: C_4  and  N_5 
REMARK    2  A    between atoms: C_12  and  C_13 
ROOT
HETATM    1  N   UNL     1      29.461  43.762  54.464  1.00  0.00    -0.236 N 
HETATM    2  N   UNL     1      29.892  42.615  53.762  1.00  0.00    -0.179 NA
HETATM    3  C   UNL     1      29.061  42.502  52.663  1.00  0.00     0.119 A 
HETATM    4  C   UNL     1      28.189  43.520  52.582  1.00  0.00     0.123 A 
HETATM    5  C   UNL     1      28.413  44.375  53.759  1.00  0.00     0.280 A 
HETATM    6  O   UNL     1      27.780  45.382  54.021  1.00  0.00    -0.265 OA
HETATM    7  N   UNL     1      29.045  41.482  51.750  1.00  0.00    -0.344 N 
HETATM    8  C   UNL     1      28.192  41.496  50.662  1.00  0.00     0.047 A 
HETATM    9  C   UNL     1      27.279  42.471  50.492  1.00  0.00     0.086 A 
HETATM   10  C   UNL     1      27.212  43.579  51.491  1.00  0.00     0.193 A 
HETATM   11  O   UNL     1      26.378  44.465  51.366  1.00  0.00    -0.287 OA
HETATM   12  H   UNL     1      29.842  41.773  54.335  1.00  0.00     0.155 HD
HETATM   13  H   UNL     1      29.854  40.868  51.717  1.00  0.00     0.167 HD
ENDROOT
BRANCH   8  14
HETATM   14  C   UNL     1      28.292  40.383  49.699  1.00  0.00    -0.009 A 
HETATM   15  C   UNL     1      28.712  39.105  50.105  1.00  0.00     0.015 A 
HETATM   16  C   UNL     1      28.797  38.058  49.183  1.00  0.00     0.024 A 
HETATM   17  C   UNL     1      28.459  38.278  47.849  1.00  0.00     0.034 A 
HETATM   18 CL   UNL     1      28.564  36.990  46.716  1.00  0.00    -0.084 Cl
HETATM   19  C   UNL     1      28.036  39.538  47.430  1.00  0.00     0.024 A 
HETATM   20  C   UNL     1      27.952  40.585  48.352  1.00  0.00     0.015 A 
ENDBRANCH   8  14
BRANCH   1  21
HETATM   21  C   UNL     1      30.085  44.146  55.670  1.00  0.00     0.055 A 
HETATM   22  C   UNL     1      29.742  45.339  56.319  1.00  0.00     0.031 A 
HETATM   23  C   UNL     1      30.350  45.704  57.525  1.00  0.00     0.002 A 
HETATM   24  C   UNL     1      31.315  44.883  58.098  1.00  0.00     0.000 A 
HETATM   25  C   UNL     1      31.678  43.699  57.465  1.00  0.00     0.002 A 
HETATM   26  C   UNL     1      31.069  43.334  56.260  1.00  0.00     0.031 A 
ENDBRANCH   1  21
TORSDOF 2
ENDMDL
MODEL 5
REMARK VINA RESULT:      -9.2      8.570     11.107
REMARK  2 active torsions:
REMARK  status: ('A' for Active; 'I' for Inactive)
REMARK    1  A    between atoms: C_4  and  N_5 
REMARK    2  A    between atoms: C_12  and  C_13 
ROOT
HETATM    1  N   UNL     1      27.851  40.230  50.074  1.00  0.00    -0.236 N 
HETATM    2  N   UNL     1      28.555  40.236  51.299  1.00  0.00    -0.179 NA
HETATM    3  C   UNL     1      28.454  41.522  51.795  1.00  0.00     0.119 A 
HETATM    4  C   UNL     1      27.689  42.305  51.017  1.00  0.00     0.123 A 
HETATM    5  C   UNL     1      27.275  41.493  49.862  1.00  0.00     0.280 A 
HETATM    6  O   UNL     1      26.588  41.891  48.937  1.00  0.00    -0.265 OA
HETATM    7  N   UNL     1      29.064  42.018  52.915  1.00  0.00    -0.344 N 
HETATM    8  C   UNL     1      28.856  43.317  53.339  1.00  0.00     0.047 A 
HETATM    9  C   UNL     1      28.109  44.182  52.628  1.00  0.00     0.086 A 
HETATM   10  C   UNL     1      27.465  43.711  51.365  1.00  0.00     0.193 A 
HETATM   11  O   UNL     1      26.798  44.485  50.694  1.00  0.00    -0.287 OA
HETATM   12  H   UNL     1      29.534  39.975  51.181  1.00  0.00     0.155 HD
HETATM   13  H   UNL     1      29.434  41.349  53.583  1.00  0.00     0.167 HD
ENDROOT
BRANCH   8  14
HETATM   14  C   UNL     1      29.509  43.742  54.593  1.00  0.00    -0.009 A 
HETATM   15  C   UNL     1      30.505  42.956  55.195  1.00  0.00     0.015 A 
HETATM   16  C   UNL     1      31.120  43.372  56.380  1.00  0.00     0.024 A 
HETATM   17  C   UNL     1      30.747  44.579  56.968  1.00  0.00     0.034 A 
HETATM   18 CL   UNL     1      31.503  45.091  58.425  1.00  0.00    -0.084 Cl
HETATM   19  C   UNL     1      29.764  45.373  56.381  1.00  0.00     0.024 A 
HETATM   20  C   UNL     1      29.149  44.956  55.197  1.00  0.00     0.015 A 
ENDBRANCH   8  14
BRANCH   1  21
HETATM   21  C   UNL     1      27.788  39.063  49.284  1.00  0.00     0.055 A 
HETATM   22  C   UNL     1      26.840  38.063  49.537  1.00  0.00     0.031 A 
HETATM   23  C   UNL     1      26.771  36.917  48.737  1.00  0.00     0.002 A 
HETATM   24  C   UNL     1      27.653  36.752  47.673  1.00  0.00     0.000 A 
HETATM   25  C   UNL     1      28.608  37.728  47.412  1.00  0.00     0.002 A 
HETATM   26  C   UNL     1      28.676  38.874  48.211  1.00  0.00     0.031 A 
ENDBRANCH   1  21
TORSDOF 2
ENDMDL
MODEL 6
REMARK VINA RESULT:      -9.1      4.244      8.844
REMARK  2 active torsions:
REMARK  status: ('A' for Active; 'I' for Inactive)
REMARK    1  A    between atoms: C_4  and  N_5 
REMARK    2  A    between atoms: C_12  and  C_13 
ROOT
HETATM    1  N   UNL     1      23.138  47.835  49.417  1.00  0.00    -0.236 N 
HETATM    2  N   UNL     1      24.088  47.883  50.461  1.00  0.00    -0.179 NA
HETATM    3  C   UNL     1      24.687  46.638  50.492  1.00  0.00     0.119 A 
HETATM    4  C   UNL     1      24.240  45.836  49.512  1.00  0.00     0.123 A 
HETATM    5  C   UNL     1      23.206  46.586  48.780  1.00  0.00     0.280 A 
HETATM    6  O   UNL     1      22.566  46.155  47.837  1.00  0.00    -0.265 OA
HETATM    7  N   UNL     1      25.604  46.193  51.406  1.00  0.00    -0.344 N 
HETATM    8  C   UNL     1      26.169  44.934  51.313  1.00  0.00     0.047 A 
HETATM    9  C   UNL     1      25.786  44.055  50.368  1.00  0.00     0.086 A 
HETATM   10  C   UNL     1      24.745  44.467  49.379  1.00  0.00     0.193 A 
HETATM   11  O   UNL     1      24.368  43.678  48.524  1.00  0.00    -0.287 OA
HETATM   12  H   UNL     1      23.659  48.095  51.362  1.00  0.00     0.155 HD
HETATM   13  H   UNL     1      26.077  46.889  51.975  1.00  0.00     0.167 HD
ENDROOT
BRANCH   8  14
HETATM   14  C   UNL     1      27.194  44.568  52.310  1.00  0.00    -0.009 A 
HETATM   15  C   UNL     1      27.151  45.078  53.618  1.00  0.00     0.015 A 
HETATM   16  C   UNL     1      28.126  44.719  54.553  1.00  0.00     0.024 A 
HETATM   17  C   UNL     1      29.147  43.844  54.190  1.00  0.00     0.034 A 
HETATM   18 CL   UNL     1      30.345  43.402  55.341  1.00  0.00    -0.084 Cl
HETATM   19  C   UNL     1      29.202  43.324  52.899  1.00  0.00     0.024 A 
HETATM   20  C   UNL     1      28.228  43.685  51.963  1.00  0.00     0.015 A 
ENDBRANCH   8  14
BRANCH   1  21
HETATM   21  C   UNL     1      22.317  48.949  49.138  1.00  0.00     0.055 A 
HETATM   22  C   UNL     1      20.921  48.862  49.220  1.00  0.00     0.031 A 
HETATM   23  C   UNL     1      20.114  49.975  48.961  1.00  0.00     0.002 A 
HETATM   24  C   UNL     1      20.691  51.192  48.613  1.00  0.00     0.000 A 
HETATM   25  C   UNL     1      22.075  51.297  48.517  1.00  0.00     0.002 A 
HETATM   26  C   UNL     1      22.881  50.184  48.776  1.00  0.00     0.031 A 
ENDBRANCH   1  21
TORSDOF 2
ENDMDL
MODEL 7
REMARK VINA RESULT:      -8.9      3.585      5.617
REMARK  2 active torsions:
REMARK  status: ('A' for Active; 'I' for Inactive)
REMARK    1  A    between atoms: C_4  and  N_5 
REMARK    2  A    between atoms: C_12  and  C_13 
ROOT
HETATM    1  N   UNL     1      28.426  44.331  53.430  1.00  0.00    -0.236 N 
HETATM    2  N   UNL     1      27.401  45.292  53.288  1.00  0.00    -0.179 NA
HETATM    3  C   UNL     1      26.822  45.058  52.055  1.00  0.00     0.119 A 
HETATM    4  C   UNL     1      27.354  43.988  51.442  1.00  0.00     0.123 A 
HETATM    5  C   UNL     1      28.426  43.480  52.314  1.00  0.00     0.280 A 
HETATM    6  O   UNL     1      29.140  42.526  52.059  1.00  0.00    -0.265 OA
HETATM    7  N   UNL     1      25.849  45.808  51.452  1.00  0.00    -0.344 N 
HETATM    8  C   UNL     1      25.313  45.452  50.228  1.00  0.00     0.047 A 
HETATM    9  C   UNL     1      25.780  44.398  49.532  1.00  0.00     0.086 A 
HETATM   10  C   UNL     1      26.883  43.578  50.117  1.00  0.00     0.193 A 
HETATM   11  O   UNL     1      27.334  42.628  49.493  1.00  0.00    -0.287 OA
HETATM   12  H   UNL     1      27.760  46.246  53.339  1.00  0.00     0.155 HD
HETATM   13  H   UNL     1      25.325  46.454  52.034  1.00  0.00     0.167 HD
ENDROOT
BRANCH   8  14
HETATM   14  C   UNL     1      24.225  46.288  49.687  1.00  0.00    -0.009 A 
HETATM   15  C   UNL     1      24.198  47.676  49.904  1.00  0.00     0.015 A 
HETATM   16  C   UNL     1      23.163  48.457  49.382  1.00  0.00     0.024 A 
HETATM   17  C   UNL     1      22.151  47.859  48.634  1.00  0.00     0.034 A 
HETATM   18 CL   UNL     1      20.879  48.820  47.992  1.00  0.00    -0.084 Cl
HETATM   19  C   UNL     1      22.165  46.485  48.405  1.00  0.00     0.024 A 
HETATM   20  C   UNL     1      23.199  45.703  48.929  1.00  0.00     0.015 A 
ENDBRANCH   8  14
BRANCH   1  21
HETATM   21  C   UNL     1      29.246  44.315  54.578  1.00  0.00     0.055 A 
HETATM   22  C   UNL     1      30.107  43.242  54.843  1.00  0.00     0.031 A 
HETATM   23  C   UNL     1      30.932  43.242  55.973  1.00  0.00     0.002 A 
HETATM   24  C   UNL     1      30.906  44.315  56.859  1.00  0.00     0.000 A 
HETATM   25  C   UNL     1      30.050  45.385  56.620  1.00  0.00     0.002 A 
HETATM   26  C   UNL     1      29.227  45.385  55.489  1.00  0.00     0.031 A 
ENDBRANCH   1  21
TORSDOF 2
ENDMDL
MODEL 8
REMARK VINA RESULT:      -8.6      2.415      3.267
REMARK  2 active torsions:
REMARK  status: ('A' for Active; 'I' for Inactive)
REMARK    1  A    between atoms: C_4  and  N_5 
REMARK    2  A    between atoms: C_12  and  C_13 
ROOT
HETATM    1  N   UNL     1      26.182  44.956  51.478  1.00  0.00    -0.236 N 
HETATM    2  N   UNL     1      25.593  46.231  51.622  1.00  0.00    -0.179 NA
HETATM    3  C   UNL     1      24.665  46.343  50.604  1.00  0.00     0.119 A 
HETATM    4  C   UNL     1      24.575  45.218  49.875  1.00  0.00     0.123 A 
HETATM    5  C   UNL     1      25.568  44.276  50.414  1.00  0.00     0.280 A 
HETATM    6  O   UNL     1      25.780  43.158  49.977  1.00  0.00    -0.265 OA
HETATM    7  N   UNL     1      23.920  47.448  50.293  1.00  0.00    -0.344 N 
HETATM    8  C   UNL     1      22.987  47.431  49.273  1.00  0.00     0.047 A 
HETATM    9  C   UNL     1      22.823  46.353  48.483  1.00  0.00     0.086 A 
HETATM   10  C   UNL     1      23.652  45.137  48.741  1.00  0.00     0.193 A 
HETATM   11  O   UNL     1      23.533  44.154  48.023  1.00  0.00    -0.287 OA
HETATM   12  H   UNL     1      26.282  46.982  51.561  1.00  0.00     0.155 HD
HETATM   13  H   UNL     1      23.850  48.180  50.994  1.00  0.00     0.167 HD
ENDROOT
BRANCH   8  14
HETATM   14  C   UNL     1      22.189  48.653  49.053  1.00  0.00    -0.009 A 
HETATM   15  C   UNL     1      22.795  49.919  49.007  1.00  0.00     0.015 A 
HETATM   16  C   UNL     1      22.028  51.068  48.794  1.00  0.00     0.024 A 
HETATM   17  C   UNL     1      20.650  50.959  48.619  1.00  0.00     0.034 A 
HETATM   18 CL   UNL     1      19.707  52.372  48.356  1.00  0.00    -0.084 Cl
HETATM   19  C   UNL     1      20.033  49.711  48.656  1.00  0.00     0.024 A 
HETATM   20  C   UNL     1      20.800  48.562  48.871  1.00  0.00     0.015 A 
ENDBRANCH   8  14
BRANCH   1  21
HETATM   21  C   UNL     1      27.209  44.534  52.348  1.00  0.00     0.055 A 
HETATM   22  C   UNL     1      28.274  43.746  51.890  1.00  0.00     0.031 A 
HETATM   23  C   UNL     1      29.299  43.348  52.754  1.00  0.00     0.002 A 
HETATM   24  C   UNL     1      29.274  43.727  54.093  1.00  0.00     0.000 A 
HETATM   25  C   UNL     1      28.220  44.500  54.570  1.00  0.00     0.002 A 
HETATM   26  C   UNL     1      27.196  44.899  53.705  1.00  0.00     0.031 A 
ENDBRANCH   1  21
TORSDOF 2
ENDMDL
MODEL 9
REMARK VINA RESULT:      -8.3      7.237     10.142
REMARK  2 active torsions:
REMARK  status: ('A' for Active; 'I' for Inactive)
REMARK    1  A    between atoms: C_4  and  N_5 
REMARK    2  A    between atoms: C_12  and  C_13 
ROOT
HETATM    1  N   UNL     1      24.954  42.382  49.877  1.00  0.00    -0.236 N 
HETATM    2  N   UNL     1      26.007  41.931  50.704  1.00  0.00    -0.179 NA
HETATM    3  C   UNL     1      26.334  42.994  51.524  1.00  0.00     0.119 A 
HETATM    4  C   UNL     1      25.528  44.051  51.328  1.00  0.00     0.123 A 
HETATM    5  C   UNL     1      24.604  43.692  50.240  1.00  0.00     0.280 A 
HETATM    6  O   UNL     1      23.747  44.426  49.781  1.00  0.00    -0.265 OA
HETATM    7  N   UNL     1      27.364  43.048  52.423  1.00  0.00    -0.344 N 
HETATM    8  C   UNL     1      27.571  44.156  53.224  1.00  0.00     0.047 A 
HETATM    9  C   UNL     1      26.820  45.267  53.102  1.00  0.00     0.086 A 
HETATM   10  C   UNL     1      25.717  45.285  52.095  1.00  0.00     0.193 A 
HETATM   11  O   UNL     1      25.035  46.290  51.954  1.00  0.00    -0.287 OA
HETATM   12  H   UNL     1      26.820  41.635  50.163  1.00  0.00     0.155 HD
HETATM   13  H   UNL     1      27.792  42.170  52.701  1.00  0.00     0.167 HD
ENDROOT
BRANCH   8  14
HETATM   14  C   UNL     1      28.671  44.096  54.206  1.00  0.00    -0.009 A 
HETATM   15  C   UNL     1      29.577  43.023  54.218  1.00  0.00     0.015 A 
HETATM   16  C   UNL     1      30.617  42.980  55.151  1.00  0.00     0.024 A 
HETATM   17  C   UNL     1      30.763  44.013  56.075  1.00  0.00     0.034 A 
HETATM   18 CL   UNL     1      32.042  43.961  57.222  1.00  0.00    -0.084 Cl
HETATM   19  C   UNL     1      29.876  45.088  56.075  1.00  0.00     0.024 A 
HETATM   20  C   UNL     1      28.835  45.129  55.142  1.00  0.00     0.015 A 
ENDBRANCH   8  14
BRANCH   1  21
HETATM   21  C   UNL     1      24.404  41.540  48.888  1.00  0.00     0.055 A 
HETATM   22  C   UNL     1      23.037  41.576  48.579  1.00  0.00     0.031 A 
HETATM   23  C   UNL     1      22.502  40.753  47.583  1.00  0.00     0.002 A 
HETATM   24  C   UNL     1      23.324  39.877  46.882  1.00  0.00     0.000 A 
HETATM   25  C   UNL     1      24.681  39.818  47.180  1.00  0.00     0.002 A 
HETATM   26  C   UNL     1      25.217  40.642  48.175  1.00  0.00     0.031 A 
ENDBRANCH   1  21
TORSDOF 2
ENDMDL
MODEL 10
REMARK VINA RESULT:      -8.2     21.483     22.073
REMARK  2 active torsions:
REMARK  status: ('A' for Active; 'I' for Inactive)
REMARK    1  A    between atoms: C_4  and  N_5 
REMARK    2  A    between atoms: C_12  and  C_13 
ROOT
HETATM    1  N   UNL     1      38.004  42.240  64.700  1.00  0.00    -0.236 N 
HETATM    2  N   UNL     1      38.641  43.500  64.736  1.00  0.00    -0.179 NA
HETATM    3  C   UNL     1      37.727  44.377  65.289  1.00  0.00     0.119 A 
HETATM    4  C   UNL     1      36.595  43.758  65.664  1.00  0.00     0.123 A 
HETATM    5  C   UNL     1      36.732  42.343  65.285  1.00  0.00     0.280 A 
HETATM    6  O   UNL     1      35.880  41.489  65.455  1.00  0.00    -0.265 OA
HETATM    7  N   UNL     1      37.874  45.730  65.432  1.00  0.00    -0.344 N 
HETATM    8  C   UNL     1      36.904  46.505  66.041  1.00  0.00     0.047 A 
HETATM    9  C   UNL     1      35.733  45.980  66.448  1.00  0.00     0.086 A 
HETATM   10  C   UNL     1      35.495  44.517  66.264  1.00  0.00     0.193 A 
HETATM   11  O   UNL     1      34.431  44.023  66.610  1.00  0.00    -0.287 OA
HETATM   12  H   UNL     1      38.922  43.815  63.808  1.00  0.00     0.155 HD
HETATM   13  H   UNL     1      38.811  46.112  65.352  1.00  0.00     0.167 HD
ENDROOT
BRANCH   8  14
HETATM   14  C   UNL     1      37.180  47.945  66.203  1.00  0.00    -0.009 A 
HETATM   15  C   UNL     1      36.856  48.618  67.393  1.00  0.00     0.015 A 
HETATM   16  C   UNL     1      37.127  49.982  67.536  1.00  0.00     0.024 A 
HETATM   17  C   UNL     1      37.730  50.682  66.493  1.00  0.00     0.034 A 
HETATM   18 CL   UNL     1      38.064  52.359  66.669  1.00  0.00    -0.084 Cl
HETATM   19  C   UNL     1      38.062  50.030  65.308  1.00  0.00     0.024 A 
HETATM   20  C   UNL     1      37.789  48.666  65.165  1.00  0.00     0.015 A 
ENDBRANCH   8  14
BRANCH   1  21
HETATM   21  C   UNL     1      38.660  41.116  64.154  1.00  0.00     0.055 A 
HETATM   22  C   UNL     1      38.837  40.979  62.770  1.00  0.00     0.031 A 
HETATM   23  C   UNL     1      39.505  39.872  62.237  1.00  0.00     0.002 A 
HETATM   24  C   UNL     1      40.003  38.882  63.078  1.00  0.00     0.000 A 
HETATM   25  C   UNL     1      39.828  38.994  64.453  1.00  0.00     0.002 A 
HETATM   26  C   UNL     1      39.161  40.102  64.987  1.00  0.00     0.031 A 
ENDBRANCH   1  21
TORSDOF 2
ENDMDL
