MODEL 1
REMARK VINA RESULT:      -7.9      0.000      0.000
REMARK  6 active torsions:
REMARK  status: ('A' for Active; 'I' for Inactive)
REMARK    1  A    between atoms: C_3  and  N_4 
REMARK       I    between atoms: N_4  and  C_5 
REMARK       I    between atoms: C_5  and  N_6 
REMARK    2  A    between atoms: N_6  and  C_7 
REMARK    3  A    between atoms: C_7  and  C_8 
REMARK    4  A    between atoms: C_8  and  N_9 
REMARK    5  A    between atoms: C_8  and  C_13 
REMARK    6  A    between atoms: C_20  and  C_21 
ROOT
HETATM    1  N   UNL     1      22.471  48.395  49.547  1.00  0.00    -0.309 N 
HETATM    2  C   UNL     1      21.613  48.197  48.497  1.00  0.00     0.320 C 
HETATM    3  N   UNL     1      20.300  48.355  48.867  1.00  0.00    -0.340 N 
HETATM    4  O   UNL     1      21.901  47.911  47.340  1.00  0.00    -0.247 OA
HETATM    5  H   UNL     1      22.087  48.132  50.446  1.00  0.00     0.170 HD
HETATM    6  H   UNL     1      20.121  48.533  49.847  1.00  0.00     0.164 HD
ENDROOT
BRANCH   1   7
HETATM    7  C   UNL     1      23.885  48.351  49.488  1.00  0.00     0.043 A 
HETATM    8  C   UNL     1      24.705  49.294  48.847  1.00  0.00    -0.035 A 
HETATM    9  C   UNL     1      24.209  50.557  48.201  1.00  0.00     0.050 C 
HETATM   10  C   UNL     1      26.097  49.079  48.835  1.00  0.00     0.010 A 
HETATM   11  C   UNL     1      26.672  47.988  49.492  1.00  0.00     0.016 A 
HETATM   12  C   UNL     1      25.870  47.081  50.187  1.00  0.00     0.019 A 
HETATM   13  C   UNL     1      24.482  47.282  50.182  1.00  0.00     0.046 A 
BRANCH  12  14
HETATM   14  C   UNL     1      26.424  45.935  50.903  1.00  0.00     0.179 A 
HETATM   15  O   UNL     1      27.158  45.037  50.172  1.00  0.00    -0.302 OA
HETATM   16  C   UNL     1      27.538  44.098  51.083  1.00  0.00     0.163 A 
HETATM   17  C   UNL     1      27.027  44.461  52.303  1.00  0.00     0.144 A 
HETATM   18  N   UNL     1      26.319  45.630  52.184  1.00  0.00    -0.234 NA
ENDBRANCH  12  14
ENDBRANCH   1   7
BRANCH   3  19
HETATM   19  C   UNL     1      19.170  47.899  48.055  1.00  0.00     0.164 C 
BRANCH  19  20
HETATM   20  C   UNL     1      18.021  48.933  47.815  1.00  0.00     0.261 C 
BRANCH  20  21
HETATM   21  N   UNL     1      16.703  48.489  48.449  1.00  0.00    -0.067 N 
HETATM   22  H   UNL     1      16.662  49.004  49.354  1.00  0.00     0.280 HD
HETATM   23  C   UNL     1      15.458  48.906  47.727  1.00  0.00     0.270 C 
HETATM   24  C   UNL     1      16.680  47.039  48.807  1.00  0.00     0.270 C 
ENDBRANCH  20  21
BRANCH  20  25
HETATM   25  C   UNL     1      18.446  50.304  48.243  1.00  0.00     0.085 A 
HETATM   26  O   UNL     1      18.410  50.565  49.584  1.00  0.00    -0.325 OA
HETATM   27  C   UNL     1      18.836  51.842  49.754  1.00  0.00     0.142 A 
HETATM   28  C   UNL     1      19.137  52.413  48.541  1.00  0.00     0.027 A 
HETATM   29  C   UNL     1      18.885  51.421  47.561  1.00  0.00     0.037 A 
ENDBRANCH  20  25
ENDBRANCH  19  20
ENDBRANCH   3  19
TORSDOF 6
ENDMDL
MODEL 2
REMARK VINA RESULT:      -7.8      7.618     10.561
REMARK  6 active torsions:
REMARK  status: ('A' for Active; 'I' for Inactive)
REMARK    1  A    between atoms: C_3  and  N_4 
REMARK       I    between atoms: N_4  and  C_5 
REMARK       I    between atoms: C_5  and  N_6 
REMARK    2  A    between atoms: N_6  and  C_7 
REMARK    3  A    between atoms: C_7  and  C_8 
REMARK    4  A    between atoms: C_8  and  N_9 
REMARK    5  A    between atoms: C_8  and  C_13 
REMARK    6  A    between atoms: C_20  and  C_21 
ROOT
HETATM    1  N   UNL     1      30.018  43.096  54.150  1.00  0.00    -0.309 N 
HETATM    2  C   UNL     1      29.036  42.250  53.705  1.00  0.00     0.320 C 
HETATM    3  N   UNL     1      29.497  41.386  52.742  1.00  0.00    -0.340 N 
HETATM    4  O   UNL     1      27.867  42.205  54.070  1.00  0.00    -0.247 OA
HETATM    5  H   UNL     1      30.710  43.327  53.448  1.00  0.00     0.170 HD
HETATM    6  H   UNL     1      30.455  41.509  52.440  1.00  0.00     0.164 HD
ENDROOT
BRANCH   1   7
HETATM    7  C   UNL     1      29.881  44.070  55.168  1.00  0.00     0.043 A 
HETATM    8  C   UNL     1      30.658  44.148  56.336  1.00  0.00    -0.035 A 
HETATM    9  C   UNL     1      31.829  43.256  56.641  1.00  0.00     0.050 C 
HETATM   10  C   UNL     1      30.361  45.151  57.278  1.00  0.00     0.010 A 
HETATM   11  C   UNL     1      29.356  46.094  57.047  1.00  0.00     0.016 A 
HETATM   12  C   UNL     1      28.622  46.065  55.860  1.00  0.00     0.019 A 
HETATM   13  C   UNL     1      28.903  45.054  54.930  1.00  0.00     0.046 A 
BRANCH  12  14
HETATM   14  C   UNL     1      27.573  47.037  55.564  1.00  0.00     0.179 A 
HETATM   15  O   UNL     1      27.203  47.885  56.576  1.00  0.00    -0.302 OA
HETATM   16  C   UNL     1      26.232  48.662  56.020  1.00  0.00     0.163 A 
HETATM   17  C   UNL     1      26.057  48.259  54.721  1.00  0.00     0.144 A 
HETATM   18  N   UNL     1      26.913  47.224  54.435  1.00  0.00    -0.234 NA
ENDBRANCH  12  14
ENDBRANCH   1   7
BRANCH   3  19
HETATM   19  C   UNL     1      28.619  40.604  51.870  1.00  0.00     0.164 C 
BRANCH  19  20
HETATM   20  C   UNL     1      28.249  41.248  50.494  1.00  0.00     0.261 C 
BRANCH  20  21
HETATM   21  N   UNL     1      27.894  40.197  49.441  1.00  0.00    -0.067 N 
HETATM   22  H   UNL     1      26.876  40.024  49.578  1.00  0.00     0.280 HD
HETATM   23  C   UNL     1      28.008  40.638  48.013  1.00  0.00     0.270 C 
HETATM   24  C   UNL     1      28.564  38.882  49.674  1.00  0.00     0.270 C 
ENDBRANCH  20  21
BRANCH  20  25
HETATM   25  C   UNL     1      27.186  42.288  50.665  1.00  0.00     0.085 A 
HETATM   26  O   UNL     1      25.922  41.836  50.921  1.00  0.00    -0.325 OA
HETATM   27  C   UNL     1      25.125  42.927  51.049  1.00  0.00     0.142 A 
HETATM   28  C   UNL     1      25.855  44.077  50.869  1.00  0.00     0.027 A 
HETATM   29  C   UNL     1      27.188  43.668  50.619  1.00  0.00     0.037 A 
ENDBRANCH  20  25
ENDBRANCH  19  20
ENDBRANCH   3  19
TORSDOF 6
ENDMDL
MODEL 3
REMARK VINA RESULT:      -7.8      2.464      9.729
REMARK  6 active torsions:
REMARK  status: ('A' for Active; 'I' for Inactive)
REMARK    1  A    between atoms: C_3  and  N_4 
REMARK       I    between atoms: N_4  and  C_5 
REMARK       I    between atoms: C_5  and  N_6 
REMARK    2  A    between atoms: N_6  and  C_7 
REMARK    3  A    between atoms: C_7  and  C_8 
REMARK    4  A    between atoms: C_8  and  N_9 
REMARK    5  A    between atoms: C_8  and  C_13 
REMARK    6  A    between atoms: C_20  and  C_21 
ROOT
HETATM    1  N   UNL     1      25.612  46.740  50.414  1.00  0.00    -0.309 N 
HETATM    2  C   UNL     1      26.108  46.742  51.691  1.00  0.00     0.320 C 
HETATM    3  N   UNL     1      26.468  45.484  52.107  1.00  0.00    -0.340 N 
HETATM    4  O   UNL     1      26.246  47.704  52.438  1.00  0.00    -0.247 OA
HETATM    5  H   UNL     1      25.129  45.887  50.162  1.00  0.00     0.170 HD
HETATM    6  H   UNL     1      26.277  44.721  51.469  1.00  0.00     0.164 HD
ENDROOT
BRANCH   1   7
HETATM    7  C   UNL     1      25.198  47.877  49.679  1.00  0.00     0.043 A 
HETATM    8  C   UNL     1      26.051  48.810  49.066  1.00  0.00    -0.035 A 
HETATM    9  C   UNL     1      27.548  48.690  49.015  1.00  0.00     0.050 C 
HETATM   10  C   UNL     1      25.479  49.918  48.412  1.00  0.00     0.010 A 
HETATM   11  C   UNL     1      24.093  50.073  48.315  1.00  0.00     0.016 A 
HETATM   12  C   UNL     1      23.237  49.118  48.865  1.00  0.00     0.019 A 
HETATM   13  C   UNL     1      23.805  48.024  49.534  1.00  0.00     0.046 A 
BRANCH  12  14
HETATM   14  C   UNL     1      21.784  49.225  48.776  1.00  0.00     0.179 A 
HETATM   15  O   UNL     1      21.054  48.110  49.094  1.00  0.00    -0.302 OA
HETATM   16  C   UNL     1      19.760  48.500  48.926  1.00  0.00     0.163 A 
HETATM   17  C   UNL     1      19.761  49.810  48.521  1.00  0.00     0.144 A 
HETATM   18  N   UNL     1      21.051  50.267  48.427  1.00  0.00    -0.234 NA
ENDBRANCH  12  14
ENDBRANCH   1   7
BRANCH   3  19
HETATM   19  C   UNL     1      26.720  45.134  53.506  1.00  0.00     0.164 C 
BRANCH  19  20
HETATM   20  C   UNL     1      28.195  44.776  53.881  1.00  0.00     0.261 C 
BRANCH  20  21
HETATM   21  N   UNL     1      28.513  45.093  55.342  1.00  0.00    -0.067 N 
HETATM   22  H   UNL     1      27.925  44.428  55.887  1.00  0.00     0.280 HD
HETATM   23  C   UNL     1      29.915  44.799  55.784  1.00  0.00     0.270 C 
HETATM   24  C   UNL     1      28.073  46.458  55.758  1.00  0.00     0.270 C 
ENDBRANCH  20  21
BRANCH  20  25
HETATM   25  C   UNL     1      28.508  43.361  53.506  1.00  0.00     0.085 A 
HETATM   26  O   UNL     1      27.646  42.403  53.959  1.00  0.00    -0.325 OA
HETATM   27  C   UNL     1      28.101  41.208  53.505  1.00  0.00     0.142 A 
HETATM   28  C   UNL     1      29.251  41.380  52.774  1.00  0.00     0.027 A 
HETATM   29  C   UNL     1      29.518  42.771  52.772  1.00  0.00     0.037 A 
ENDBRANCH  20  25
ENDBRANCH  19  20
ENDBRANCH   3  19
TORSDOF 6
ENDMDL
MODEL 4
REMARK VINA RESULT:      -7.7      2.382      9.047
REMARK  6 active torsions:
REMARK  status: ('A' for Active; 'I' for Inactive)
REMARK    1  A    between atoms: C_3  and  N_4 
REMARK       I    between atoms: N_4  and  C_5 
REMARK       I    between atoms: C_5  and  N_6 
REMARK    2  A    between atoms: N_6  and  C_7 
REMARK    3  A    between atoms: C_7  and  C_8 
REMARK    4  A    between atoms: C_8  and  N_9 
REMARK    5  A    between atoms: C_8  and  C_13 
REMARK    6  A    between atoms: C_20  and  C_21 
ROOT
HETATM    1  N   UNL     1      25.042  46.698  50.325  1.00  0.00    -0.309 N 
HETATM    2  C   UNL     1      25.329  46.585  51.660  1.00  0.00     0.320 C 
HETATM    3  N   UNL     1      25.417  45.274  52.059  1.00  0.00    -0.340 N 
HETATM    4  O   UNL     1      25.501  47.491  52.468  1.00  0.00    -0.247 OA
HETATM    5  H   UNL     1      24.474  45.943  49.962  1.00  0.00     0.170 HD
HETATM    6  H   UNL     1      25.208  44.570  51.362  1.00  0.00     0.164 HD
ENDROOT
BRANCH   1   7
HETATM    7  C   UNL     1      24.930  47.908  49.597  1.00  0.00     0.043 A 
HETATM    8  C   UNL     1      26.004  48.669  49.107  1.00  0.00    -0.035 A 
HETATM    9  C   UNL     1      27.448  48.263  49.199  1.00  0.00     0.050 C 
HETATM   10  C   UNL     1      25.725  49.879  48.443  1.00  0.00     0.010 A 
HETATM   11  C   UNL     1      24.412  50.300  48.216  1.00  0.00     0.016 A 
HETATM   12  C   UNL     1      23.337  49.518  48.641  1.00  0.00     0.019 A 
HETATM   13  C   UNL     1      23.614  48.323  49.321  1.00  0.00     0.046 A 
BRANCH  12  14
HETATM   14  C   UNL     1      21.948  49.906  48.413  1.00  0.00     0.179 A 
HETATM   15  O   UNL     1      21.588  51.178  48.773  1.00  0.00    -0.302 OA
HETATM   16  C   UNL     1      20.267  51.254  48.450  1.00  0.00     0.163 A 
HETATM   17  C   UNL     1      19.890  50.047  47.919  1.00  0.00     0.144 A 
HETATM   18  N   UNL     1      20.964  49.192  47.898  1.00  0.00    -0.234 NA
ENDBRANCH  12  14
ENDBRANCH   1   7
BRANCH   3  19
HETATM   19  C   UNL     1      25.393  44.850  53.460  1.00  0.00     0.164 C 
BRANCH  19  20
HETATM   20  C   UNL     1      26.618  44.015  53.958  1.00  0.00     0.261 C 
BRANCH  20  21
HETATM   21  N   UNL     1      27.195  43.124  52.858  1.00  0.00    -0.067 N 
HETATM   22  H   UNL     1      26.388  42.934  52.227  1.00  0.00     0.280 HD
HETATM   23  C   UNL     1      28.220  43.762  51.970  1.00  0.00     0.270 C 
HETATM   24  C   UNL     1      27.643  41.789  53.357  1.00  0.00     0.270 C 
ENDBRANCH  20  21
BRANCH  20  25
HETATM   25  C   UNL     1      27.644  44.906  54.590  1.00  0.00     0.085 A 
HETATM   26  O   UNL     1      27.381  46.246  54.577  1.00  0.00    -0.325 OA
HETATM   27  C   UNL     1      28.418  46.863  55.199  1.00  0.00     0.142 A 
HETATM   28  C   UNL     1      29.352  45.939  55.604  1.00  0.00     0.027 A 
HETATM   29  C   UNL     1      28.854  44.672  55.211  1.00  0.00     0.037 A 
ENDBRANCH  20  25
ENDBRANCH  19  20
ENDBRANCH   3  19
TORSDOF 6
ENDMDL
MODEL 5
REMARK VINA RESULT:      -7.7      3.459      6.822
REMARK  6 active torsions:
REMARK  status: ('A' for Active; 'I' for Inactive)
REMARK    1  A    between atoms: C_3  and  N_4 
REMARK       I    between atoms: N_4  and  C_5 
REMARK       I    between atoms: C_5  and  N_6 
REMARK    2  A    between atoms: N_6  and  C_7 
REMARK    3  A    between atoms: C_7  and  C_8 
REMARK    4  A    between atoms: C_8  and  N_9 
REMARK    5  A    between atoms: C_8  and  C_13 
REMARK    6  A    between atoms: C_20  and  C_21 
ROOT
HETATM    1  N   UNL     1      26.019  44.438  52.053  1.00  0.00    -0.309 N 
HETATM    2  C   UNL     1      26.051  45.203  50.917  1.00  0.00     0.320 C 
HETATM    3  N   UNL     1      24.961  46.035  50.826  1.00  0.00    -0.340 N 
HETATM    4  O   UNL     1      26.907  45.206  50.041  1.00  0.00    -0.247 OA
HETATM    5  H   UNL     1      25.085  44.205  52.366  1.00  0.00     0.170 HD
HETATM    6  H   UNL     1      24.258  45.947  51.549  1.00  0.00     0.164 HD
ENDROOT
BRANCH   1   7
HETATM    7  C   UNL     1      27.013  43.517  52.464  1.00  0.00     0.043 A 
HETATM    8  C   UNL     1      27.194  42.224  51.944  1.00  0.00    -0.035 A 
HETATM    9  C   UNL     1      26.414  41.651  50.795  1.00  0.00     0.050 C 
HETATM   10  C   UNL     1      28.201  41.410  52.498  1.00  0.00     0.010 A 
HETATM   11  C   UNL     1      29.049  41.882  53.504  1.00  0.00     0.016 A 
HETATM   12  C   UNL     1      28.919  43.187  53.981  1.00  0.00     0.019 A 
HETATM   13  C   UNL     1      27.903  43.992  53.445  1.00  0.00     0.046 A 
BRANCH  12  14
HETATM   14  C   UNL     1      29.790  43.732  55.019  1.00  0.00     0.179 A 
HETATM   15  O   UNL     1      29.552  45.019  55.422  1.00  0.00    -0.302 OA
HETATM   16  C   UNL     1      30.496  45.249  56.377  1.00  0.00     0.163 A 
HETATM   17  C   UNL     1      31.252  44.113  56.508  1.00  0.00     0.144 A 
HETATM   18  N   UNL     1      30.800  43.149  55.641  1.00  0.00    -0.234 NA
ENDBRANCH  12  14
ENDBRANCH   1   7
BRANCH   3  19
HETATM   19  C   UNL     1      24.567  46.719  49.593  1.00  0.00     0.164 C 
BRANCH  19  20
HETATM   20  C   UNL     1      24.741  48.273  49.571  1.00  0.00     0.261 C 
BRANCH  20  21
HETATM   21  N   UNL     1      25.943  48.708  48.733  1.00  0.00    -0.067 N 
HETATM   22  H   UNL     1      26.017  47.983  47.988  1.00  0.00     0.280 HD
HETATM   23  C   UNL     1      25.785  49.996  47.983  1.00  0.00     0.270 C 
HETATM   24  C   UNL     1      27.234  48.654  49.482  1.00  0.00     0.270 C 
ENDBRANCH  20  21
BRANCH  20  25
HETATM   25  C   UNL     1      23.466  48.944  49.161  1.00  0.00     0.085 A 
HETATM   26  O   UNL     1      23.092  50.042  49.882  1.00  0.00    -0.325 OA
HETATM   27  C   UNL     1      21.931  50.496  49.347  1.00  0.00     0.142 A 
HETATM   28  C   UNL     1      21.544  49.699  48.296  1.00  0.00     0.027 A 
HETATM   29  C   UNL     1      22.535  48.694  48.172  1.00  0.00     0.037 A 
ENDBRANCH  20  25
ENDBRANCH  19  20
ENDBRANCH   3  19
TORSDOF 6
ENDMDL
MODEL 6
REMARK VINA RESULT:      -7.7      2.275      8.156
REMARK  6 active torsions:
REMARK  status: ('A' for Active; 'I' for Inactive)
REMARK    1  A    between atoms: C_3  and  N_4 
REMARK       I    between atoms: N_4  and  C_5 
REMARK       I    between atoms: C_5  and  N_6 
REMARK    2  A    between atoms: N_6  and  C_7 
REMARK    3  A    between atoms: C_7  and  C_8 
REMARK    4  A    between atoms: C_8  and  N_9 
REMARK    5  A    between atoms: C_8  and  C_13 
REMARK    6  A    between atoms: C_20  and  C_21 
ROOT
HETATM    1  N   UNL     1      24.637  47.361  49.319  1.00  0.00    -0.309 N 
HETATM    2  C   UNL     1      25.368  47.115  50.451  1.00  0.00     0.320 C 
HETATM    3  N   UNL     1      25.981  45.886  50.413  1.00  0.00    -0.340 N 
HETATM    4  O   UNL     1      25.510  47.848  51.423  1.00  0.00    -0.247 OA
HETATM    5  H   UNL     1      24.242  46.530  48.897  1.00  0.00     0.170 HD
HETATM    6  H   UNL     1      25.780  45.302  49.611  1.00  0.00     0.164 HD
ENDROOT
BRANCH   1   7
HETATM    7  C   UNL     1      23.926  48.550  49.028  1.00  0.00     0.043 A 
HETATM    8  C   UNL     1      24.479  49.720  48.480  1.00  0.00    -0.035 A 
HETATM    9  C   UNL     1      25.904  49.856  48.025  1.00  0.00     0.050 C 
HETATM   10  C   UNL     1      23.643  50.838  48.297  1.00  0.00     0.010 A 
HETATM   11  C   UNL     1      22.278  50.786  48.594  1.00  0.00     0.016 A 
HETATM   12  C   UNL     1      21.707  49.608  49.078  1.00  0.00     0.019 A 
HETATM   13  C   UNL     1      22.542  48.500  49.280  1.00  0.00     0.046 A 
BRANCH  12  14
HETATM   14  C   UNL     1      20.284  49.498  49.388  1.00  0.00     0.179 A 
HETATM   15  O   UNL     1      19.681  50.591  49.953  1.00  0.00    -0.302 OA
HETATM   16  C   UNL     1      18.386  50.205  50.125  1.00  0.00     0.163 A 
HETATM   17  C   UNL     1      18.263  48.919  49.665  1.00  0.00     0.144 A 
HETATM   18  N   UNL     1      19.473  48.473  49.197  1.00  0.00    -0.234 NA
ENDBRANCH  12  14
ENDBRANCH   1   7
BRANCH   3  19
HETATM   19  C   UNL     1      26.551  45.229  51.590  1.00  0.00     0.164 C 
BRANCH  19  20
HETATM   20  C   UNL     1      26.152  43.734  51.816  1.00  0.00     0.261 C 
BRANCH  20  21
HETATM   21  N   UNL     1      25.976  43.401  53.297  1.00  0.00    -0.067 N 
HETATM   22  H   UNL     1      25.310  42.599  53.307  1.00  0.00     0.280 HD
HETATM   23  C   UNL     1      27.194  42.881  54.000  1.00  0.00     0.270 C 
HETATM   24  C   UNL     1      25.309  44.491  54.071  1.00  0.00     0.270 C 
ENDBRANCH  20  21
BRANCH  20  25
HETATM   25  C   UNL     1      24.958  43.374  50.988  1.00  0.00     0.085 A 
HETATM   26  O   UNL     1      23.852  44.162  51.134  1.00  0.00    -0.325 OA
HETATM   27  C   UNL     1      22.900  43.675  50.298  1.00  0.00     0.142 A 
HETATM   28  C   UNL     1      23.373  42.576  49.622  1.00  0.00     0.027 A 
HETATM   29  C   UNL     1      24.704  42.378  50.066  1.00  0.00     0.037 A 
ENDBRANCH  20  25
ENDBRANCH  19  20
ENDBRANCH   3  19
TORSDOF 6
ENDMDL
MODEL 7
REMARK VINA RESULT:      -7.6      3.908      7.116
REMARK  6 active torsions:
REMARK  status: ('A' for Active; 'I' for Inactive)
REMARK    1  A    between atoms: C_3  and  N_4 
REMARK       I    between atoms: N_4  and  C_5 
REMARK       I    between atoms: C_5  and  N_6 
REMARK    2  A    between atoms: N_6  and  C_7 
REMARK    3  A    between atoms: C_7  and  C_8 
REMARK    4  A    between atoms: C_8  and  N_9 
REMARK    5  A    between atoms: C_8  and  C_13 
REMARK    6  A    between atoms: C_20  and  C_21 
ROOT
HETATM    1  N   UNL     1      27.197  43.327  50.401  1.00  0.00    -0.309 N 
HETATM    2  C   UNL     1      25.841  43.304  50.202  1.00  0.00     0.320 C 
HETATM    3  N   UNL     1      25.488  43.844  48.990  1.00  0.00    -0.340 N 
HETATM    4  O   UNL     1      24.981  42.873  50.963  1.00  0.00    -0.247 OA
HETATM    5  H   UNL     1      27.664  44.107  49.957  1.00  0.00     0.170 HD
HETATM    6  H   UNL     1      26.235  44.237  48.431  1.00  0.00     0.164 HD
ENDROOT
BRANCH   1   7
HETATM    7  C   UNL     1      27.883  42.806  51.524  1.00  0.00     0.043 A 
HETATM    8  C   UNL     1      28.277  41.468  51.693  1.00  0.00    -0.035 A 
HETATM    9  C   UNL     1      28.114  40.394  50.656  1.00  0.00     0.050 C 
HETATM   10  C   UNL     1      28.910  41.099  52.896  1.00  0.00     0.010 A 
HETATM   11  C   UNL     1      29.200  42.041  53.887  1.00  0.00     0.016 A 
HETATM   12  C   UNL     1      28.870  43.384  53.700  1.00  0.00     0.019 A 
HETATM   13  C   UNL     1      28.221  43.750  52.512  1.00  0.00     0.046 A 
BRANCH  12  14
HETATM   14  C   UNL     1      29.166  44.409  54.698  1.00  0.00     0.179 A 
HETATM   15  O   UNL     1      28.385  45.535  54.688  1.00  0.00    -0.302 OA
HETATM   16  C   UNL     1      28.880  46.293  55.706  1.00  0.00     0.163 A 
HETATM   17  C   UNL     1      29.922  45.607  56.277  1.00  0.00     0.144 A 
HETATM   18  N   UNL     1      30.100  44.409  55.632  1.00  0.00    -0.234 NA
ENDBRANCH  12  14
ENDBRANCH   1   7
BRANCH   3  19
HETATM   19  C   UNL     1      24.121  44.242  48.648  1.00  0.00     0.164 C 
BRANCH  19  20
HETATM   20  C   UNL     1      23.778  45.760  48.799  1.00  0.00     0.261 C 
BRANCH  20  21
HETATM   21  N   UNL     1      22.294  45.992  49.081  1.00  0.00    -0.067 N 
HETATM   22  H   UNL     1      22.238  46.091  50.117  1.00  0.00     0.280 HD
HETATM   23  C   UNL     1      21.720  47.272  48.554  1.00  0.00     0.270 C 
HETATM   24  C   UNL     1      21.439  44.815  48.739  1.00  0.00     0.270 C 
ENDBRANCH  20  21
BRANCH  20  25
HETATM   25  C   UNL     1      24.675  46.408  49.808  1.00  0.00     0.085 A 
HETATM   26  O   UNL     1      24.463  46.077  51.116  1.00  0.00    -0.325 OA
HETATM   27  C   UNL     1      25.377  46.758  51.854  1.00  0.00     0.142 A 
HETATM   28  C   UNL     1      26.169  47.532  51.040  1.00  0.00     0.027 A 
HETATM   29  C   UNL     1      25.718  47.308  49.716  1.00  0.00     0.037 A 
ENDBRANCH  20  25
ENDBRANCH  19  20
ENDBRANCH   3  19
TORSDOF 6
ENDMDL
MODEL 8
REMARK VINA RESULT:      -7.6      7.304     10.035
REMARK  6 active torsions:
REMARK  status: ('A' for Active; 'I' for Inactive)
REMARK    1  A    between atoms: C_3  and  N_4 
REMARK       I    between atoms: N_4  and  C_5 
REMARK       I    between atoms: C_5  and  N_6 
REMARK    2  A    between atoms: N_6  and  C_7 
REMARK    3  A    between atoms: C_7  and  C_8 
REMARK    4  A    between atoms: C_8  and  N_9 
REMARK    5  A    between atoms: C_8  and  C_13 
REMARK    6  A    between atoms: C_20  and  C_21 
ROOT
HETATM    1  N   UNL     1      26.707  43.669  53.015  1.00  0.00    -0.309 N 
HETATM    2  C   UNL     1      26.836  43.533  51.658  1.00  0.00     0.320 C 
HETATM    3  N   UNL     1      26.090  42.487  51.172  1.00  0.00    -0.340 N 
HETATM    4  O   UNL     1      27.513  44.217  50.898  1.00  0.00    -0.247 OA
HETATM    5  H   UNL     1      26.547  42.797  53.502  1.00  0.00     0.170 HD
HETATM    6  H   UNL     1      25.598  41.923  51.853  1.00  0.00     0.164 HD
ENDROOT
BRANCH   1   7
HETATM    7  C   UNL     1      27.307  44.674  53.812  1.00  0.00     0.043 A 
HETATM    8  C   UNL     1      26.911  46.021  53.864  1.00  0.00    -0.035 A 
HETATM    9  C   UNL     1      25.718  46.587  53.147  1.00  0.00     0.050 C 
HETATM   10  C   UNL     1      27.646  46.908  54.673  1.00  0.00     0.010 A 
HETATM   11  C   UNL     1      28.714  46.465  55.459  1.00  0.00     0.016 A 
HETATM   12  C   UNL     1      29.073  45.117  55.464  1.00  0.00     0.019 A 
HETATM   13  C   UNL     1      28.355  44.235  54.643  1.00  0.00     0.046 A 
BRANCH  12  14
HETATM   14  C   UNL     1      30.170  44.602  56.279  1.00  0.00     0.179 A 
HETATM   15  O   UNL     1      30.411  45.232  57.472  1.00  0.00    -0.302 OA
HETATM   16  C   UNL     1      31.463  44.549  58.003  1.00  0.00     0.163 A 
HETATM   17  C   UNL     1      31.809  43.554  57.125  1.00  0.00     0.144 A 
HETATM   18  N   UNL     1      30.983  43.591  56.029  1.00  0.00    -0.234 NA
ENDBRANCH  12  14
ENDBRANCH   1   7
BRANCH   3  19
HETATM   19  C   UNL     1      26.276  41.911  49.838  1.00  0.00     0.164 C 
BRANCH  19  20
HETATM   20  C   UNL     1      25.709  40.470  49.616  1.00  0.00     0.261 C 
BRANCH  20  21
HETATM   21  N   UNL     1      24.877  40.368  48.338  1.00  0.00    -0.067 N 
HETATM   22  H   UNL     1      24.555  39.378  48.315  1.00  0.00     0.280 HD
HETATM   23  C   UNL     1      23.612  41.171  48.316  1.00  0.00     0.270 C 
HETATM   24  C   UNL     1      25.681  40.562  47.094  1.00  0.00     0.270 C 
ENDBRANCH  20  21
BRANCH  20  25
HETATM   25  C   UNL     1      26.807  39.453  49.684  1.00  0.00     0.085 A 
HETATM   26  O   UNL     1      28.044  39.911  50.040  1.00  0.00    -0.325 OA
HETATM   27  C   UNL     1      28.878  38.841  50.050  1.00  0.00     0.142 A 
HETATM   28  C   UNL     1      28.199  37.700  49.696  1.00  0.00     0.027 A 
HETATM   29  C   UNL     1      26.858  38.092  49.458  1.00  0.00     0.037 A 
ENDBRANCH  20  25
ENDBRANCH  19  20
ENDBRANCH   3  19
TORSDOF 6
ENDMDL
MODEL 9
REMARK VINA RESULT:      -7.6      2.459      4.567
REMARK  6 active torsions:
REMARK  status: ('A' for Active; 'I' for Inactive)
REMARK    1  A    between atoms: C_3  and  N_4 
REMARK       I    between atoms: N_4  and  C_5 
REMARK       I    between atoms: C_5  and  N_6 
REMARK    2  A    between atoms: N_6  and  C_7 
REMARK    3  A    between atoms: C_7  and  C_8 
REMARK    4  A    between atoms: C_8  and  N_9 
REMARK    5  A    between atoms: C_8  and  C_13 
REMARK    6  A    between atoms: C_20  and  C_21 
ROOT
HETATM    1  N   UNL     1      24.952  46.388  51.835  1.00  0.00    -0.309 N 
HETATM    2  C   UNL     1      25.105  47.346  50.867  1.00  0.00     0.320 C 
HETATM    3  N   UNL     1      23.906  47.705  50.303  1.00  0.00    -0.340 N 
HETATM    4  O   UNL     1      26.148  47.869  50.491  1.00  0.00    -0.247 OA
HETATM    5  H   UNL     1      24.178  45.757  51.670  1.00  0.00     0.170 HD
HETATM    6  H   UNL     1      23.086  47.198  50.613  1.00  0.00     0.164 HD
ENDROOT
BRANCH   1   7
HETATM    7  C   UNL     1      25.984  45.840  52.635  1.00  0.00     0.043 A 
HETATM    8  C   UNL     1      26.534  46.436  53.781  1.00  0.00    -0.035 A 
HETATM    9  C   UNL     1      26.043  47.717  54.395  1.00  0.00     0.050 C 
HETATM   10  C   UNL     1      27.594  45.782  54.439  1.00  0.00     0.010 A 
HETATM   11  C   UNL     1      28.062  44.537  54.009  1.00  0.00     0.016 A 
HETATM   12  C   UNL     1      27.477  43.906  52.910  1.00  0.00     0.019 A 
HETATM   13  C   UNL     1      26.436  44.566  52.241  1.00  0.00     0.046 A 
BRANCH  12  14
HETATM   14  C   UNL     1      27.919  42.599  52.431  1.00  0.00     0.179 A 
HETATM   15  O   UNL     1      28.712  41.861  53.271  1.00  0.00    -0.302 OA
HETATM   16  C   UNL     1      28.960  40.717  52.575  1.00  0.00     0.163 A 
HETATM   17  C   UNL     1      28.320  40.809  51.366  1.00  0.00     0.144 A 
HETATM   18  N   UNL     1      27.658  42.009  51.279  1.00  0.00    -0.234 NA
ENDBRANCH  12  14
ENDBRANCH   1   7
BRANCH   3  19
HETATM   19  C   UNL     1      23.792  48.452  49.049  1.00  0.00     0.164 C 
BRANCH  19  20
HETATM   20  C   UNL     1      22.423  48.353  48.299  1.00  0.00     0.261 C 
BRANCH  20  21
HETATM   21  N   UNL     1      21.671  47.067  48.640  1.00  0.00    -0.067 N 
HETATM   22  H   UNL     1      21.966  46.841  49.613  1.00  0.00     0.280 HD
HETATM   23  C   UNL     1      20.179  47.185  48.722  1.00  0.00     0.270 C 
HETATM   24  C   UNL     1      22.092  45.900  47.808  1.00  0.00     0.270 C 
ENDBRANCH  20  21
BRANCH  20  25
HETATM   25  C   UNL     1      21.606  49.588  48.524  1.00  0.00     0.085 A 
HETATM   26  O   UNL     1      21.494  50.020  49.815  1.00  0.00    -0.325 OA
HETATM   27  C   UNL     1      20.731  51.143  49.795  1.00  0.00     0.142 A 
HETATM   28  C   UNL     1      20.340  51.434  48.510  1.00  0.00     0.027 A 
HETATM   29  C   UNL     1      20.904  50.430  47.685  1.00  0.00     0.037 A 
ENDBRANCH  20  25
ENDBRANCH  19  20
ENDBRANCH   3  19
TORSDOF 6
ENDMDL
MODEL 10
REMARK VINA RESULT:      -7.5      2.211      9.247
REMARK  6 active torsions:
REMARK  status: ('A' for Active; 'I' for Inactive)
REMARK    1  A    between atoms: C_3  and  N_4 
REMARK       I    between atoms: N_4  and  C_5 
REMARK       I    between atoms: C_5  and  N_6 
REMARK    2  A    between atoms: N_6  and  C_7 
REMARK    3  A    between atoms: C_7  and  C_8 
REMARK    4  A    between atoms: C_8  and  N_9 
REMARK    5  A    between atoms: C_8  and  C_13 
REMARK    6  A    between atoms: C_20  and  C_21 
ROOT
HETATM    1  N   UNL     1      25.509  47.467  50.351  1.00  0.00    -0.309 N 
HETATM    2  C   UNL     1      25.857  46.172  50.068  1.00  0.00     0.320 C 
HETATM    3  N   UNL     1      26.474  45.560  51.131  1.00  0.00    -0.340 N 
HETATM    4  O   UNL     1      25.676  45.561  49.021  1.00  0.00    -0.247 OA
HETATM    5  H   UNL     1      26.133  47.927  51.001  1.00  0.00     0.170 HD
HETATM    6  H   UNL     1      26.648  46.132  51.948  1.00  0.00     0.164 HD
ENDROOT
BRANCH   1   7
HETATM    7  C   UNL     1      24.820  48.352  49.486  1.00  0.00     0.043 A 
HETATM    8  C   UNL     1      25.412  49.359  48.707  1.00  0.00    -0.035 A 
HETATM    9  C   UNL     1      26.892  49.593  48.598  1.00  0.00     0.050 C 
HETATM   10  C   UNL     1      24.579  50.191  47.935  1.00  0.00     0.010 A 
HETATM   11  C   UNL     1      23.196  49.996  47.887  1.00  0.00     0.016 A 
HETATM   12  C   UNL     1      22.605  48.956  48.606  1.00  0.00     0.019 A 
HETATM   13  C   UNL     1      23.432  48.140  49.392  1.00  0.00     0.046 A 
BRANCH  12  14
HETATM   14  C   UNL     1      21.168  48.700  48.576  1.00  0.00     0.179 A 
HETATM   15  O   UNL     1      20.349  49.767  48.312  1.00  0.00    -0.302 OA
HETATM   16  C   UNL     1      19.094  49.239  48.346  1.00  0.00     0.163 A 
HETATM   17  C   UNL     1      19.204  47.901  48.624  1.00  0.00     0.144 A 
HETATM   18  N   UNL     1      20.526  47.563  48.770  1.00  0.00    -0.234 NA
ENDBRANCH  12  14
ENDBRANCH   1   7
BRANCH   3  19
HETATM   19  C   UNL     1      27.229  44.311  51.019  1.00  0.00     0.164 C 
BRANCH  19  20
HETATM   20  C   UNL     1      27.066  43.289  52.192  1.00  0.00     0.261 C 
BRANCH  20  21
HETATM   21  N   UNL     1      26.503  41.950  51.717  1.00  0.00    -0.067 N 
HETATM   22  H   UNL     1      25.976  41.583  52.537  1.00  0.00     0.280 HD
HETATM   23  C   UNL     1      25.483  42.021  50.621  1.00  0.00     0.270 C 
HETATM   24  C   UNL     1      27.561  40.936  51.428  1.00  0.00     0.270 C 
ENDBRANCH  20  21
BRANCH  20  25
HETATM   25  C   UNL     1      28.347  43.149  52.955  1.00  0.00     0.085 A 
HETATM   26  O   UNL     1      28.240  43.023  54.312  1.00  0.00    -0.325 OA
HETATM   27  C   UNL     1      29.500  42.902  54.802  1.00  0.00     0.142 A 
HETATM   28  C   UNL     1      30.419  42.958  53.782  1.00  0.00     0.027 A 
HETATM   29  C   UNL     1      29.677  43.119  52.585  1.00  0.00     0.037 A 
ENDBRANCH  20  25
ENDBRANCH  19  20
ENDBRANCH   3  19
TORSDOF 6
ENDMDL
