MODEL 1
REMARK VINA RESULT:      -9.7      0.000      0.000
REMARK  4 active torsions:
REMARK  status: ('A' for Active; 'I' for Inactive)
REMARK    1  A    between atoms: C_7  and  C_8 
REMARK    2  A    between atoms: N_9  and  N_10 
REMARK       I    between atoms: N_10  and  C_11 
REMARK    3  A    between atoms: C_11  and  C_12 
REMARK    4  A    between atoms: C_12  and  C_13 
ROOT
HETATM    1  N   UNL     1      26.329  47.189  52.454  1.00  0.00    -0.247 N 
HETATM    2  C   UNL     1      25.647  46.606  51.388  1.00  0.00     0.241 C 
HETATM    3  O   UNL     1      24.596  45.976  51.490  1.00  0.00    -0.271 OA
HETATM    4  H   UNL     1      27.062  47.868  52.311  1.00  0.00     0.192 HD
ENDROOT
BRANCH   1   5
HETATM    5  N   UNL     1      25.911  46.941  53.709  1.00  0.00    -0.184 NA
HETATM    6  C   UNL     1      26.450  46.033  54.464  1.00  0.00     0.153 C 
BRANCH   6   7
HETATM    7  C   UNL     1      27.483  45.027  54.222  1.00  0.00     0.018 A 
HETATM    8  C   UNL     1      27.553  43.928  53.366  1.00  0.00     0.018 A 
HETATM    9  C   UNL     1      26.639  43.308  52.371  1.00  0.00     0.069 C 
HETATM   10  N   UNL     1      28.751  43.289  53.607  1.00  0.00    -0.358 N 
HETATM   11  H   UNL     1      29.063  42.452  53.134  1.00  0.00     0.166 HD
HETATM   12  C   UNL     1      29.420  43.861  54.654  1.00  0.00     0.043 A 
HETATM   13  C   UNL     1      28.676  44.967  55.047  1.00  0.00     0.004 A 
HETATM   14  C   UNL     1      30.610  43.473  55.282  1.00  0.00     0.030 A 
HETATM   15  C   UNL     1      29.168  45.745  56.122  1.00  0.00     0.014 A 
HETATM   16  C   UNL     1      30.354  45.371  56.767  1.00  0.00     0.001 A 
HETATM   17  C   UNL     1      31.060  44.246  56.354  1.00  0.00     0.002 A 
ENDBRANCH   6   7
ENDBRANCH   1   5
BRANCH   2  18
HETATM   18  C   UNL     1      26.356  46.786  50.057  1.00  0.00     0.145 C 
BRANCH  18  19
HETATM   19  C   UNL     1      26.055  48.099  49.393  1.00  0.00    -0.021 A 
HETATM   20  C   UNL     1      24.774  48.640  49.023  1.00  0.00    -0.001 A 
HETATM   21  C   UNL     1      25.002  49.860  48.382  1.00  0.00     0.042 A 
HETATM   22  C   UNL     1      23.436  48.217  49.171  1.00  0.00     0.014 A 
HETATM   23  C   UNL     1      23.972  50.654  47.864  1.00  0.00     0.030 A 
HETATM   24  N   UNL     1      26.359  50.076  48.397  1.00  0.00    -0.365 N 
HETATM   25  C   UNL     1      22.660  50.194  48.005  1.00  0.00     0.002 A 
HETATM   26  C   UNL     1      22.393  48.995  48.655  1.00  0.00     0.001 A 
HETATM   27  H   UNL     1      26.809  50.901  48.024  1.00  0.00     0.165 HD
HETATM   28  C   UNL     1      27.002  49.022  48.985  1.00  0.00     0.097 A 
ENDBRANCH  18  19
ENDBRANCH   2  18
TORSDOF 4
ENDMDL
MODEL 2
REMARK VINA RESULT:      -9.6     11.299     13.202
REMARK  4 active torsions:
REMARK  status: ('A' for Active; 'I' for Inactive)
REMARK    1  A    between atoms: C_7  and  C_8 
REMARK    2  A    between atoms: N_9  and  N_10 
REMARK       I    between atoms: N_10  and  C_11 
REMARK    3  A    between atoms: C_11  and  C_12 
REMARK    4  A    between atoms: C_12  and  C_13 
ROOT
HETATM    1  N   UNL     1      28.329  50.888  41.560  1.00  0.00    -0.247 N 
HETATM    2  C   UNL     1      27.878  51.070  40.255  1.00  0.00     0.241 C 
HETATM    3  O   UNL     1      27.265  50.227  39.602  1.00  0.00    -0.271 OA
HETATM    4  H   UNL     1      28.636  51.662  42.132  1.00  0.00     0.192 HD
ENDROOT
BRANCH   1   5
HETATM    5  N   UNL     1      28.230  49.668  42.120  1.00  0.00    -0.184 NA
HETATM    6  C   UNL     1      29.219  48.827  42.155  1.00  0.00     0.153 C 
BRANCH   6   7
HETATM    7  C   UNL     1      30.565  48.856  41.587  1.00  0.00     0.018 A 
HETATM    8  C   UNL     1      31.198  48.087  40.610  1.00  0.00     0.018 A 
HETATM    9  C   UNL     1      30.803  46.936  39.756  1.00  0.00     0.069 C 
HETATM   10  N   UNL     1      32.505  48.521  40.522  1.00  0.00    -0.358 N 
HETATM   11  H   UNL     1      33.199  48.134  39.897  1.00  0.00     0.166 HD
HETATM   12  C   UNL     1      32.782  49.467  41.470  1.00  0.00     0.043 A 
HETATM   13  C   UNL     1      31.590  49.725  42.137  1.00  0.00     0.004 A 
HETATM   14  C   UNL     1      33.992  50.093  41.789  1.00  0.00     0.030 A 
HETATM   15  C   UNL     1      31.610  50.688  43.173  1.00  0.00     0.014 A 
HETATM   16  C   UNL     1      32.812  51.323  43.512  1.00  0.00     0.001 A 
HETATM   17  C   UNL     1      33.987  51.024  42.831  1.00  0.00     0.002 A 
ENDBRANCH   6   7
ENDBRANCH   1   5
BRANCH   2  18
HETATM   18  C   UNL     1      28.255  52.424  39.677  1.00  0.00     0.145 C 
BRANCH  18  19
HETATM   19  C   UNL     1      29.683  52.808  39.941  1.00  0.00    -0.021 A 
HETATM   20  C   UNL     1      30.877  52.274  39.342  1.00  0.00    -0.001 A 
HETATM   21  C   UNL     1      31.968  52.902  39.947  1.00  0.00     0.042 A 
HETATM   22  C   UNL     1      31.144  51.318  38.339  1.00  0.00     0.014 A 
HETATM   23  C   UNL     1      33.297  52.605  39.622  1.00  0.00     0.030 A 
HETATM   24  N   UNL     1      31.463  53.811  40.846  1.00  0.00    -0.365 N 
HETATM   25  C   UNL     1      33.527  51.635  38.643  1.00  0.00     0.002 A 
HETATM   26  C   UNL     1      32.467  51.003  38.005  1.00  0.00     0.001 A 
HETATM   27  H   UNL     1      32.029  54.431  41.409  1.00  0.00     0.165 HD
HETATM   28  C   UNL     1      30.097  53.753  40.862  1.00  0.00     0.097 A 
ENDBRANCH  18  19
ENDBRANCH   2  18
TORSDOF 4
ENDMDL
MODEL 3
REMARK VINA RESULT:      -9.6      1.319      2.046
REMARK  4 active torsions:
REMARK  status: ('A' for Active; 'I' for Inactive)
REMARK    1  A    between atoms: C_7  and  C_8 
REMARK    2  A    between atoms: N_9  and  N_10 
REMARK       I    between atoms: N_10  and  C_11 
REMARK    3  A    between atoms: C_11  and  C_12 
REMARK    4  A    between atoms: C_12  and  C_13 
ROOT
HETATM    1  N   UNL     1      25.875  45.317  51.848  1.00  0.00    -0.247 N 
HETATM    2  C   UNL     1      25.889  46.639  51.408  1.00  0.00     0.241 C 
HETATM    3  O   UNL     1      25.376  47.582  52.008  1.00  0.00    -0.271 OA
HETATM    4  H   UNL     1      26.478  44.614  51.447  1.00  0.00     0.192 HD
ENDROOT
BRANCH   1   5
HETATM    5  N   UNL     1      25.132  44.996  52.925  1.00  0.00    -0.184 NA
HETATM    6  C   UNL     1      25.572  45.104  54.141  1.00  0.00     0.153 C 
BRANCH   6   7
HETATM    7  C   UNL     1      26.877  45.459  54.695  1.00  0.00     0.018 A 
HETATM    8  C   UNL     1      27.412  46.658  55.166  1.00  0.00     0.018 A 
HETATM    9  C   UNL     1      26.917  48.054  55.295  1.00  0.00     0.069 C 
HETATM   10  N   UNL     1      28.726  46.419  55.514  1.00  0.00    -0.358 N 
HETATM   11  H   UNL     1      29.360  47.116  55.880  1.00  0.00     0.166 HD
HETATM   12  C   UNL     1      29.102  45.144  55.195  1.00  0.00     0.043 A 
HETATM   13  C   UNL     1      27.970  44.503  54.708  1.00  0.00     0.004 A 
HETATM   14  C   UNL     1      30.355  44.526  55.289  1.00  0.00     0.030 A 
HETATM   15  C   UNL     1      28.097  43.151  54.311  1.00  0.00     0.014 A 
HETATM   16  C   UNL     1      29.342  42.514  54.392  1.00  0.00     0.001 A 
HETATM   17  C   UNL     1      30.456  43.197  54.869  1.00  0.00     0.002 A 
ENDBRANCH   6   7
ENDBRANCH   1   5
BRANCH   2  18
HETATM   18  C   UNL     1      26.578  46.812  50.066  1.00  0.00     0.145 C 
BRANCH  18  19
HETATM   19  C   UNL     1      26.254  48.116  49.393  1.00  0.00    -0.021 A 
HETATM   20  C   UNL     1      24.972  48.603  48.960  1.00  0.00    -0.001 A 
HETATM   21  C   UNL     1      25.179  49.836  48.338  1.00  0.00     0.042 A 
HETATM   22  C   UNL     1      23.648  48.121  49.037  1.00  0.00     0.014 A 
HETATM   23  C   UNL     1      24.143  50.589  47.771  1.00  0.00     0.030 A 
HETATM   24  N   UNL     1      26.523  50.111  48.424  1.00  0.00    -0.365 N 
HETATM   25  C   UNL     1      22.847  50.071  47.841  1.00  0.00     0.002 A 
HETATM   26  C   UNL     1      22.600  48.856  48.470  1.00  0.00     0.001 A 
HETATM   27  H   UNL     1      26.955  50.957  48.079  1.00  0.00     0.165 HD
HETATM   28  C   UNL     1      27.180  49.082  49.040  1.00  0.00     0.097 A 
ENDBRANCH  18  19
ENDBRANCH   2  18
TORSDOF 4
ENDMDL
MODEL 4
REMARK VINA RESULT:      -9.4      1.675      2.906
REMARK  4 active torsions:
REMARK  status: ('A' for Active; 'I' for Inactive)
REMARK    1  A    between atoms: C_7  and  C_8 
REMARK    2  A    between atoms: N_9  and  N_10 
REMARK       I    between atoms: N_10  and  C_11 
REMARK    3  A    between atoms: C_11  and  C_12 
REMARK    4  A    between atoms: C_12  and  C_13 
ROOT
HETATM    1  N   UNL     1      26.519  44.634  52.070  1.00  0.00    -0.247 N 
HETATM    2  C   UNL     1      25.879  45.017  50.893  1.00  0.00     0.241 C 
HETATM    3  O   UNL     1      26.243  44.697  49.763  1.00  0.00    -0.271 OA
HETATM    4  H   UNL     1      26.079  44.735  52.974  1.00  0.00     0.192 HD
ENDROOT
BRANCH   1   5
HETATM    5  N   UNL     1      27.699  43.992  51.992  1.00  0.00    -0.184 NA
HETATM    6  C   UNL     1      28.587  44.034  52.937  1.00  0.00     0.153 C 
BRANCH   6   7
HETATM    7  C   UNL     1      28.661  44.772  54.197  1.00  0.00     0.018 A 
HETATM    8  C   UNL     1      28.060  45.950  54.641  1.00  0.00     0.018 A 
HETATM    9  C   UNL     1      27.127  46.944  54.050  1.00  0.00     0.069 C 
HETATM   10  N   UNL     1      28.546  46.213  55.905  1.00  0.00    -0.358 N 
HETATM   11  H   UNL     1      28.288  47.012  56.467  1.00  0.00     0.166 HD
HETATM   12  C   UNL     1      29.515  45.316  56.264  1.00  0.00     0.043 A 
HETATM   13  C   UNL     1      29.596  44.383  55.237  1.00  0.00     0.004 A 
HETATM   14  C   UNL     1      30.325  45.275  57.406  1.00  0.00     0.030 A 
HETATM   15  C   UNL     1      30.533  43.331  55.375  1.00  0.00     0.014 A 
HETATM   16  C   UNL     1      31.356  43.274  56.506  1.00  0.00     0.001 A 
HETATM   17  C   UNL     1      31.255  44.238  57.504  1.00  0.00     0.002 A 
ENDBRANCH   6   7
ENDBRANCH   1   5
BRANCH   2  18
HETATM   18  C   UNL     1      24.683  45.923  51.132  1.00  0.00     0.145 C 
BRANCH  18  19
HETATM   19  C   UNL     1      24.571  47.039  50.132  1.00  0.00    -0.021 A 
HETATM   20  C   UNL     1      25.595  47.944  49.686  1.00  0.00    -0.001 A 
HETATM   21  C   UNL     1      25.003  48.843  48.796  1.00  0.00     0.042 A 
HETATM   22  C   UNL     1      26.975  48.090  49.944  1.00  0.00     0.014 A 
HETATM   23  C   UNL     1      25.708  49.886  48.182  1.00  0.00     0.030 A 
HETATM   24  N   UNL     1      23.684  48.478  48.672  1.00  0.00    -0.365 N 
HETATM   25  C   UNL     1      27.066  50.019  48.479  1.00  0.00     0.002 A 
HETATM   26  C   UNL     1      27.695  49.130  49.344  1.00  0.00     0.001 A 
HETATM   27  H   UNL     1      23.019  48.941  48.067  1.00  0.00     0.165 HD
HETATM   28  C   UNL     1      23.409  47.409  49.479  1.00  0.00     0.097 A 
ENDBRANCH  18  19
ENDBRANCH   2  18
TORSDOF 4
ENDMDL
MODEL 5
REMARK VINA RESULT:      -9.3      1.701      2.596
REMARK  4 active torsions:
REMARK  status: ('A' for Active; 'I' for Inactive)
REMARK    1  A    between atoms: C_7  and  C_8 
REMARK    2  A    between atoms: N_9  and  N_10 
REMARK       I    between atoms: N_10  and  C_11 
REMARK    3  A    between atoms: C_11  and  C_12 
REMARK    4  A    between atoms: C_12  and  C_13 
ROOT
HETATM    1  N   UNL     1      26.437  45.445  51.389  1.00  0.00    -0.247 N 
HETATM    2  C   UNL     1      26.673  46.042  50.154  1.00  0.00     0.241 C 
HETATM    3  O   UNL     1      27.269  45.508  49.220  1.00  0.00    -0.271 OA
HETATM    4  H   UNL     1      25.771  45.824  52.047  1.00  0.00     0.192 HD
ENDROOT
BRANCH   1   5
HETATM    5  N   UNL     1      27.013  44.258  51.661  1.00  0.00    -0.184 NA
HETATM    6  C   UNL     1      27.597  44.002  52.791  1.00  0.00     0.153 C 
BRANCH   6   7
HETATM    7  C   UNL     1      27.890  44.823  53.964  1.00  0.00     0.018 A 
HETATM    8  C   UNL     1      27.379  46.036  54.424  1.00  0.00     0.018 A 
HETATM    9  C   UNL     1      26.358  47.001  53.937  1.00  0.00     0.069 C 
HETATM   10  N   UNL     1      28.078  46.378  55.563  1.00  0.00    -0.358 N 
HETATM   11  H   UNL     1      27.923  47.217  56.104  1.00  0.00     0.166 HD
HETATM   12  C   UNL     1      29.094  45.495  55.809  1.00  0.00     0.043 A 
HETATM   13  C   UNL     1      28.992  44.493  54.851  1.00  0.00     0.004 A 
HETATM   14  C   UNL     1      30.090  45.521  56.792  1.00  0.00     0.030 A 
HETATM   15  C   UNL     1      29.937  43.440  54.895  1.00  0.00     0.014 A 
HETATM   16  C   UNL     1      30.945  43.449  55.867  1.00  0.00     0.001 A 
HETATM   17  C   UNL     1      31.022  44.480  56.798  1.00  0.00     0.002 A 
ENDBRANCH   6   7
ENDBRANCH   1   5
BRANCH   2  18
HETATM   18  C   UNL     1      26.152  47.467  50.071  1.00  0.00     0.145 C 
BRANCH  18  19
HETATM   19  C   UNL     1      24.737  47.556  49.574  1.00  0.00    -0.021 A 
HETATM   20  C   UNL     1      24.071  48.680  48.974  1.00  0.00    -0.001 A 
HETATM   21  C   UNL     1      22.748  48.304  48.731  1.00  0.00     0.042 A 
HETATM   22  C   UNL     1      24.459  49.987  48.606  1.00  0.00     0.014 A 
HETATM   23  C   UNL     1      21.798  49.168  48.171  1.00  0.00     0.030 A 
HETATM   24  N   UNL     1      22.621  46.994  49.126  1.00  0.00    -0.365 N 
HETATM   25  C   UNL     1      22.209  50.462  47.842  1.00  0.00     0.002 A 
HETATM   26  C   UNL     1      23.523  50.866  48.050  1.00  0.00     0.001 A 
HETATM   27  H   UNL     1      21.773  46.451  49.039  1.00  0.00     0.165 HD
HETATM   28  C   UNL     1      23.802  46.539  49.647  1.00  0.00     0.097 A 
ENDBRANCH  18  19
ENDBRANCH   2  18
TORSDOF 4
ENDMDL
MODEL 6
REMARK VINA RESULT:      -9.2     11.055     13.295
REMARK  4 active torsions:
REMARK  status: ('A' for Active; 'I' for Inactive)
REMARK    1  A    between atoms: C_7  and  C_8 
REMARK    2  A    between atoms: N_9  and  N_10 
REMARK       I    between atoms: N_10  and  C_11 
REMARK    3  A    between atoms: C_11  and  C_12 
REMARK    4  A    between atoms: C_12  and  C_13 
ROOT
HETATM    1  N   UNL     1      29.297  48.795  42.516  1.00  0.00    -0.247 N 
HETATM    2  C   UNL     1      28.506  48.236  41.514  1.00  0.00     0.241 C 
HETATM    3  O   UNL     1      28.718  47.149  40.980  1.00  0.00    -0.271 OA
HETATM    4  H   UNL     1      28.980  49.576  43.072  1.00  0.00     0.192 HD
ENDROOT
BRANCH   1   5
HETATM    5  N   UNL     1      30.458  48.197  42.841  1.00  0.00    -0.184 NA
HETATM    6  C   UNL     1      31.606  48.798  42.762  1.00  0.00     0.153 C 
BRANCH   6   7
HETATM    7  C   UNL     1      32.004  50.113  42.265  1.00  0.00     0.018 A 
HETATM    8  C   UNL     1      32.342  51.306  42.906  1.00  0.00     0.018 A 
HETATM    9  C   UNL     1      32.431  51.753  44.320  1.00  0.00     0.069 C 
HETATM   10  N   UNL     1      32.573  52.251  41.928  1.00  0.00    -0.358 N 
HETATM   11  H   UNL     1      32.829  53.213  42.106  1.00  0.00     0.166 HD
HETATM   12  C   UNL     1      32.299  51.758  40.682  1.00  0.00     0.043 A 
HETATM   13  C   UNL     1      31.969  50.418  40.846  1.00  0.00     0.004 A 
HETATM   14  C   UNL     1      32.307  52.401  39.438  1.00  0.00     0.030 A 
HETATM   15  C   UNL     1      31.648  49.672  39.688  1.00  0.00     0.014 A 
HETATM   16  C   UNL     1      31.645  50.296  38.434  1.00  0.00     0.001 A 
HETATM   17  C   UNL     1      31.965  51.645  38.315  1.00  0.00     0.002 A 
ENDBRANCH   6   7
ENDBRANCH   1   5
BRANCH   2  18
HETATM   18  C   UNL     1      27.350  49.130  41.099  1.00  0.00     0.145 C 
BRANCH  18  19
HETATM   19  C   UNL     1      27.678  50.029  39.940  1.00  0.00    -0.021 A 
HETATM   20  C   UNL     1      28.211  51.363  39.968  1.00  0.00    -0.001 A 
HETATM   21  C   UNL     1      28.290  51.812  38.648  1.00  0.00     0.042 A 
HETATM   22  C   UNL     1      28.641  52.241  40.986  1.00  0.00     0.014 A 
HETATM   23  C   UNL     1      28.747  53.091  38.302  1.00  0.00     0.030 A 
HETATM   24  N   UNL     1      27.864  50.782  37.845  1.00  0.00    -0.365 N 
HETATM   25  C   UNL     1      29.141  53.944  39.336  1.00  0.00     0.002 A 
HETATM   26  C   UNL     1      29.095  53.525  40.660  1.00  0.00     0.001 A 
HETATM   27  H   UNL     1      27.842  50.818  36.835  1.00  0.00     0.165 HD
HETATM   28  C   UNL     1      27.480  49.714  38.607  1.00  0.00     0.097 A 
ENDBRANCH  18  19
ENDBRANCH   2  18
TORSDOF 4
ENDMDL
MODEL 7
REMARK VINA RESULT:      -9.0     11.530     13.523
REMARK  4 active torsions:
REMARK  status: ('A' for Active; 'I' for Inactive)
REMARK    1  A    between atoms: C_7  and  C_8 
REMARK    2  A    between atoms: N_9  and  N_10 
REMARK       I    between atoms: N_10  and  C_11 
REMARK    3  A    between atoms: C_11  and  C_12 
REMARK    4  A    between atoms: C_12  and  C_13 
ROOT
HETATM    1  N   UNL     1      30.804  48.233  41.778  1.00  0.00    -0.247 N 
HETATM    2  C   UNL     1      31.557  47.614  40.783  1.00  0.00     0.241 C 
HETATM    3  O   UNL     1      32.729  47.263  40.908  1.00  0.00    -0.271 OA
HETATM    4  H   UNL     1      29.800  48.314  41.715  1.00  0.00     0.192 HD
ENDROOT
BRANCH   1   5
HETATM    5  N   UNL     1      31.415  48.617  42.915  1.00  0.00    -0.184 NA
HETATM    6  C   UNL     1      31.927  49.799  43.075  1.00  0.00     0.153 C 
BRANCH   6   7
HETATM    7  C   UNL     1      32.094  50.937  42.173  1.00  0.00     0.018 A 
HETATM    8  C   UNL     1      33.218  51.625  41.715  1.00  0.00     0.018 A 
HETATM    9  C   UNL     1      34.683  51.518  41.941  1.00  0.00     0.069 C 
HETATM   10  N   UNL     1      32.774  52.666  40.926  1.00  0.00    -0.358 N 
HETATM   11  H   UNL     1      33.375  53.337  40.466  1.00  0.00     0.166 HD
HETATM   12  C   UNL     1      31.409  52.751  40.933  1.00  0.00     0.043 A 
HETATM   13  C   UNL     1      30.945  51.673  41.676  1.00  0.00     0.004 A 
HETATM   14  C   UNL     1      30.564  53.704  40.351  1.00  0.00     0.030 A 
HETATM   15  C   UNL     1      29.546  51.529  41.828  1.00  0.00     0.014 A 
HETATM   16  C   UNL     1      28.682  52.474  41.259  1.00  0.00     0.001 A 
HETATM   17  C   UNL     1      29.188  53.549  40.535  1.00  0.00     0.002 A 
ENDBRANCH   6   7
ENDBRANCH   1   5
BRANCH   2  18
HETATM   18  C   UNL     1      30.796  47.443  39.479  1.00  0.00     0.145 C 
BRANCH  18  19
HETATM   19  C   UNL     1      30.096  48.693  39.029  1.00  0.00    -0.021 A 
HETATM   20  C   UNL     1      28.683  48.949  38.958  1.00  0.00    -0.001 A 
HETATM   21  C   UNL     1      28.513  50.229  38.424  1.00  0.00     0.042 A 
HETATM   22  C   UNL     1      27.522  48.221  39.298  1.00  0.00     0.014 A 
HETATM   23  C   UNL     1      27.255  50.798  38.191  1.00  0.00     0.030 A 
HETATM   24  N   UNL     1      29.768  50.749  38.218  1.00  0.00    -0.365 N 
HETATM   25  C   UNL     1      26.127  50.041  38.515  1.00  0.00     0.002 A 
HETATM   26  C   UNL     1      26.256  48.772  39.066  1.00  0.00     0.001 A 
HETATM   27  H   UNL     1      29.949  51.678  37.863  1.00  0.00     0.165 HD
HETATM   28  C   UNL     1      30.724  49.834  38.561  1.00  0.00     0.097 A 
ENDBRANCH  18  19
ENDBRANCH   2  18
TORSDOF 4
ENDMDL
MODEL 8
REMARK VINA RESULT:      -9.0      1.691      8.659
REMARK  4 active torsions:
REMARK  status: ('A' for Active; 'I' for Inactive)
REMARK    1  A    between atoms: C_7  and  C_8 
REMARK    2  A    between atoms: N_9  and  N_10 
REMARK       I    between atoms: N_10  and  C_11 
REMARK    3  A    between atoms: C_11  and  C_12 
REMARK    4  A    between atoms: C_12  and  C_13 
ROOT
HETATM    1  N   UNL     1      25.959  46.295  51.368  1.00  0.00    -0.247 N 
HETATM    2  C   UNL     1      25.880  46.570  52.732  1.00  0.00     0.241 C 
HETATM    3  O   UNL     1      26.046  47.682  53.232  1.00  0.00    -0.271 OA
HETATM    4  H   UNL     1      25.613  45.430  50.978  1.00  0.00     0.192 HD
ENDROOT
BRANCH   1   5
HETATM    5  N   UNL     1      26.386  47.259  50.531  1.00  0.00    -0.184 NA
HETATM    6  C   UNL     1      25.590  47.900  49.732  1.00  0.00     0.153 C 
BRANCH   6   7
HETATM    7  C   UNL     1      24.169  47.755  49.420  1.00  0.00     0.018 A 
HETATM    8  C   UNL     1      23.346  46.641  49.248  1.00  0.00     0.018 A 
HETATM    9  C   UNL     1      23.543  45.169  49.293  1.00  0.00     0.069 C 
HETATM   10  N   UNL     1      22.093  47.101  48.900  1.00  0.00    -0.358 N 
HETATM   11  H   UNL     1      21.296  46.510  48.705  1.00  0.00     0.166 HD
HETATM   12  C   UNL     1      22.087  48.459  48.734  1.00  0.00     0.043 A 
HETATM   13  C   UNL     1      23.357  48.908  49.077  1.00  0.00     0.004 A 
HETATM   14  C   UNL     1      21.064  49.307  48.296  1.00  0.00     0.030 A 
HETATM   15  C   UNL     1      23.608  50.298  48.996  1.00  0.00     0.014 A 
HETATM   16  C   UNL     1      22.600  51.165  48.556  1.00  0.00     0.001 A 
HETATM   17  C   UNL     1      21.347  50.672  48.205  1.00  0.00     0.002 A 
ENDBRANCH   6   7
ENDBRANCH   1   5
BRANCH   2  18
HETATM   18  C   UNL     1      25.605  45.337  53.574  1.00  0.00     0.145 C 
BRANCH  18  19
HETATM   19  C   UNL     1      26.781  44.407  53.672  1.00  0.00    -0.021 A 
HETATM   20  C   UNL     1      27.975  44.558  54.458  1.00  0.00    -0.001 A 
HETATM   21  C   UNL     1      28.804  43.469  54.177  1.00  0.00     0.042 A 
HETATM   22  C   UNL     1      28.440  45.512  55.388  1.00  0.00     0.014 A 
HETATM   23  C   UNL     1      30.070  43.304  54.752  1.00  0.00     0.030 A 
HETATM   24  N   UNL     1      28.127  42.665  53.291  1.00  0.00    -0.365 N 
HETATM   25  C   UNL     1      30.510  44.280  55.650  1.00  0.00     0.002 A 
HETATM   26  C   UNL     1      29.706  45.367  55.969  1.00  0.00     0.001 A 
HETATM   27  H   UNL     1      28.479  41.787  52.934  1.00  0.00     0.165 HD
HETATM   28  C   UNL     1      26.921  43.224  52.969  1.00  0.00     0.097 A 
ENDBRANCH  18  19
ENDBRANCH   2  18
TORSDOF 4
ENDMDL
MODEL 9
REMARK VINA RESULT:      -9.0      2.544      4.027
REMARK  4 active torsions:
REMARK  status: ('A' for Active; 'I' for Inactive)
REMARK    1  A    between atoms: C_7  and  C_8 
REMARK    2  A    between atoms: N_9  and  N_10 
REMARK       I    between atoms: N_10  and  C_11 
REMARK    3  A    between atoms: C_11  and  C_12 
REMARK    4  A    between atoms: C_12  and  C_13 
ROOT
HETATM    1  N   UNL     1      27.635  42.138  51.133  1.00  0.00    -0.247 N 
HETATM    2  C   UNL     1      26.504  41.736  50.427  1.00  0.00     0.241 C 
HETATM    3  O   UNL     1      25.795  40.777  50.728  1.00  0.00    -0.271 OA
HETATM    4  H   UNL     1      28.064  43.041  50.986  1.00  0.00     0.192 HD
ENDROOT
BRANCH   1   5
HETATM    5  N   UNL     1      28.093  41.359  52.131  1.00  0.00    -0.184 NA
HETATM    6  C   UNL     1      28.180  41.767  53.360  1.00  0.00     0.153 C 
BRANCH   6   7
HETATM    7  C   UNL     1      27.948  43.064  53.992  1.00  0.00     0.018 A 
HETATM    8  C   UNL     1      26.901  43.983  53.914  1.00  0.00     0.018 A 
HETATM    9  C   UNL     1      25.616  44.054  53.172  1.00  0.00     0.069 C 
HETATM   10  N   UNL     1      27.248  45.075  54.683  1.00  0.00    -0.358 N 
HETATM   11  H   UNL     1      26.677  45.900  54.802  1.00  0.00     0.166 HD
HETATM   12  C   UNL     1      28.519  44.955  55.176  1.00  0.00     0.043 A 
HETATM   13  C   UNL     1      28.979  43.701  54.792  1.00  0.00     0.004 A 
HETATM   14  C   UNL     1      29.287  45.863  55.914  1.00  0.00     0.030 A 
HETATM   15  C   UNL     1      30.284  43.327  55.192  1.00  0.00     0.014 A 
HETATM   16  C   UNL     1      31.072  44.223  55.926  1.00  0.00     0.001 A 
HETATM   17  C   UNL     1      30.579  45.476  56.276  1.00  0.00     0.002 A 
ENDBRANCH   6   7
ENDBRANCH   1   5
BRANCH   2  18
HETATM   18  C   UNL     1      26.236  42.585  49.196  1.00  0.00     0.145 C 
BRANCH  18  19
HETATM   19  C   UNL     1      25.299  43.731  49.453  1.00  0.00    -0.021 A 
HETATM   20  C   UNL     1      25.617  45.124  49.617  1.00  0.00    -0.001 A 
HETATM   21  C   UNL     1      24.424  45.796  49.895  1.00  0.00     0.042 A 
HETATM   22  C   UNL     1      26.801  45.888  49.553  1.00  0.00     0.014 A 
HETATM   23  C   UNL     1      24.363  47.174  50.137  1.00  0.00     0.030 A 
HETATM   24  N   UNL     1      23.416  44.863  49.860  1.00  0.00    -0.365 N 
HETATM   25  C   UNL     1      25.558  47.898  50.091  1.00  0.00     0.002 A 
HETATM   26  C   UNL     1      26.761  47.266  49.798  1.00  0.00     0.001 A 
HETATM   27  H   UNL     1      22.438  45.074  49.999  1.00  0.00     0.165 HD
HETATM   28  C   UNL     1      23.930  43.619  49.612  1.00  0.00     0.097 A 
ENDBRANCH  18  19
ENDBRANCH   2  18
TORSDOF 4
ENDMDL
MODEL 10
REMARK VINA RESULT:      -8.9      2.850      4.829
REMARK  4 active torsions:
REMARK  status: ('A' for Active; 'I' for Inactive)
REMARK    1  A    between atoms: C_7  and  C_8 
REMARK    2  A    between atoms: N_9  and  N_10 
REMARK       I    between atoms: N_10  and  C_11 
REMARK    3  A    between atoms: C_11  and  C_12 
REMARK    4  A    between atoms: C_12  and  C_13 
ROOT
HETATM    1  N   UNL     1      28.036  41.842  51.408  1.00  0.00    -0.247 N 
HETATM    2  C   UNL     1      26.962  41.461  50.608  1.00  0.00     0.241 C 
HETATM    3  O   UNL     1      26.140  40.595  50.905  1.00  0.00    -0.271 OA
HETATM    4  H   UNL     1      28.558  42.689  51.234  1.00  0.00     0.192 HD
ENDROOT
BRANCH   1   5
HETATM    5  N   UNL     1      28.305  41.133  52.521  1.00  0.00    -0.184 NA
HETATM    6  C   UNL     1      28.515  41.689  53.675  1.00  0.00     0.153 C 
BRANCH   6   7
HETATM    7  C   UNL     1      28.626  43.083  54.100  1.00  0.00     0.018 A 
HETATM    8  C   UNL     1      29.587  43.776  54.836  1.00  0.00     0.018 A 
HETATM    9  C   UNL     1      30.866  43.414  55.501  1.00  0.00     0.069 C 
HETATM   10  N   UNL     1      29.139  45.071  54.990  1.00  0.00    -0.358 N 
HETATM   11  H   UNL     1      29.633  45.796  55.491  1.00  0.00     0.166 HD
HETATM   12  C   UNL     1      27.881  45.229  54.475  1.00  0.00     0.043 A 
HETATM   13  C   UNL     1      27.536  44.019  53.885  1.00  0.00     0.004 A 
HETATM   14  C   UNL     1      27.030  46.340  54.504  1.00  0.00     0.030 A 
HETATM   15  C   UNL     1      26.267  43.925  53.266  1.00  0.00     0.014 A 
HETATM   16  C   UNL     1      25.398  45.023  53.288  1.00  0.00     0.001 A 
HETATM   17  C   UNL     1      25.775  46.211  53.905  1.00  0.00     0.002 A 
ENDBRANCH   6   7
ENDBRANCH   1   5
BRANCH   2  18
HETATM   18  C   UNL     1      26.915  42.199  49.281  1.00  0.00     0.145 C 
BRANCH  18  19
HETATM   19  C   UNL     1      25.805  43.209  49.200  1.00  0.00    -0.021 A 
HETATM   20  C   UNL     1      25.848  44.610  49.519  1.00  0.00    -0.001 A 
HETATM   21  C   UNL     1      24.560  45.121  49.343  1.00  0.00     0.042 A 
HETATM   22  C   UNL     1      26.856  45.505  49.939  1.00  0.00     0.014 A 
HETATM   23  C   UNL     1      24.228  46.459  49.590  1.00  0.00     0.030 A 
HETATM   24  N   UNL     1      23.773  44.087  48.895  1.00  0.00    -0.365 N 
HETATM   25  C   UNL     1      25.244  47.312  50.029  1.00  0.00     0.002 A 
HETATM   26  C   UNL     1      26.542  46.844  50.197  1.00  0.00     0.001 A 
HETATM   27  H   UNL     1      22.795  44.176  48.657  1.00  0.00     0.165 HD
HETATM   28  C   UNL     1      24.503  42.933  48.820  1.00  0.00     0.097 A 
ENDBRANCH  18  19
ENDBRANCH   2  18
TORSDOF 4
ENDMDL
