MODEL 1
REMARK VINA RESULT:      -9.9      0.000      0.000
REMARK  5 active torsions:
REMARK  status: ('A' for Active; 'I' for Inactive)
REMARK    1  A    between atoms: C_3  and  N_4 
REMARK       I    between atoms: N_4  and  C_5 
REMARK    2  A    between atoms: C_5  and  C_6 
REMARK    3  A    between atoms: C_6  and  C_7 
REMARK    4  A    between atoms: C_9  and  N_10 
REMARK       I    between atoms: N_10  and  C_11 
REMARK       I    between atoms: C_11  and  N_12 
REMARK    5  A    between atoms: N_12  and  C_13 
ROOT
HETATM    1  C   UNL     1      27.343  41.691  50.782  1.00  0.00     0.052 A 
HETATM    2  N   UNL     1      27.016  43.030  50.968  1.00  0.00    -0.228 NA
HETATM    3  C   UNL     1      26.159  43.411  50.047  1.00  0.00     0.174 A 
HETATM    4  S   UNL     1      25.650  42.205  48.959  1.00  0.00    -0.062 SA
HETATM    5  C   UNL     1      26.689  41.080  49.729  1.00  0.00     0.081 A 
ENDROOT
BRANCH   1   6
HETATM    6  C   UNL     1      28.386  41.092  51.670  1.00  0.00     0.163 C 
BRANCH   6   7
HETATM    7  C   UNL     1      28.388  41.708  53.066  1.00  0.00     0.227 C 
HETATM    8  N   UNL     1      28.975  42.957  53.126  1.00  0.00    -0.326 N 
HETATM    9  H   UNL     1      29.102  43.396  52.215  1.00  0.00     0.169 HD
HETATM   10  O   UNL     1      27.811  41.134  53.986  1.00  0.00    -0.273 OA
BRANCH   8  11
HETATM   11  C   UNL     1      29.316  43.764  54.234  1.00  0.00     0.042 A 
HETATM   12  C   UNL     1      28.657  44.929  54.667  1.00  0.00    -0.035 A 
HETATM   13  C   UNL     1      27.420  45.505  54.039  1.00  0.00     0.050 C 
HETATM   14  C   UNL     1      29.151  45.608  55.804  1.00  0.00     0.011 A 
HETATM   15  C   UNL     1      30.236  45.121  56.531  1.00  0.00     0.024 A 
HETATM   16  C   UNL     1      30.847  43.945  56.128  1.00  0.00     0.036 A 
HETATM   17  C   UNL     1      30.392  43.270  54.996  1.00  0.00     0.053 A 
HETATM   18 CL   UNL     1      32.171  43.313  57.027  1.00  0.00    -0.084 Cl
ENDBRANCH   8  11
ENDBRANCH   6   7
ENDBRANCH   1   6
BRANCH   3  19
HETATM   19  N   UNL     1      25.674  44.691  50.020  1.00  0.00    -0.287 N 
HETATM   20  C   UNL     1      24.773  45.232  50.889  1.00  0.00     0.326 C 
HETATM   21  N   UNL     1      24.424  46.538  50.649  1.00  0.00    -0.309 N 
HETATM   22  O   UNL     1      24.177  44.636  51.783  1.00  0.00    -0.247 OA
HETATM   23  H   UNL     1      23.555  46.780  51.112  1.00  0.00     0.170 HD
HETATM   24  H   UNL     1      25.752  45.133  49.119  1.00  0.00     0.172 HD
BRANCH  21  25
HETATM   25  C   UNL     1      25.076  47.561  49.939  1.00  0.00     0.036 A 
HETATM   26  C   UNL     1      24.271  48.451  49.216  1.00  0.00     0.032 A 
HETATM   27  C   UNL     1      24.846  49.498  48.493  1.00  0.00     0.044 A 
HETATM   28  C   UNL     1      26.224  49.671  48.518  1.00  0.00     0.116 A 
HETATM   29  F   UNL     1      26.776  50.680  47.833  1.00  0.00    -0.206 F 
HETATM   30  C   UNL     1      27.033  48.820  49.258  1.00  0.00     0.044 A 
HETATM   31  C   UNL     1      26.460  47.764  49.973  1.00  0.00     0.032 A 
ENDBRANCH  21  25
ENDBRANCH   3  19
TORSDOF 5
ENDMDL
MODEL 2
REMARK VINA RESULT:      -9.4      3.165      4.482
REMARK  5 active torsions:
REMARK  status: ('A' for Active; 'I' for Inactive)
REMARK    1  A    between atoms: C_3  and  N_4 
REMARK       I    between atoms: N_4  and  C_5 
REMARK    2  A    between atoms: C_5  and  C_6 
REMARK    3  A    between atoms: C_6  and  C_7 
REMARK    4  A    between atoms: C_9  and  N_10 
REMARK       I    between atoms: N_10  and  C_11 
REMARK       I    between atoms: C_11  and  N_12 
REMARK    5  A    between atoms: N_12  and  C_13 
ROOT
HETATM    1  C   UNL     1      25.938  46.780  52.235  1.00  0.00     0.052 A 
HETATM    2  N   UNL     1      24.826  47.462  51.751  1.00  0.00    -0.228 NA
HETATM    3  C   UNL     1      24.600  47.116  50.504  1.00  0.00     0.174 A 
HETATM    4  S   UNL     1      25.639  45.933  49.859  1.00  0.00    -0.062 SA
HETATM    5  C   UNL     1      26.509  45.901  51.335  1.00  0.00     0.081 A 
ENDROOT
BRANCH   1   6
HETATM    6  C   UNL     1      26.423  47.111  53.609  1.00  0.00     0.163 C 
BRANCH   6   7
HETATM    7  C   UNL     1      26.995  45.896  54.335  1.00  0.00     0.227 C 
HETATM    8  N   UNL     1      28.343  45.996  54.620  1.00  0.00    -0.326 N 
HETATM    9  H   UNL     1      28.712  46.942  54.533  1.00  0.00     0.169 HD
HETATM   10  O   UNL     1      26.244  44.992  54.693  1.00  0.00    -0.273 OA
BRANCH   8  11
HETATM   11  C   UNL     1      29.254  45.039  55.117  1.00  0.00     0.042 A 
HETATM   12  C   UNL     1      29.683  43.864  54.472  1.00  0.00    -0.035 A 
HETATM   13  C   UNL     1      29.272  43.438  53.091  1.00  0.00     0.050 C 
HETATM   14  C   UNL     1      30.604  43.021  55.135  1.00  0.00     0.011 A 
HETATM   15  C   UNL     1      31.132  43.354  56.381  1.00  0.00     0.024 A 
HETATM   16  C   UNL     1      30.744  44.538  56.986  1.00  0.00     0.036 A 
HETATM   17  C   UNL     1      29.819  45.374  56.362  1.00  0.00     0.053 A 
HETATM   18 CL   UNL     1      31.405  44.981  58.512  1.00  0.00    -0.084 Cl
ENDBRANCH   8  11
ENDBRANCH   6   7
ENDBRANCH   1   6
BRANCH   3  19
HETATM   19  N   UNL     1      23.548  47.645  49.804  1.00  0.00    -0.287 N 
HETATM   20  C   UNL     1      22.836  47.023  48.822  1.00  0.00     0.326 C 
HETATM   21  N   UNL     1      21.832  47.765  48.253  1.00  0.00    -0.309 N 
HETATM   22  O   UNL     1      23.077  45.920  48.337  1.00  0.00    -0.247 OA
HETATM   23  H   UNL     1      21.555  47.386  47.355  1.00  0.00     0.170 HD
HETATM   24  H   UNL     1      23.529  48.653  49.806  1.00  0.00     0.172 HD
BRANCH  21  25
HETATM   25  C   UNL     1      21.123  48.886  48.718  1.00  0.00     0.036 A 
HETATM   26  C   UNL     1      21.479  50.134  48.188  1.00  0.00     0.032 A 
HETATM   27  C   UNL     1      20.814  51.292  48.597  1.00  0.00     0.044 A 
HETATM   28  C   UNL     1      19.774  51.198  49.512  1.00  0.00     0.116 A 
HETATM   29  F   UNL     1      19.129  52.306  49.897  1.00  0.00    -0.206 F 
HETATM   30  C   UNL     1      19.385  49.966  50.021  1.00  0.00     0.044 A 
HETATM   31  C   UNL     1      20.057  48.806  49.622  1.00  0.00     0.032 A 
ENDBRANCH  21  25
ENDBRANCH   3  19
TORSDOF 5
ENDMDL
MODEL 3
REMARK VINA RESULT:      -9.2      5.128      9.543
REMARK  5 active torsions:
REMARK  status: ('A' for Active; 'I' for Inactive)
REMARK    1  A    between atoms: C_3  and  N_4 
REMARK       I    between atoms: N_4  and  C_5 
REMARK    2  A    between atoms: C_5  and  C_6 
REMARK    3  A    between atoms: C_6  and  C_7 
REMARK    4  A    between atoms: C_9  and  N_10 
REMARK       I    between atoms: N_10  and  C_11 
REMARK       I    between atoms: C_11  and  N_12 
REMARK    5  A    between atoms: N_12  and  C_13 
ROOT
HETATM    1  C   UNL     1      25.176  47.929  49.737  1.00  0.00     0.052 A 
HETATM    2  N   UNL     1      26.034  47.977  50.832  1.00  0.00    -0.228 NA
HETATM    3  C   UNL     1      25.880  46.897  51.564  1.00  0.00     0.174 A 
HETATM    4  S   UNL     1      24.771  45.748  50.975  1.00  0.00    -0.062 SA
HETATM    5  C   UNL     1      24.411  46.782  49.656  1.00  0.00     0.081 A 
ENDROOT
BRANCH   1   6
HETATM    6  C   UNL     1      25.125  49.118  48.832  1.00  0.00     0.163 C 
BRANCH   6   7
HETATM    7  C   UNL     1      23.709  49.426  48.352  1.00  0.00     0.227 C 
HETATM    8  N   UNL     1      22.735  49.209  49.307  1.00  0.00    -0.326 N 
HETATM    9  H   UNL     1      23.101  49.114  50.254  1.00  0.00     0.169 HD
HETATM   10  O   UNL     1      23.536  49.917  47.239  1.00  0.00    -0.273 OA
BRANCH   8  11
HETATM   11  C   UNL     1      21.327  49.216  49.206  1.00  0.00     0.042 A 
HETATM   12  C   UNL     1      20.500  48.139  48.834  1.00  0.00    -0.035 A 
HETATM   13  C   UNL     1      20.981  46.751  48.519  1.00  0.00     0.050 C 
HETATM   14  C   UNL     1      19.102  48.339  48.786  1.00  0.00     0.011 A 
HETATM   15  C   UNL     1      18.526  49.556  49.148  1.00  0.00     0.024 A 
HETATM   16  C   UNL     1      19.343  50.594  49.562  1.00  0.00     0.036 A 
HETATM   17  C   UNL     1      20.727  50.428  49.595  1.00  0.00     0.053 A 
HETATM   18 CL   UNL     1      18.650  52.096  50.038  1.00  0.00    -0.084 Cl
ENDBRANCH   8  11
ENDBRANCH   6   7
ENDBRANCH   1   6
BRANCH   3  19
HETATM   19  N   UNL     1      26.622  46.701  52.698  1.00  0.00    -0.287 N 
HETATM   20  C   UNL     1      26.341  47.185  53.941  1.00  0.00     0.326 C 
HETATM   21  N   UNL     1      27.246  46.867  54.923  1.00  0.00    -0.309 N 
HETATM   22  O   UNL     1      25.427  47.953  54.233  1.00  0.00    -0.247 OA
HETATM   23  H   UNL     1      27.160  47.487  55.721  1.00  0.00     0.170 HD
HETATM   24  H   UNL     1      27.583  46.460  52.515  1.00  0.00     0.172 HD
BRANCH  21  25
HETATM   25  C   UNL     1      28.195  45.835  55.017  1.00  0.00     0.036 A 
HETATM   26  C   UNL     1      29.321  46.071  55.817  1.00  0.00     0.032 A 
HETATM   27  C   UNL     1      30.303  45.089  55.965  1.00  0.00     0.044 A 
HETATM   28  C   UNL     1      30.143  43.861  55.337  1.00  0.00     0.116 A 
HETATM   29  F   UNL     1      31.079  42.916  55.485  1.00  0.00    -0.206 F 
HETATM   30  C   UNL     1      29.017  43.597  54.568  1.00  0.00     0.044 A 
HETATM   31  C   UNL     1      28.038  44.583  54.410  1.00  0.00     0.032 A 
ENDBRANCH  21  25
ENDBRANCH   3  19
TORSDOF 5
ENDMDL
MODEL 4
REMARK VINA RESULT:      -9.1      4.904      9.260
REMARK  5 active torsions:
REMARK  status: ('A' for Active; 'I' for Inactive)
REMARK    1  A    between atoms: C_3  and  N_4 
REMARK       I    between atoms: N_4  and  C_5 
REMARK    2  A    between atoms: C_5  and  C_6 
REMARK    3  A    between atoms: C_6  and  C_7 
REMARK    4  A    between atoms: C_9  and  N_10 
REMARK       I    between atoms: N_10  and  C_11 
REMARK       I    between atoms: C_11  and  N_12 
REMARK    5  A    between atoms: N_12  and  C_13 
ROOT
HETATM    1  C   UNL     1      25.529  45.206  51.276  1.00  0.00     0.052 A 
HETATM    2  N   UNL     1      26.642  45.630  51.995  1.00  0.00    -0.228 NA
HETATM    3  C   UNL     1      26.656  45.052  53.175  1.00  0.00     0.174 A 
HETATM    4  S   UNL     1      25.402  43.941  53.475  1.00  0.00    -0.062 SA
HETATM    5  C   UNL     1      24.739  44.281  51.931  1.00  0.00     0.081 A 
ENDROOT
BRANCH   1   6
HETATM    6  C   UNL     1      25.276  45.828  49.940  1.00  0.00     0.163 C 
BRANCH   6   7
HETATM    7  C   UNL     1      24.584  47.184  50.049  1.00  0.00     0.227 C 
HETATM    8  N   UNL     1      23.622  47.401  49.081  1.00  0.00    -0.326 N 
HETATM    9  H   UNL     1      23.335  46.555  48.590  1.00  0.00     0.169 HD
HETATM   10  O   UNL     1      24.838  47.922  50.997  1.00  0.00    -0.273 OA
BRANCH   8  11
HETATM   11  C   UNL     1      22.897  48.565  48.747  1.00  0.00     0.042 A 
HETATM   12  C   UNL     1      23.420  49.777  48.258  1.00  0.00    -0.035 A 
HETATM   13  C   UNL     1      24.869  50.031  47.955  1.00  0.00     0.050 C 
HETATM   14  C   UNL     1      22.531  50.840  47.982  1.00  0.00     0.011 A 
HETATM   15  C   UNL     1      21.152  50.697  48.132  1.00  0.00     0.024 A 
HETATM   16  C   UNL     1      20.642  49.484  48.565  1.00  0.00     0.036 A 
HETATM   17  C   UNL     1      21.501  48.428  48.867  1.00  0.00     0.053 A 
HETATM   18 CL   UNL     1      18.942  49.278  48.732  1.00  0.00    -0.084 Cl
ENDBRANCH   8  11
ENDBRANCH   6   7
ENDBRANCH   1   6
BRANCH   3  19
HETATM   19  N   UNL     1      27.661  45.300  54.071  1.00  0.00    -0.287 N 
HETATM   20  C   UNL     1      27.741  46.363  54.922  1.00  0.00     0.326 C 
HETATM   21  N   UNL     1      28.857  46.404  55.720  1.00  0.00    -0.309 N 
HETATM   22  O   UNL     1      26.975  47.322  54.961  1.00  0.00    -0.247 OA
HETATM   23  H   UNL     1      29.015  47.335  56.089  1.00  0.00     0.170 HD
HETATM   24  H   UNL     1      28.527  44.838  53.845  1.00  0.00     0.172 HD
BRANCH  21  25
HETATM   25  C   UNL     1      29.747  45.397  56.130  1.00  0.00     0.036 A 
HETATM   26  C   UNL     1      30.283  45.502  57.420  1.00  0.00     0.032 A 
HETATM   27  C   UNL     1      31.168  44.534  57.900  1.00  0.00     0.044 A 
HETATM   28  C   UNL     1      31.493  43.446  57.101  1.00  0.00     0.116 A 
HETATM   29  F   UNL     1      32.334  42.513  57.564  1.00  0.00    -0.206 F 
HETATM   30  C   UNL     1      30.944  43.308  55.833  1.00  0.00     0.044 A 
HETATM   31  C   UNL     1      30.067  44.282  55.346  1.00  0.00     0.032 A 
ENDBRANCH  21  25
ENDBRANCH   3  19
TORSDOF 5
ENDMDL
MODEL 5
REMARK VINA RESULT:      -9.1      4.182      6.945
REMARK  5 active torsions:
REMARK  status: ('A' for Active; 'I' for Inactive)
REMARK    1  A    between atoms: C_3  and  N_4 
REMARK       I    between atoms: N_4  and  C_5 
REMARK    2  A    between atoms: C_5  and  C_6 
REMARK    3  A    between atoms: C_6  and  C_7 
REMARK    4  A    between atoms: C_9  and  N_10 
REMARK       I    between atoms: N_10  and  C_11 
REMARK       I    between atoms: C_11  and  N_12 
REMARK    5  A    between atoms: N_12  and  C_13 
ROOT
HETATM    1  C   UNL     1      25.427  43.807  51.423  1.00  0.00     0.052 A 
HETATM    2  N   UNL     1      26.425  42.884  51.128  1.00  0.00    -0.228 NA
HETATM    3  C   UNL     1      25.948  41.951  50.336  1.00  0.00     0.174 A 
HETATM    4  S   UNL     1      24.328  42.142  49.850  1.00  0.00    -0.062 SA
HETATM    5  C   UNL     1      24.214  43.558  50.809  1.00  0.00     0.081 A 
ENDROOT
BRANCH   1   6
HETATM    6  C   UNL     1      25.743  44.898  52.395  1.00  0.00     0.163 C 
BRANCH   6   7
HETATM    7  C   UNL     1      26.531  44.394  53.602  1.00  0.00     0.227 C 
HETATM    8  N   UNL     1      27.849  44.807  53.622  1.00  0.00    -0.326 N 
HETATM    9  H   UNL     1      28.049  45.574  52.981  1.00  0.00     0.169 HD
HETATM   10  O   UNL     1      25.955  43.767  54.487  1.00  0.00    -0.273 OA
BRANCH   8  11
HETATM   11  C   UNL     1      28.922  44.426  54.456  1.00  0.00     0.042 A 
HETATM   12  C   UNL     1      29.812  43.354  54.255  1.00  0.00    -0.035 A 
HETATM   13  C   UNL     1      29.803  42.437  53.066  1.00  0.00     0.050 C 
HETATM   14  C   UNL     1      30.829  43.126  55.210  1.00  0.00     0.011 A 
HETATM   15  C   UNL     1      31.000  43.964  56.310  1.00  0.00     0.024 A 
HETATM   16  C   UNL     1      30.152  45.048  56.472  1.00  0.00     0.036 A 
HETATM   17  C   UNL     1      29.127  45.280  55.557  1.00  0.00     0.053 A 
HETATM   18 CL   UNL     1      30.364  46.111  57.809  1.00  0.00    -0.084 Cl
ENDBRANCH   8  11
ENDBRANCH   6   7
ENDBRANCH   1   6
BRANCH   3  19
HETATM   19  N   UNL     1      26.742  40.927  49.893  1.00  0.00    -0.287 N 
HETATM   20  C   UNL     1      27.544  40.945  48.791  1.00  0.00     0.326 C 
HETATM   21  N   UNL     1      28.237  39.787  48.540  1.00  0.00    -0.309 N 
HETATM   22  O   UNL     1      27.619  41.847  47.960  1.00  0.00    -0.247 OA
HETATM   23  H   UNL     1      28.558  39.748  47.579  1.00  0.00     0.170 HD
HETATM   24  H   UNL     1      26.455  40.020  50.227  1.00  0.00     0.172 HD
BRANCH  21  25
HETATM   25  C   UNL     1      28.601  38.718  49.377  1.00  0.00     0.036 A 
HETATM   26  C   UNL     1      29.757  38.877  50.153  1.00  0.00     0.032 A 
HETATM   27  C   UNL     1      30.176  37.862  51.015  1.00  0.00     0.044 A 
HETATM   28  C   UNL     1      29.423  36.700  51.122  1.00  0.00     0.116 A 
HETATM   29  F   UNL     1      29.819  35.730  51.955  1.00  0.00    -0.206 F 
HETATM   30  C   UNL     1      28.256  36.540  50.387  1.00  0.00     0.044 A 
HETATM   31  C   UNL     1      27.841  37.550  49.515  1.00  0.00     0.032 A 
ENDBRANCH  21  25
ENDBRANCH   3  19
TORSDOF 5
ENDMDL
MODEL 6
REMARK VINA RESULT:      -8.9      3.700      4.926
REMARK  5 active torsions:
REMARK  status: ('A' for Active; 'I' for Inactive)
REMARK    1  A    between atoms: C_3  and  N_4 
REMARK       I    between atoms: N_4  and  C_5 
REMARK    2  A    between atoms: C_5  and  C_6 
REMARK    3  A    between atoms: C_6  and  C_7 
REMARK    4  A    between atoms: C_9  and  N_10 
REMARK       I    between atoms: N_10  and  C_11 
REMARK       I    between atoms: C_11  and  N_12 
REMARK    5  A    between atoms: N_12  and  C_13 
ROOT
HETATM    1  C   UNL     1      25.244  45.856  50.450  1.00  0.00     0.052 A 
HETATM    2  N   UNL     1      23.996  46.275  49.998  1.00  0.00    -0.228 NA
HETATM    3  C   UNL     1      24.078  47.506  49.546  1.00  0.00     0.174 A 
HETATM    4  S   UNL     1      25.629  48.208  49.571  1.00  0.00    -0.062 SA
HETATM    5  C   UNL     1      26.254  46.785  50.294  1.00  0.00     0.081 A 
ENDROOT
BRANCH   1   6
HETATM    6  C   UNL     1      25.341  44.513  51.100  1.00  0.00     0.163 C 
BRANCH   6   7
HETATM    7  C   UNL     1      26.768  44.169  51.519  1.00  0.00     0.227 C 
HETATM    8  N   UNL     1      26.914  43.939  52.873  1.00  0.00    -0.326 N 
HETATM    9  H   UNL     1      26.032  43.789  53.362  1.00  0.00     0.169 HD
HETATM   10  O   UNL     1      27.636  44.027  50.662  1.00  0.00    -0.273 OA
BRANCH   8  11
HETATM   11  C   UNL     1      28.074  43.764  53.658  1.00  0.00     0.042 A 
HETATM   12  C   UNL     1      28.978  42.687  53.605  1.00  0.00    -0.035 A 
HETATM   13  C   UNL     1      28.888  41.532  52.648  1.00  0.00     0.050 C 
HETATM   14  C   UNL     1      30.088  42.685  54.479  1.00  0.00     0.011 A 
HETATM   15  C   UNL     1      30.334  43.746  55.349  1.00  0.00     0.024 A 
HETATM   16  C   UNL     1      29.467  44.827  55.358  1.00  0.00     0.036 A 
HETATM   17  C   UNL     1      28.353  44.840  54.522  1.00  0.00     0.053 A 
HETATM   18 CL   UNL     1      29.768  46.160  56.405  1.00  0.00    -0.084 Cl
ENDBRANCH   8  11
ENDBRANCH   6   7
ENDBRANCH   1   6
BRANCH   3  19
HETATM   19  N   UNL     1      22.981  48.145  49.034  1.00  0.00    -0.287 N 
HETATM   20  C   UNL     1      22.220  47.728  47.982  1.00  0.00     0.326 C 
HETATM   21  N   UNL     1      21.174  48.549  47.641  1.00  0.00    -0.309 N 
HETATM   22  O   UNL     1      22.446  46.760  47.259  1.00  0.00    -0.247 OA
HETATM   23  H   UNL     1      20.849  48.362  46.699  1.00  0.00     0.170 HD
HETATM   24  H   UNL     1      22.947  49.128  49.253  1.00  0.00     0.172 HD
BRANCH  21  25
HETATM   25  C   UNL     1      20.479  49.526  48.374  1.00  0.00     0.036 A 
HETATM   26  C   UNL     1      20.602  50.855  47.946  1.00  0.00     0.032 A 
HETATM   27  C   UNL     1      19.935  51.880  48.620  1.00  0.00     0.044 A 
HETATM   28  C   UNL     1      19.121  51.572  49.701  1.00  0.00     0.116 A 
HETATM   29  F   UNL     1      18.473  52.553  50.342  1.00  0.00    -0.206 F 
HETATM   30  C   UNL     1      18.959  50.257  50.117  1.00  0.00     0.044 A 
HETATM   31  C   UNL     1      19.636  49.230  49.452  1.00  0.00     0.032 A 
ENDBRANCH  21  25
ENDBRANCH   3  19
TORSDOF 5
ENDMDL
MODEL 7
REMARK VINA RESULT:      -8.9      2.435      3.107
REMARK  5 active torsions:
REMARK  status: ('A' for Active; 'I' for Inactive)
REMARK    1  A    between atoms: C_3  and  N_4 
REMARK       I    between atoms: N_4  and  C_5 
REMARK    2  A    between atoms: C_5  and  C_6 
REMARK    3  A    between atoms: C_6  and  C_7 
REMARK    4  A    between atoms: C_9  and  N_10 
REMARK       I    between atoms: N_10  and  C_11 
REMARK       I    between atoms: C_11  and  N_12 
REMARK    5  A    between atoms: N_12  and  C_13 
ROOT
HETATM    1  C   UNL     1      26.228  44.114  51.473  1.00  0.00     0.052 A 
HETATM    2  N   UNL     1      26.194  45.434  51.035  1.00  0.00    -0.228 NA
HETATM    3  C   UNL     1      25.024  45.693  50.495  1.00  0.00     0.174 A 
HETATM    4  S   UNL     1      23.889  44.425  50.530  1.00  0.00    -0.062 SA
HETATM    5  C   UNL     1      25.053  43.413  51.277  1.00  0.00     0.081 A 
ENDROOT
BRANCH   1   6
HETATM    6  C   UNL     1      27.513  43.590  52.028  1.00  0.00     0.163 C 
BRANCH   6   7
HETATM    7  C   UNL     1      27.646  43.841  53.528  1.00  0.00     0.227 C 
HETATM    8  N   UNL     1      28.756  44.587  53.875  1.00  0.00    -0.326 N 
HETATM    9  H   UNL     1      29.190  45.068  53.088  1.00  0.00     0.169 HD
HETATM   10  O   UNL     1      26.756  43.471  54.289  1.00  0.00    -0.273 OA
BRANCH   8  11
HETATM   11  C   UNL     1      29.310  44.883  55.139  1.00  0.00     0.042 A 
HETATM   12  C   UNL     1      28.919  45.914  56.014  1.00  0.00    -0.035 A 
HETATM   13  C   UNL     1      27.789  46.872  55.768  1.00  0.00     0.050 C 
HETATM   14  C   UNL     1      29.599  46.057  57.244  1.00  0.00     0.011 A 
HETATM   15  C   UNL     1      30.605  45.172  57.630  1.00  0.00     0.024 A 
HETATM   16  C   UNL     1      30.947  44.128  56.786  1.00  0.00     0.036 A 
HETATM   17  C   UNL     1      30.307  43.981  55.556  1.00  0.00     0.053 A 
HETATM   18 CL   UNL     1      32.167  43.009  57.255  1.00  0.00    -0.084 Cl
ENDBRANCH   8  11
ENDBRANCH   6   7
ENDBRANCH   1   6
BRANCH   3  19
HETATM   19  N   UNL     1      24.738  46.935  49.994  1.00  0.00    -0.287 N 
HETATM   20  C   UNL     1      25.615  47.784  49.388  1.00  0.00     0.326 C 
HETATM   21  N   UNL     1      25.095  48.987  48.980  1.00  0.00    -0.309 N 
HETATM   22  O   UNL     1      26.827  47.618  49.274  1.00  0.00    -0.247 OA
HETATM   23  H   UNL     1      25.824  49.674  48.829  1.00  0.00     0.170 HD
HETATM   24  H   UNL     1      23.911  47.350  50.393  1.00  0.00     0.172 HD
BRANCH  21  25
HETATM   25  C   UNL     1      23.776  49.385  48.701  1.00  0.00     0.036 A 
HETATM   26  C   UNL     1      23.444  50.723  48.954  1.00  0.00     0.032 A 
HETATM   27  C   UNL     1      22.155  51.194  48.694  1.00  0.00     0.044 A 
HETATM   28  C   UNL     1      21.208  50.334  48.153  1.00  0.00     0.116 A 
HETATM   29  F   UNL     1      19.975  50.787  47.894  1.00  0.00    -0.206 F 
HETATM   30  C   UNL     1      21.530  49.015  47.863  1.00  0.00     0.044 A 
HETATM   31  C   UNL     1      22.816  48.538  48.134  1.00  0.00     0.032 A 
ENDBRANCH  21  25
ENDBRANCH   3  19
TORSDOF 5
ENDMDL
MODEL 8
REMARK VINA RESULT:      -8.8      5.309      9.726
REMARK  5 active torsions:
REMARK  status: ('A' for Active; 'I' for Inactive)
REMARK    1  A    between atoms: C_3  and  N_4 
REMARK       I    between atoms: N_4  and  C_5 
REMARK    2  A    between atoms: C_5  and  C_6 
REMARK    3  A    between atoms: C_6  and  C_7 
REMARK    4  A    between atoms: C_9  and  N_10 
REMARK       I    between atoms: N_10  and  C_11 
REMARK       I    between atoms: C_11  and  N_12 
REMARK    5  A    between atoms: N_12  and  C_13 
ROOT
HETATM    1  C   UNL     1      25.366  49.727  48.525  1.00  0.00     0.052 A 
HETATM    2  N   UNL     1      25.070  48.628  49.325  1.00  0.00    -0.228 NA
HETATM    3  C   UNL     1      26.182  48.030  49.688  1.00  0.00     0.174 A 
HETATM    4  S   UNL     1      27.627  48.759  49.161  1.00  0.00    -0.062 SA
HETATM    5  C   UNL     1      26.715  49.949  48.330  1.00  0.00     0.081 A 
ENDROOT
BRANCH   1   6
HETATM    6  C   UNL     1      24.227  50.486  47.925  1.00  0.00     0.163 C 
BRANCH   6   7
HETATM    7  C   UNL     1      22.985  50.475  48.813  1.00  0.00     0.227 C 
HETATM    8  N   UNL     1      21.926  49.760  48.286  1.00  0.00    -0.326 N 
HETATM    9  H   UNL     1      22.188  49.146  47.515  1.00  0.00     0.169 HD
HETATM   10  O   UNL     1      23.029  50.989  49.927  1.00  0.00    -0.273 OA
BRANCH   8  11
HETATM   11  C   UNL     1      20.584  49.654  48.710  1.00  0.00     0.042 A 
HETATM   12  C   UNL     1      19.846  48.470  48.896  1.00  0.00    -0.035 A 
HETATM   13  C   UNL     1      20.386  47.079  48.716  1.00  0.00     0.050 C 
HETATM   14  C   UNL     1      18.503  48.565  49.325  1.00  0.00     0.011 A 
HETATM   15  C   UNL     1      17.915  49.795  49.617  1.00  0.00     0.024 A 
HETATM   16  C   UNL     1      18.665  50.952  49.482  1.00  0.00     0.036 A 
HETATM   17  C   UNL     1      19.984  50.885  49.037  1.00  0.00     0.053 A 
HETATM   18 CL   UNL     1      17.966  52.477  49.863  1.00  0.00    -0.084 Cl
ENDBRANCH   8  11
ENDBRANCH   6   7
ENDBRANCH   1   6
BRANCH   3  19
HETATM   19  N   UNL     1      26.159  46.921  50.491  1.00  0.00    -0.287 N 
HETATM   20  C   UNL     1      25.538  45.738  50.217  1.00  0.00     0.326 C 
HETATM   21  N   UNL     1      25.642  44.772  51.187  1.00  0.00    -0.309 N 
HETATM   22  O   UNL     1      24.820  45.500  49.249  1.00  0.00    -0.247 OA
HETATM   23  H   UNL     1      24.930  44.059  51.077  1.00  0.00     0.170 HD
HETATM   24  H   UNL     1      26.338  47.121  51.461  1.00  0.00     0.172 HD
BRANCH  21  25
HETATM   25  C   UNL     1      26.566  44.595  52.231  1.00  0.00     0.036 A 
HETATM   26  C   UNL     1      27.791  43.996  51.907  1.00  0.00     0.032 A 
HETATM   27  C   UNL     1      28.762  43.796  52.890  1.00  0.00     0.044 A 
HETATM   28  C   UNL     1      28.520  44.221  54.190  1.00  0.00     0.116 A 
HETATM   29  F   UNL     1      29.454  44.038  55.131  1.00  0.00    -0.206 F 
HETATM   30  C   UNL     1      27.326  44.848  54.521  1.00  0.00     0.044 A 
HETATM   31  C   UNL     1      26.347  45.039  53.541  1.00  0.00     0.032 A 
ENDBRANCH  21  25
ENDBRANCH   3  19
TORSDOF 5
ENDMDL
MODEL 9
REMARK VINA RESULT:      -8.8      5.257      9.650
REMARK  5 active torsions:
REMARK  status: ('A' for Active; 'I' for Inactive)
REMARK    1  A    between atoms: C_3  and  N_4 
REMARK       I    between atoms: N_4  and  C_5 
REMARK    2  A    between atoms: C_5  and  C_6 
REMARK    3  A    between atoms: C_6  and  C_7 
REMARK    4  A    between atoms: C_9  and  N_10 
REMARK       I    between atoms: N_10  and  C_11 
REMARK       I    between atoms: C_11  and  N_12 
REMARK    5  A    between atoms: N_12  and  C_13 
ROOT
HETATM    1  C   UNL     1      23.961  46.427  49.630  1.00  0.00     0.052 A 
HETATM    2  N   UNL     1      24.628  45.354  50.213  1.00  0.00    -0.228 NA
HETATM    3  C   UNL     1      25.820  45.735  50.612  1.00  0.00     0.174 A 
HETATM    4  S   UNL     1      26.194  47.379  50.379  1.00  0.00    -0.062 SA
HETATM    5  C   UNL     1      24.668  47.614  49.635  1.00  0.00     0.081 A 
ENDROOT
BRANCH   1   6
HETATM    6  C   UNL     1      22.621  46.174  49.019  1.00  0.00     0.163 C 
BRANCH   6   7
HETATM    7  C   UNL     1      22.036  47.419  48.357  1.00  0.00     0.227 C 
HETATM    8  N   UNL     1      21.457  48.305  49.245  1.00  0.00    -0.326 N 
HETATM    9  H   UNL     1      21.709  48.136  50.218  1.00  0.00     0.169 HD
HETATM   10  O   UNL     1      22.193  47.599  47.152  1.00  0.00    -0.273 OA
BRANCH   8  11
HETATM   11  C   UNL     1      20.679  49.461  49.018  1.00  0.00     0.042 A 
HETATM   12  C   UNL     1      21.150  50.770  48.805  1.00  0.00    -0.035 A 
HETATM   13  C   UNL     1      22.598  51.166  48.734  1.00  0.00     0.050 C 
HETATM   14  C   UNL     1      20.212  51.806  48.597  1.00  0.00     0.011 A 
HETATM   15  C   UNL     1      18.843  51.552  48.545  1.00  0.00     0.024 A 
HETATM   16  C   UNL     1      18.390  50.252  48.704  1.00  0.00     0.036 A 
HETATM   17  C   UNL     1      19.295  49.217  48.934  1.00  0.00     0.053 A 
HETATM   18 CL   UNL     1      16.706  49.912  48.617  1.00  0.00    -0.084 Cl
ENDBRANCH   8  11
ENDBRANCH   6   7
ENDBRANCH   1   6
BRANCH   3  19
HETATM   19  N   UNL     1      26.673  44.858  51.228  1.00  0.00    -0.287 N 
HETATM   20  C   UNL     1      27.289  43.788  50.650  1.00  0.00     0.326 C 
HETATM   21  N   UNL     1      28.090  43.043  51.479  1.00  0.00    -0.309 N 
HETATM   22  O   UNL     1      27.111  43.377  49.506  1.00  0.00    -0.247 OA
HETATM   23  H   UNL     1      28.264  42.121  51.095  1.00  0.00     0.170 HD
HETATM   24  H   UNL     1      26.568  44.832  52.230  1.00  0.00     0.172 HD
BRANCH  21  25
HETATM   25  C   UNL     1      28.721  43.357  52.695  1.00  0.00     0.036 A 
HETATM   26  C   UNL     1      28.044  44.226  53.562  1.00  0.00     0.032 A 
HETATM   27  C   UNL     1      28.605  44.577  54.791  1.00  0.00     0.044 A 
HETATM   28  C   UNL     1      29.827  44.036  55.167  1.00  0.00     0.116 A 
HETATM   29  F   UNL     1      30.361  44.365  56.349  1.00  0.00    -0.206 F 
HETATM   30  C   UNL     1      30.495  43.146  54.336  1.00  0.00     0.044 A 
HETATM   31  C   UNL     1      29.941  42.802  53.099  1.00  0.00     0.032 A 
ENDBRANCH  21  25
ENDBRANCH   3  19
TORSDOF 5
ENDMDL
MODEL 10
REMARK VINA RESULT:      -8.7      4.361      6.020
REMARK  5 active torsions:
REMARK  status: ('A' for Active; 'I' for Inactive)
REMARK    1  A    between atoms: C_3  and  N_4 
REMARK       I    between atoms: N_4  and  C_5 
REMARK    2  A    between atoms: C_5  and  C_6 
REMARK    3  A    between atoms: C_6  and  C_7 
REMARK    4  A    between atoms: C_9  and  N_10 
REMARK       I    between atoms: N_10  and  C_11 
REMARK       I    between atoms: C_11  and  N_12 
REMARK    5  A    between atoms: N_12  and  C_13 
ROOT
HETATM    1  C   UNL     1      24.807  46.936  50.109  1.00  0.00     0.052 A 
HETATM    2  N   UNL     1      24.156  48.150  49.913  1.00  0.00    -0.228 NA
HETATM    3  C   UNL     1      23.075  47.963  49.189  1.00  0.00     0.174 A 
HETATM    4  S   UNL     1      22.737  46.351  48.757  1.00  0.00    -0.062 SA
HETATM    5  C   UNL     1      24.172  45.846  49.546  1.00  0.00     0.081 A 
ENDROOT
BRANCH   1   6
HETATM    6  C   UNL     1      26.118  46.950  50.826  1.00  0.00     0.163 C 
BRANCH   6   7
HETATM    7  C   UNL     1      26.827  45.599  50.773  1.00  0.00     0.227 C 
HETATM    8  N   UNL     1      26.707  44.858  51.932  1.00  0.00    -0.326 N 
HETATM    9  H   UNL     1      25.976  45.190  52.559  1.00  0.00     0.169 HD
HETATM   10  O   UNL     1      27.351  45.227  49.726  1.00  0.00    -0.273 OA
BRANCH   8  11
HETATM   11  C   UNL     1      27.342  43.662  52.331  1.00  0.00     0.042 A 
HETATM   12  C   UNL     1      27.080  42.364  51.854  1.00  0.00    -0.035 A 
HETATM   13  C   UNL     1      26.087  42.024  50.779  1.00  0.00     0.050 C 
HETATM   14  C   UNL     1      27.822  41.282  52.380  1.00  0.00     0.011 A 
HETATM   15  C   UNL     1      28.837  41.479  53.315  1.00  0.00     0.024 A 
HETATM   16  C   UNL     1      29.124  42.766  53.740  1.00  0.00     0.036 A 
HETATM   17  C   UNL     1      28.390  43.846  53.254  1.00  0.00     0.053 A 
HETATM   18 CL   UNL     1      30.392  43.033  54.873  1.00  0.00    -0.084 Cl
ENDBRANCH   8  11
ENDBRANCH   6   7
ENDBRANCH   1   6
BRANCH   3  19
HETATM   19  N   UNL     1      22.252  49.008  48.864  1.00  0.00    -0.287 N 
HETATM   20  C   UNL     1      22.481  49.947  47.902  1.00  0.00     0.326 C 
HETATM   21  N   UNL     1      21.513  50.912  47.770  1.00  0.00    -0.309 N 
HETATM   22  O   UNL     1      23.503  50.068  47.232  1.00  0.00    -0.247 OA
HETATM   23  H   UNL     1      21.867  51.727  47.283  1.00  0.00     0.170 HD
HETATM   24  H   UNL     1      21.613  49.262  49.600  1.00  0.00     0.172 HD
BRANCH  21  25
HETATM   25  C   UNL     1      20.158  50.929  48.142  1.00  0.00     0.036 A 
HETATM   26  C   UNL     1      19.803  51.734  49.233  1.00  0.00     0.032 A 
HETATM   27  C   UNL     1      18.474  51.809  49.654  1.00  0.00     0.044 A 
HETATM   28  C   UNL     1      17.496  51.102  48.966  1.00  0.00     0.116 A 
HETATM   29  F   UNL     1      16.221  51.180  49.364  1.00  0.00    -0.206 F 
HETATM   30  C   UNL     1      17.825  50.327  47.862  1.00  0.00     0.044 A 
HETATM   31  C   UNL     1      19.157  50.242  47.445  1.00  0.00     0.032 A 
ENDBRANCH  21  25
ENDBRANCH   3  19
TORSDOF 5
ENDMDL
