MODEL 1
REMARK VINA RESULT:      -9.1      0.000      0.000
REMARK  3 active torsions:
REMARK  status: ('A' for Active; 'I' for Inactive)
REMARK    1  A    between atoms: C_3  and  N_4 
REMARK       I    between atoms: N_4  and  C_5 
REMARK    2  A    between atoms: C_5  and  C_6 
REMARK    3  A    between atoms: C_6  and  C_7 
ROOT
HETATM    1  C   UNL     1      26.433  46.327  54.196  1.00  0.00     0.286 C 
HETATM    2  N   UNL     1      27.448  45.386  53.532  1.00  0.00    -0.056 N 
HETATM    3  H   UNL     1      26.948  44.704  52.934  1.00  0.00     0.278 HD
HETATM    4  H   UNL     1      28.033  45.923  52.876  1.00  0.00     0.278 HD
HETATM    5  C   UNL     1      28.292  44.704  54.566  1.00  0.00     0.209 C 
HETATM    6  C   UNL     1      29.095  45.796  55.306  1.00  0.00     0.115 C 
HETATM    7  N   UNL     1      28.217  46.825  55.864  1.00  0.00    -0.353 N 
HETATM    8  C   UNL     1      27.101  47.292  55.202  1.00  0.00     0.249 C 
HETATM    9  O   UNL     1      26.628  48.387  55.486  1.00  0.00    -0.271 OA
HETATM   10  C   UNL     1      29.206  43.677  53.914  1.00  0.00     0.035 C 
HETATM   11  C   UNL     1      30.096  43.034  54.977  1.00  0.00     0.002 C 
HETATM   12  C   UNL     1      30.889  44.079  55.765  1.00  0.00     0.002 C 
HETATM   13  C   UNL     1      29.993  45.163  56.370  1.00  0.00     0.027 C 
HETATM   14  H   UNL     1      28.629  47.522  56.483  1.00  0.00     0.163 HD
ENDROOT
BRANCH   1  15
HETATM   15  C   UNL     1      25.654  47.081  53.125  1.00  0.00     0.146 C 
BRANCH  15  16
HETATM   16  C   UNL     1      25.302  46.096  52.051  1.00  0.00     0.224 C 
HETATM   17  N   UNL     1      25.269  46.389  50.730  1.00  0.00    -0.325 N 
HETATM   18  H   UNL     1      24.816  45.649  50.192  1.00  0.00     0.169 HD
HETATM   19  O   UNL     1      24.780  45.034  52.420  1.00  0.00    -0.273 OA
BRANCH  17  20
HETATM   20  C   UNL     1      25.603  47.516  49.956  1.00  0.00     0.073 A 
HETATM   21  C   UNL     1      26.888  47.960  49.659  1.00  0.00     0.033 A 
HETATM   22  C   UNL     1      27.072  49.121  48.892  1.00  0.00     0.002 A 
HETATM   23  C   UNL     1      25.977  49.837  48.407  1.00  0.00     0.003 A 
HETATM   24  C   UNL     1      24.688  49.385  48.669  1.00  0.00     0.044 A 
HETATM   25  C   UNL     1      24.516  48.231  49.424  1.00  0.00     0.143 A 
HETATM   26  F   UNL     1      23.269  47.813  49.693  1.00  0.00    -0.204 F 
ENDBRANCH  17  20
ENDBRANCH  15  16
ENDBRANCH   1  15
TORSDOF 3
ENDMDL
MODEL 2
REMARK VINA RESULT:      -8.6      0.959      1.403
REMARK  3 active torsions:
REMARK  status: ('A' for Active; 'I' for Inactive)
REMARK    1  A    between atoms: C_3  and  N_4 
REMARK       I    between atoms: N_4  and  C_5 
REMARK    2  A    between atoms: C_5  and  C_6 
REMARK    3  A    between atoms: C_6  and  C_7 
ROOT
HETATM    1  C   UNL     1      26.230  46.236  54.141  1.00  0.00     0.286 C 
HETATM    2  N   UNL     1      27.324  45.397  53.467  1.00  0.00    -0.056 N 
HETATM    3  H   UNL     1      26.889  44.707  52.829  1.00  0.00     0.278 HD
HETATM    4  H   UNL     1      27.886  46.001  52.849  1.00  0.00     0.278 HD
HETATM    5  C   UNL     1      28.189  44.732  54.495  1.00  0.00     0.209 C 
HETATM    6  C   UNL     1      28.895  45.846  55.300  1.00  0.00     0.115 C 
HETATM    7  N   UNL     1      27.933  46.787  55.875  1.00  0.00    -0.353 N 
HETATM    8  C   UNL     1      26.803  47.202  55.202  1.00  0.00     0.249 C 
HETATM    9  O   UNL     1      26.247  48.248  55.517  1.00  0.00    -0.271 OA
HETATM   10  C   UNL     1      29.189  43.800  53.827  1.00  0.00     0.035 C 
HETATM   11  C   UNL     1      30.098  43.177  54.887  1.00  0.00     0.002 C 
HETATM   12  C   UNL     1      30.795  44.241  55.738  1.00  0.00     0.002 C 
HETATM   13  C   UNL     1      29.810  45.233  56.361  1.00  0.00     0.027 C 
HETATM   14  H   UNL     1      28.280  47.484  56.532  1.00  0.00     0.163 HD
ENDROOT
BRANCH   1  15
HETATM   15  C   UNL     1      25.426  46.977  53.080  1.00  0.00     0.146 C 
BRANCH  15  16
HETATM   16  C   UNL     1      25.049  45.981  52.025  1.00  0.00     0.224 C 
HETATM   17  N   UNL     1      24.775  46.301  50.739  1.00  0.00    -0.325 N 
HETATM   18  H   UNL     1      24.349  45.519  50.239  1.00  0.00     0.169 HD
HETATM   19  O   UNL     1      24.738  44.847  52.417  1.00  0.00    -0.273 OA
BRANCH  17  20
HETATM   20  C   UNL     1      24.832  47.483  49.977  1.00  0.00     0.073 A 
HETATM   21  C   UNL     1      23.748  48.256  49.574  1.00  0.00     0.033 A 
HETATM   22  C   UNL     1      23.954  49.403  48.791  1.00  0.00     0.002 A 
HETATM   23  C   UNL     1      25.241  49.790  48.417  1.00  0.00     0.003 A 
HETATM   24  C   UNL     1      26.335  49.044  48.840  1.00  0.00     0.044 A 
HETATM   25  C   UNL     1      26.122  47.915  49.621  1.00  0.00     0.143 A 
HETATM   26  F   UNL     1      27.181  47.185  50.008  1.00  0.00    -0.204 F 
ENDBRANCH  17  20
ENDBRANCH  15  16
ENDBRANCH   1  15
TORSDOF 3
ENDMDL
MODEL 3
REMARK VINA RESULT:      -8.5      4.115      7.165
REMARK  3 active torsions:
REMARK  status: ('A' for Active; 'I' for Inactive)
REMARK    1  A    between atoms: C_3  and  N_4 
REMARK       I    between atoms: N_4  and  C_5 
REMARK    2  A    between atoms: C_5  and  C_6 
REMARK    3  A    between atoms: C_6  and  C_7 
ROOT
HETATM    1  C   UNL     1      26.934  44.011  53.290  1.00  0.00     0.286 C 
HETATM    2  N   UNL     1      27.639  42.648  53.289  1.00  0.00    -0.056 N 
HETATM    3  H   UNL     1      28.594  42.751  53.676  1.00  0.00     0.278 HD
HETATM    4  H   UNL     1      27.162  42.017  53.950  1.00  0.00     0.278 HD
HETATM    5  C   UNL     1      27.657  42.063  51.910  1.00  0.00     0.209 C 
HETATM    6  C   UNL     1      26.191  41.823  51.486  1.00  0.00     0.115 C 
HETATM    7  N   UNL     1      25.395  43.046  51.584  1.00  0.00    -0.353 N 
HETATM    8  C   UNL     1      25.547  43.954  52.611  1.00  0.00     0.249 C 
HETATM    9  O   UNL     1      24.640  44.730  52.888  1.00  0.00    -0.271 OA
HETATM   10  C   UNL     1      28.468  40.776  51.889  1.00  0.00     0.035 C 
HETATM   11  C   UNL     1      28.428  40.167  50.487  1.00  0.00     0.002 C 
HETATM   12  C   UNL     1      26.993  39.941  50.004  1.00  0.00     0.002 C 
HETATM   13  C   UNL     1      26.139  41.209  50.087  1.00  0.00     0.027 C 
HETATM   14  H   UNL     1      24.449  43.033  51.206  1.00  0.00     0.163 HD
ENDROOT
BRANCH   1  15
HETATM   15  C   UNL     1      26.841  44.540  54.716  1.00  0.00     0.146 C 
BRANCH  15  16
HETATM   16  C   UNL     1      27.584  45.841  54.761  1.00  0.00     0.224 C 
HETATM   17  N   UNL     1      28.796  46.007  55.340  1.00  0.00    -0.325 N 
HETATM   18  H   UNL     1      29.034  46.995  55.441  1.00  0.00     0.169 HD
HETATM   19  O   UNL     1      26.941  46.859  54.468  1.00  0.00    -0.273 OA
BRANCH  17  20
HETATM   20  C   UNL     1      29.737  45.145  55.934  1.00  0.00     0.073 A 
HETATM   21  C   UNL     1      30.332  44.037  55.338  1.00  0.00     0.033 A 
HETATM   22  C   UNL     1      31.239  43.250  56.064  1.00  0.00     0.002 A 
HETATM   23  C   UNL     1      31.567  43.570  57.383  1.00  0.00     0.003 A 
HETATM   24  C   UNL     1      31.004  44.693  57.979  1.00  0.00     0.044 A 
HETATM   25  C   UNL     1      30.112  45.471  57.250  1.00  0.00     0.143 A 
HETATM   26  F   UNL     1      29.554  46.541  57.839  1.00  0.00    -0.204 F 
ENDBRANCH  17  20
ENDBRANCH  15  16
ENDBRANCH   1  15
TORSDOF 3
ENDMDL
MODEL 4
REMARK VINA RESULT:      -8.2      4.393      7.756
REMARK  3 active torsions:
REMARK  status: ('A' for Active; 'I' for Inactive)
REMARK    1  A    between atoms: C_3  and  N_4 
REMARK       I    between atoms: N_4  and  C_5 
REMARK    2  A    between atoms: C_5  and  C_6 
REMARK    3  A    between atoms: C_6  and  C_7 
ROOT
HETATM    1  C   UNL     1      27.404  43.218  52.938  1.00  0.00     0.286 C 
HETATM    2  N   UNL     1      26.857  41.998  52.184  1.00  0.00    -0.056 N 
HETATM    3  H   UNL     1      27.639  41.367  51.931  1.00  0.00     0.278 HD
HETATM    4  H   UNL     1      26.271  41.438  52.821  1.00  0.00     0.278 HD
HETATM    5  C   UNL     1      26.077  42.427  50.979  1.00  0.00     0.209 C 
HETATM    6  C   UNL     1      24.862  43.242  51.476  1.00  0.00     0.115 C 
HETATM    7  N   UNL     1      25.275  44.359  52.325  1.00  0.00    -0.353 N 
HETATM    8  C   UNL     1      26.306  44.262  53.237  1.00  0.00     0.249 C 
HETATM    9  O   UNL     1      26.370  45.043  54.180  1.00  0.00    -0.271 OA
HETATM   10  C   UNL     1      25.647  41.215  50.165  1.00  0.00     0.035 C 
HETATM   11  C   UNL     1      24.805  41.671  48.972  1.00  0.00     0.002 C 
HETATM   12  C   UNL     1      23.606  42.515  49.410  1.00  0.00     0.002 C 
HETATM   13  C   UNL     1      24.011  43.699  50.292  1.00  0.00     0.027 C 
HETATM   14  H   UNL     1      24.568  45.039  52.601  1.00  0.00     0.163 HD
ENDROOT
BRANCH   1  15
HETATM   15  C   UNL     1      28.109  42.762  54.209  1.00  0.00     0.146 C 
BRANCH  15  16
HETATM   16  C   UNL     1      29.585  42.819  53.949  1.00  0.00     0.224 C 
HETATM   17  N   UNL     1      30.460  43.542  54.684  1.00  0.00    -0.325 N 
HETATM   18  H   UNL     1      31.372  43.608  54.228  1.00  0.00     0.169 HD
HETATM   19  O   UNL     1      29.974  42.374  52.860  1.00  0.00    -0.273 OA
BRANCH  17  20
HETATM   20  C   UNL     1      30.370  44.314  55.858  1.00  0.00     0.073 A 
HETATM   21  C   UNL     1      29.522  45.398  56.068  1.00  0.00     0.033 A 
HETATM   22  C   UNL     1      29.559  46.093  57.287  1.00  0.00     0.002 A 
HETATM   23  C   UNL     1      30.430  45.704  58.305  1.00  0.00     0.003 A 
HETATM   24  C   UNL     1      31.259  44.604  58.119  1.00  0.00     0.044 A 
HETATM   25  C   UNL     1      31.211  43.917  56.912  1.00  0.00     0.143 A 
HETATM   26  F   UNL     1      32.030  42.869  56.730  1.00  0.00    -0.204 F 
ENDBRANCH  17  20
ENDBRANCH  15  16
ENDBRANCH   1  15
TORSDOF 3
ENDMDL
MODEL 5
REMARK VINA RESULT:      -8.1      3.513      4.796
REMARK  3 active torsions:
REMARK  status: ('A' for Active; 'I' for Inactive)
REMARK    1  A    between atoms: C_3  and  N_4 
REMARK       I    between atoms: N_4  and  C_5 
REMARK    2  A    between atoms: C_5  and  C_6 
REMARK    3  A    between atoms: C_6  and  C_7 
ROOT
HETATM    1  C   UNL     1      27.062  44.589  53.386  1.00  0.00     0.286 C 
HETATM    2  N   UNL     1      28.475  43.990  53.358  1.00  0.00    -0.056 N 
HETATM    3  H   UNL     1      28.442  43.045  52.936  1.00  0.00     0.278 HD
HETATM    4  H   UNL     1      29.065  44.538  52.714  1.00  0.00     0.278 HD
HETATM    5  C   UNL     1      29.066  43.965  54.734  1.00  0.00     0.209 C 
HETATM    6  C   UNL     1      29.196  45.428  55.212  1.00  0.00     0.115 C 
HETATM    7  N   UNL     1      27.916  46.133  55.146  1.00  0.00    -0.353 N 
HETATM    8  C   UNL     1      27.017  45.950  54.116  1.00  0.00     0.249 C 
HETATM    9  O   UNL     1      26.173  46.806  53.875  1.00  0.00    -0.271 OA
HETATM   10  C   UNL     1      30.411  43.254  54.723  1.00  0.00     0.035 C 
HETATM   11  C   UNL     1      31.022  43.289  56.124  1.00  0.00     0.002 C 
HETATM   12  C   UNL     1      31.140  44.717  56.660  1.00  0.00     0.002 C 
HETATM   13  C   UNL     1      29.810  45.475  56.612  1.00  0.00     0.027 C 
HETATM   14  H   UNL     1      27.859  47.063  55.560  1.00  0.00     0.163 HD
ENDROOT
BRANCH   1  15
HETATM   15  C   UNL     1      26.521  44.694  51.965  1.00  0.00     0.146 C 
BRANCH  15  16
HETATM   16  C   UNL     1      25.363  43.749  51.855  1.00  0.00     0.224 C 
HETATM   17  N   UNL     1      25.376  42.610  51.125  1.00  0.00    -0.325 N 
HETATM   18  H   UNL     1      24.438  42.220  51.019  1.00  0.00     0.169 HD
HETATM   19  O   UNL     1      24.266  44.164  52.258  1.00  0.00    -0.273 OA
BRANCH  17  20
HETATM   20  C   UNL     1      26.354  41.916  50.388  1.00  0.00     0.073 A 
HETATM   21  C   UNL     1      26.508  41.930  49.005  1.00  0.00     0.033 A 
HETATM   22  C   UNL     1      27.517  41.164  48.401  1.00  0.00     0.002 A 
HETATM   23  C   UNL     1      28.386  40.392  49.174  1.00  0.00     0.003 A 
HETATM   24  C   UNL     1      28.263  40.394  50.558  1.00  0.00     0.044 A 
HETATM   25  C   UNL     1      27.265  41.161  51.147  1.00  0.00     0.143 A 
HETATM   26  F   UNL     1      27.137  41.141  52.484  1.00  0.00    -0.204 F 
ENDBRANCH  17  20
ENDBRANCH  15  16
ENDBRANCH   1  15
TORSDOF 3
ENDMDL
MODEL 6
REMARK VINA RESULT:      -7.9      2.740      7.676
REMARK  3 active torsions:
REMARK  status: ('A' for Active; 'I' for Inactive)
REMARK    1  A    between atoms: C_3  and  N_4 
REMARK       I    between atoms: N_4  and  C_5 
REMARK    2  A    between atoms: C_5  and  C_6 
REMARK    3  A    between atoms: C_6  and  C_7 
ROOT
HETATM    1  C   UNL     1      25.171  47.192  49.991  1.00  0.00     0.286 C 
HETATM    2  N   UNL     1      23.720  47.638  50.214  1.00  0.00    -0.056 N 
HETATM    3  H   UNL     1      23.136  46.814  50.444  1.00  0.00     0.278 HD
HETATM    4  H   UNL     1      23.671  48.230  51.056  1.00  0.00     0.278 HD
HETATM    5  C   UNL     1      23.201  48.370  49.015  1.00  0.00     0.209 C 
HETATM    6  C   UNL     1      24.053  49.648  48.844  1.00  0.00     0.115 C 
HETATM    7  N   UNL     1      25.479  49.336  48.758  1.00  0.00    -0.353 N 
HETATM    8  C   UNL     1      26.076  48.354  49.522  1.00  0.00     0.249 C 
HETATM    9  O   UNL     1      27.284  48.379  49.724  1.00  0.00    -0.271 OA
HETATM   10  C   UNL     1      21.725  48.697  49.188  1.00  0.00     0.035 C 
HETATM   11  C   UNL     1      21.230  49.492  47.979  1.00  0.00     0.002 C 
HETATM   12  C   UNL     1      22.065  50.752  47.745  1.00  0.00     0.002 C 
HETATM   13  C   UNL     1      23.563  50.453  47.640  1.00  0.00     0.027 C 
HETATM   14  H   UNL     1      26.121  50.090  48.514  1.00  0.00     0.163 HD
ENDROOT
BRANCH   1  15
HETATM   15  C   UNL     1      25.708  46.537  51.257  1.00  0.00     0.146 C 
BRANCH  15  16
HETATM   16  C   UNL     1      25.166  45.140  51.304  1.00  0.00     0.224 C 
HETATM   17  N   UNL     1      25.837  44.079  51.810  1.00  0.00    -0.325 N 
HETATM   18  H   UNL     1      25.385  43.196  51.567  1.00  0.00     0.169 HD
HETATM   19  O   UNL     1      24.157  44.912  50.622  1.00  0.00    -0.273 OA
BRANCH  17  20
HETATM   20  C   UNL     1      27.061  43.910  52.484  1.00  0.00     0.073 A 
HETATM   21  C   UNL     1      28.250  43.444  51.929  1.00  0.00     0.033 A 
HETATM   22  C   UNL     1      29.392  43.302  52.731  1.00  0.00     0.002 A 
HETATM   23  C   UNL     1      29.359  43.634  54.086  1.00  0.00     0.003 A 
HETATM   24  C   UNL     1      28.188  44.130  54.645  1.00  0.00     0.044 A 
HETATM   25  C   UNL     1      27.063  44.275  53.842  1.00  0.00     0.143 A 
HETATM   26  F   UNL     1      25.928  44.733  54.393  1.00  0.00    -0.204 F 
ENDBRANCH  17  20
ENDBRANCH  15  16
ENDBRANCH   1  15
TORSDOF 3
ENDMDL
MODEL 7
REMARK VINA RESULT:      -7.7      3.040      3.952
REMARK  3 active torsions:
REMARK  status: ('A' for Active; 'I' for Inactive)
REMARK    1  A    between atoms: C_3  and  N_4 
REMARK       I    between atoms: N_4  and  C_5 
REMARK    2  A    between atoms: C_5  and  C_6 
REMARK    3  A    between atoms: C_6  and  C_7 
ROOT
HETATM    1  C   UNL     1      27.805  42.892  51.913  1.00  0.00     0.286 C 
HETATM    2  N   UNL     1      27.466  43.861  53.054  1.00  0.00    -0.056 N 
HETATM    3  H   UNL     1      26.941  44.670  52.677  1.00  0.00     0.278 HD
HETATM    4  H   UNL     1      26.807  43.406  53.702  1.00  0.00     0.278 HD
HETATM    5  C   UNL     1      28.710  44.290  53.770  1.00  0.00     0.209 C 
HETATM    6  C   UNL     1      29.339  43.031  54.408  1.00  0.00     0.115 C 
HETATM    7  N   UNL     1      29.577  41.985  53.413  1.00  0.00    -0.353 N 
HETATM    8  C   UNL     1      28.697  41.721  52.383  1.00  0.00     0.249 C 
HETATM    9  O   UNL     1      28.710  40.630  51.825  1.00  0.00    -0.271 OA
HETATM   10  C   UNL     1      28.385  45.347  54.815  1.00  0.00     0.035 C 
HETATM   11  C   UNL     1      29.658  45.730  55.571  1.00  0.00     0.002 C 
HETATM   12  C   UNL     1      30.340  44.510  56.194  1.00  0.00     0.002 C 
HETATM   13  C   UNL     1      30.610  43.403  55.171  1.00  0.00     0.027 C 
HETATM   14  H   UNL     1      30.107  41.163  53.699  1.00  0.00     0.163 HD
ENDROOT
BRANCH   1  15
HETATM   15  C   UNL     1      26.520  42.395  51.263  1.00  0.00     0.146 C 
BRANCH  15  16
HETATM   16  C   UNL     1      26.679  42.546  49.780  1.00  0.00     0.224 C 
HETATM   17  N   UNL     1      26.380  43.672  49.093  1.00  0.00    -0.325 N 
HETATM   18  H   UNL     1      26.365  43.506  48.085  1.00  0.00     0.169 HD
HETATM   19  O   UNL     1      26.863  41.506  49.131  1.00  0.00    -0.273 OA
BRANCH  17  20
HETATM   20  C   UNL     1      25.971  44.972  49.448  1.00  0.00     0.073 A 
HETATM   21  C   UNL     1      26.804  46.032  49.794  1.00  0.00     0.033 A 
HETATM   22  C   UNL     1      26.252  47.272  50.152  1.00  0.00     0.002 A 
HETATM   23  C   UNL     1      24.870  47.464  50.156  1.00  0.00     0.003 A 
HETATM   24  C   UNL     1      24.029  46.423  49.782  1.00  0.00     0.044 A 
HETATM   25  C   UNL     1      24.584  45.201  49.421  1.00  0.00     0.143 A 
HETATM   26  F   UNL     1      23.765  44.192  49.083  1.00  0.00    -0.204 F 
ENDBRANCH  17  20
ENDBRANCH  15  16
ENDBRANCH   1  15
TORSDOF 3
ENDMDL
MODEL 8
REMARK VINA RESULT:      -7.6     11.936     13.930
REMARK  3 active torsions:
REMARK  status: ('A' for Active; 'I' for Inactive)
REMARK    1  A    between atoms: C_3  and  N_4 
REMARK       I    between atoms: N_4  and  C_5 
REMARK    2  A    between atoms: C_5  and  C_6 
REMARK    3  A    between atoms: C_6  and  C_7 
ROOT
HETATM    1  C   UNL     1      27.820  50.576  39.486  1.00  0.00     0.286 C 
HETATM    2  N   UNL     1      28.361  49.366  38.711  1.00  0.00    -0.056 N 
HETATM    3  H   UNL     1      28.279  49.542  37.694  1.00  0.00     0.278 HD
HETATM    4  H   UNL     1      29.374  49.280  38.877  1.00  0.00     0.278 HD
HETATM    5  C   UNL     1      27.644  48.115  39.118  1.00  0.00     0.209 C 
HETATM    6  C   UNL     1      27.942  47.872  40.614  1.00  0.00     0.115 C 
HETATM    7  N   UNL     1      27.585  49.033  41.429  1.00  0.00    -0.353 N 
HETATM    8  C   UNL     1      27.796  50.331  41.012  1.00  0.00     0.249 C 
HETATM    9  O   UNL     1      27.863  51.239  41.832  1.00  0.00    -0.271 OA
HETATM   10  C   UNL     1      28.091  46.942  38.257  1.00  0.00     0.035 C 
HETATM   11  C   UNL     1      27.390  45.666  38.724  1.00  0.00     0.002 C 
HETATM   12  C   UNL     1      27.626  45.399  40.212  1.00  0.00     0.002 C 
HETATM   13  C   UNL     1      27.250  46.595  41.091  1.00  0.00     0.027 C 
HETATM   14  H   UNL     1      27.618  48.935  42.443  1.00  0.00     0.163 HD
ENDROOT
BRANCH   1  15
HETATM   15  C   UNL     1      28.628  51.817  39.128  1.00  0.00     0.146 C 
BRANCH  15  16
HETATM   16  C   UNL     1      29.919  51.354  38.524  1.00  0.00     0.224 C 
HETATM   17  N   UNL     1      31.039  51.083  39.234  1.00  0.00    -0.325 N 
HETATM   18  H   UNL     1      31.854  50.980  38.627  1.00  0.00     0.169 HD
HETATM   19  O   UNL     1      30.028  51.463  37.294  1.00  0.00    -0.273 OA
BRANCH  17  20
HETATM   20  C   UNL     1      31.355  51.029  40.604  1.00  0.00     0.073 A 
HETATM   21  C   UNL     1      31.613  52.117  41.433  1.00  0.00     0.033 A 
HETATM   22  C   UNL     1      31.943  51.911  42.782  1.00  0.00     0.002 A 
HETATM   23  C   UNL     1      32.005  50.622  43.313  1.00  0.00     0.003 A 
HETATM   24  C   UNL     1      31.718  49.529  42.503  1.00  0.00     0.044 A 
HETATM   25  C   UNL     1      31.385  49.743  41.171  1.00  0.00     0.143 A 
HETATM   26  F   UNL     1      31.132  48.682  40.388  1.00  0.00    -0.204 F 
ENDBRANCH  17  20
ENDBRANCH  15  16
ENDBRANCH   1  15
TORSDOF 3
ENDMDL
MODEL 9
REMARK VINA RESULT:      -7.6      3.444      5.738
REMARK  3 active torsions:
REMARK  status: ('A' for Active; 'I' for Inactive)
REMARK    1  A    between atoms: C_3  and  N_4 
REMARK       I    between atoms: N_4  and  C_5 
REMARK    2  A    between atoms: C_5  and  C_6 
REMARK    3  A    between atoms: C_6  and  C_7 
ROOT
HETATM    1  C   UNL     1      24.214  46.933  49.654  1.00  0.00     0.286 C 
HETATM    2  N   UNL     1      24.469  47.375  51.101  1.00  0.00    -0.056 N 
HETATM    3  H   UNL     1      24.847  48.339  51.108  1.00  0.00     0.278 HD
HETATM    4  H   UNL     1      23.569  47.449  51.599  1.00  0.00     0.278 HD
HETATM    5  C   UNL     1      25.386  46.413  51.794  1.00  0.00     0.209 C 
HETATM    6  C   UNL     1      24.670  45.045  51.851  1.00  0.00     0.115 C 
HETATM    7  N   UNL     1      24.261  44.597  50.520  1.00  0.00    -0.353 N 
HETATM    8  C   UNL     1      23.766  45.457  49.562  1.00  0.00     0.249 C 
HETATM    9  O   UNL     1      23.081  45.027  48.641  1.00  0.00    -0.271 OA
HETATM   10  C   UNL     1      25.739  46.922  53.184  1.00  0.00     0.035 C 
HETATM   11  C   UNL     1      26.628  45.901  53.894  1.00  0.00     0.002 C 
HETATM   12  C   UNL     1      25.978  44.517  53.946  1.00  0.00     0.002 C 
HETATM   13  C   UNL     1      25.549  44.017  52.563  1.00  0.00     0.027 C 
HETATM   14  H   UNL     1      23.897  43.649  50.425  1.00  0.00     0.163 HD
ENDROOT
BRANCH   1  15
HETATM   15  C   UNL     1      23.205  47.870  49.001  1.00  0.00     0.146 C 
BRANCH  15  16
HETATM   16  C   UNL     1      23.750  49.262  49.110  1.00  0.00     0.224 C 
HETATM   17  N   UNL     1      23.008  50.384  48.964  1.00  0.00    -0.325 N 
HETATM   18  H   UNL     1      23.595  51.215  48.874  1.00  0.00     0.169 HD
HETATM   19  O   UNL     1      24.983  49.380  49.091  1.00  0.00    -0.273 OA
BRANCH  17  20
HETATM   20  C   UNL     1      21.636  50.650  48.789  1.00  0.00     0.073 A 
HETATM   21  C   UNL     1      20.915  50.515  47.606  1.00  0.00     0.033 A 
HETATM   22  C   UNL     1      19.551  50.843  47.573  1.00  0.00     0.002 A 
HETATM   23  C   UNL     1      18.897  51.295  48.720  1.00  0.00     0.003 A 
HETATM   24  C   UNL     1      19.599  51.403  49.915  1.00  0.00     0.044 A 
HETATM   25  C   UNL     1      20.947  51.069  49.941  1.00  0.00     0.143 A 
HETATM   26  F   UNL     1      21.625  51.198  51.092  1.00  0.00    -0.204 F 
ENDBRANCH  17  20
ENDBRANCH  15  16
ENDBRANCH   1  15
TORSDOF 3
ENDMDL
MODEL 10
REMARK VINA RESULT:      -7.5      4.423      8.776
REMARK  3 active torsions:
REMARK  status: ('A' for Active; 'I' for Inactive)
REMARK    1  A    between atoms: C_3  and  N_4 
REMARK       I    between atoms: N_4  and  C_5 
REMARK    2  A    between atoms: C_5  and  C_6 
REMARK    3  A    between atoms: C_6  and  C_7 
ROOT
HETATM    1  C   UNL     1      22.309  48.484  48.458  1.00  0.00     0.286 C 
HETATM    2  N   UNL     1      21.322  48.642  49.622  1.00  0.00    -0.056 N 
HETATM    3  H   UNL     1      20.957  47.712  49.895  1.00  0.00     0.278 HD
HETATM    4  H   UNL     1      21.829  48.974  50.456  1.00  0.00     0.278 HD
HETATM    5  C   UNL     1      20.218  49.586  49.255  1.00  0.00     0.209 C 
HETATM    6  C   UNL     1      20.855  50.971  49.001  1.00  0.00     0.115 C 
HETATM    7  N   UNL     1      21.914  50.901  47.995  1.00  0.00    -0.353 N 
HETATM    8  C   UNL     1      22.799  49.846  47.916  1.00  0.00     0.249 C 
HETATM    9  O   UNL     1      23.879  49.988  47.354  1.00  0.00    -0.271 OA
HETATM   10  C   UNL     1      19.174  49.640  50.361  1.00  0.00     0.035 C 
HETATM   11  C   UNL     1      18.088  50.650  49.992  1.00  0.00     0.002 C 
HETATM   12  C   UNL     1      18.671  52.034  49.695  1.00  0.00     0.002 C 
HETATM   13  C   UNL     1      19.776  51.990  48.636  1.00  0.00     0.027 C 
HETATM   14  H   UNL     1      22.311  51.776  47.655  1.00  0.00     0.163 HD
ENDROOT
BRANCH   1  15
HETATM   15  C   UNL     1      23.472  47.598  48.887  1.00  0.00     0.146 C 
BRANCH  15  16
HETATM   16  C   UNL     1      22.994  46.178  48.843  1.00  0.00     0.224 C 
HETATM   17  N   UNL     1      23.706  45.120  49.295  1.00  0.00    -0.325 N 
HETATM   18  H   UNL     1      23.297  44.234  48.993  1.00  0.00     0.169 HD
HETATM   19  O   UNL     1      22.003  45.947  48.135  1.00  0.00    -0.273 OA
BRANCH  17  20
HETATM   20  C   UNL     1      24.929  44.965  49.975  1.00  0.00     0.073 A 
HETATM   21  C   UNL     1      26.200  45.080  49.420  1.00  0.00     0.033 A 
HETATM   22  C   UNL     1      27.337  44.874  50.216  1.00  0.00     0.002 A 
HETATM   23  C   UNL     1      27.213  44.564  51.571  1.00  0.00     0.003 A 
HETATM   24  C   UNL     1      25.949  44.477  52.145  1.00  0.00     0.044 A 
HETATM   25  C   UNL     1      24.830  44.690  51.350  1.00  0.00     0.143 A 
HETATM   26  F   UNL     1      23.611  44.583  51.904  1.00  0.00    -0.204 F 
ENDBRANCH  17  20
ENDBRANCH  15  16
ENDBRANCH   1  15
TORSDOF 3
ENDMDL
