MODEL 1
REMARK VINA RESULT:     -10.5      0.000      0.000
REMARK  7 active torsions:
REMARK  status: ('A' for Active; 'I' for Inactive)
REMARK    1  A    between atoms: C_4  and  N_5 
REMARK       I    between atoms: N_5  and  C_6 
REMARK    2  A    between atoms: C_6  and  C_7 
REMARK    3  A    between atoms: C_7  and  N_8 
REMARK    4  A    between atoms: N_11  and  C_12 
REMARK    5  A    between atoms: C_12  and  C_13 
REMARK    6  A    between atoms: C_28  and  C_29 
REMARK       I    between atoms: C_29  and  N_30 
REMARK    7  A    between atoms: N_30  and  C_31 
ROOT
HETATM    1  N   UNL     1      26.869  42.541  51.022  1.00  0.00    -0.290 N 
HETATM    2  C   UNL     1      26.171  43.731  51.209  1.00  0.00     0.332 C 
HETATM    3  O   UNL     1      26.360  44.401  52.231  1.00  0.00    -0.246 OA
HETATM    4  N   UNL     1      25.243  44.087  50.243  1.00  0.00    -0.261 N 
HETATM    5  C   UNL     1      24.901  43.258  49.184  1.00  0.00     0.264 C 
HETATM    6  O   UNL     1      23.855  43.333  48.547  1.00  0.00    -0.267 OA
HETATM    7  C   UNL     1      25.832  42.165  48.870  1.00  0.00     0.059 A 
HETATM    8  C   UNL     1      26.787  41.797  49.815  1.00  0.00     0.056 A 
HETATM    9  C   UNL     1      25.674  41.446  47.681  1.00  0.00     0.020 A 
HETATM   10  C   UNL     1      26.454  40.318  47.447  1.00  0.00     0.018 A 
HETATM   11  C   UNL     1      27.404  39.902  48.391  1.00  0.00     0.034 A 
HETATM   12  C   UNL     1      27.593  40.672  49.553  1.00  0.00     0.048 A 
ENDROOT
BRANCH   1  13
HETATM   13  C   UNL     1      27.562  41.993  52.192  1.00  0.00     0.237 C 
BRANCH  13  14
HETATM   14  C   UNL     1      28.676  42.878  52.753  1.00  0.00     0.240 C 
HETATM   15  N   UNL     1      28.340  43.453  53.967  1.00  0.00    -0.325 N 
HETATM   16  H   UNL     1      27.348  43.431  54.205  1.00  0.00     0.169 HD
HETATM   17  O   UNL     1      29.737  42.998  52.146  1.00  0.00    -0.271 OA
BRANCH  15  18
HETATM   18  C   UNL     1      29.203  44.039  54.920  1.00  0.00     0.041 A 
HETATM   19  C   UNL     1      30.255  43.321  55.505  1.00  0.00     0.037 A 
HETATM   20  C   UNL     1      31.040  43.881  56.525  1.00  0.00    -0.060 A 
HETATM   21  C   UNL     1      32.116  43.079  57.197  1.00  0.00     0.048 C 
HETATM   22  C   UNL     1      30.766  45.179  56.959  1.00  0.00     0.007 A 
HETATM   23  C   UNL     1      29.734  45.911  56.374  1.00  0.00     0.009 A 
HETATM   24  C   UNL     1      28.944  45.356  55.353  1.00  0.00    -0.035 A 
HETATM   25  C   UNL     1      27.840  46.196  54.768  1.00  0.00     0.050 C 
ENDBRANCH  15  18
ENDBRANCH  13  14
ENDBRANCH   1  13
BRANCH   4  26
HETATM   26  C   UNL     1      24.304  45.155  50.579  1.00  0.00     0.175 C 
BRANCH  26  27
HETATM   27  C   UNL     1      24.600  46.493  49.935  1.00  0.00    -0.037 A 
HETATM   28  C   UNL     1      25.916  46.970  49.841  1.00  0.00     0.048 A 
HETATM   29  C   UNL     1      26.112  48.223  49.292  1.00  0.00     0.105 A 
HETATM   30  C   UNL     1      25.066  48.989  48.834  1.00  0.00     0.105 A 
HETATM   31  O   UNL     1      27.311  48.848  49.147  1.00  0.00    -0.323 OA
HETATM   32  O   UNL     1      25.474  50.190  48.342  1.00  0.00    -0.323 OA
HETATM   33  C   UNL     1      23.765  48.552  48.895  1.00  0.00     0.040 A 
HETATM   34  C   UNL     1      26.897  50.101  48.561  1.00  0.00     0.352 A 
HETATM   35  C   UNL     1      23.534  47.294  49.454  1.00  0.00     0.012 A 
ENDBRANCH  26  27
ENDBRANCH   4  26
BRANCH  11  36
HETATM   36  C   UNL     1      28.074  38.587  48.137  1.00  0.00     0.252 C 
HETATM   37  N   UNL     1      27.556  37.764  47.156  1.00  0.00    -0.352 N 
HETATM   38  H   UNL     1      26.730  38.032  46.647  1.00  0.00     0.163 HD
HETATM   39  O   UNL     1      29.102  38.311  48.751  1.00  0.00    -0.268 OA
BRANCH  37  40
HETATM   40  C   UNL     1      28.391  36.734  46.538  1.00  0.00     0.084 C 
HETATM   41  C   UNL     1      27.569  35.497  46.165  1.00  0.00     0.025 C 
HETATM   42  C   UNL     1      26.636  35.732  44.978  1.00  0.00     0.002 C 
HETATM   43  C   UNL     1      27.377  36.309  43.775  1.00  0.00     0.000 C 
HETATM   44  C   UNL     1      28.159  37.567  44.142  1.00  0.00     0.002 C 
HETATM   45  C   UNL     1      29.113  37.314  45.311  1.00  0.00     0.025 C 
ENDBRANCH  37  40
ENDBRANCH  11  36
TORSDOF 7
ENDMDL
MODEL 2
REMARK VINA RESULT:     -10.4      2.349      3.497
REMARK  7 active torsions:
REMARK  status: ('A' for Active; 'I' for Inactive)
REMARK    1  A    between atoms: C_4  and  N_5 
REMARK       I    between atoms: N_5  and  C_6 
REMARK    2  A    between atoms: C_6  and  C_7 
REMARK    3  A    between atoms: C_7  and  N_8 
REMARK    4  A    between atoms: N_11  and  C_12 
REMARK    5  A    between atoms: C_12  and  C_13 
REMARK    6  A    between atoms: C_28  and  C_29 
REMARK       I    between atoms: C_29  and  N_30 
REMARK    7  A    between atoms: N_30  and  C_31 
ROOT
HETATM    1  N   UNL     1      24.490  42.778  49.767  1.00  0.00    -0.290 N 
HETATM    2  C   UNL     1      23.477  43.716  49.949  1.00  0.00     0.332 C 
HETATM    3  O   UNL     1      23.332  44.259  51.049  1.00  0.00    -0.246 OA
HETATM    4  N   UNL     1      22.633  43.961  48.877  1.00  0.00    -0.261 N 
HETATM    5  C   UNL     1      22.680  43.231  47.697  1.00  0.00     0.264 C 
HETATM    6  O   UNL     1      21.752  43.131  46.900  1.00  0.00    -0.267 OA
HETATM    7  C   UNL     1      23.906  42.463  47.442  1.00  0.00     0.059 A 
HETATM    8  C   UNL     1      24.782  42.216  48.496  1.00  0.00     0.056 A 
HETATM    9  C   UNL     1      24.116  41.904  46.178  1.00  0.00     0.020 A 
HETATM   10  C   UNL     1      25.197  41.053  45.970  1.00  0.00     0.018 A 
HETATM   11  C   UNL     1      26.083  40.759  47.018  1.00  0.00     0.034 A 
HETATM   12  C   UNL     1      25.891  41.379  48.266  1.00  0.00     0.048 A 
ENDROOT
BRANCH   1  13
HETATM   13  C   UNL     1      25.134  42.261  50.978  1.00  0.00     0.237 C 
BRANCH  13  14
HETATM   14  C   UNL     1      26.269  43.129  51.524  1.00  0.00     0.240 C 
HETATM   15  N   UNL     1      26.427  43.001  52.893  1.00  0.00    -0.325 N 
HETATM   16  H   UNL     1      25.646  42.569  53.388  1.00  0.00     0.169 HD
HETATM   17  O   UNL     1      26.940  43.822  50.763  1.00  0.00    -0.271 OA
BRANCH  15  18
HETATM   18  C   UNL     1      27.542  43.371  53.678  1.00  0.00     0.041 A 
HETATM   19  C   UNL     1      27.619  44.620  54.310  1.00  0.00     0.037 A 
HETATM   20  C   UNL     1      28.775  45.016  55.000  1.00  0.00    -0.060 A 
HETATM   21  C   UNL     1      28.877  46.385  55.609  1.00  0.00     0.048 C 
HETATM   22  C   UNL     1      29.864  44.146  55.059  1.00  0.00     0.007 A 
HETATM   23  C   UNL     1      29.794  42.894  54.451  1.00  0.00     0.009 A 
HETATM   24  C   UNL     1      28.641  42.490  53.758  1.00  0.00    -0.035 A 
HETATM   25  C   UNL     1      28.632  41.129  53.117  1.00  0.00     0.050 C 
ENDBRANCH  15  18
ENDBRANCH  13  14
ENDBRANCH   1  13
BRANCH   4  26
HETATM   26  C   UNL     1      21.402  44.699  49.151  1.00  0.00     0.175 C 
BRANCH  26  27
HETATM   27  C   UNL     1      21.410  46.145  48.700  1.00  0.00    -0.037 A 
HETATM   28  C   UNL     1      22.616  46.847  48.559  1.00  0.00     0.048 A 
HETATM   29  C   UNL     1      22.551  48.179  48.198  1.00  0.00     0.105 A 
HETATM   30  C   UNL     1      21.352  48.812  47.964  1.00  0.00     0.105 A 
HETATM   31  O   UNL     1      23.613  49.013  48.040  1.00  0.00    -0.323 OA
HETATM   32  O   UNL     1      21.509  50.122  47.630  1.00  0.00    -0.323 OA
HETATM   33  C   UNL     1      20.150  48.156  48.077  1.00  0.00     0.040 A 
HETATM   34  C   UNL     1      22.944  50.246  47.699  1.00  0.00     0.352 A 
HETATM   35  C   UNL     1      20.184  46.811  48.451  1.00  0.00     0.012 A 
ENDBRANCH  26  27
ENDBRANCH   4  26
BRANCH  11  36
HETATM   36  C   UNL     1      27.112  39.704  46.753  1.00  0.00     0.252 C 
HETATM   37  N   UNL     1      28.019  39.406  47.751  1.00  0.00    -0.352 N 
HETATM   38  H   UNL     1      28.005  39.909  48.623  1.00  0.00     0.163 HD
HETATM   39  O   UNL     1      27.075  39.084  45.693  1.00  0.00    -0.268 OA
BRANCH  37  40
HETATM   40  C   UNL     1      28.713  38.118  47.760  1.00  0.00     0.084 C 
HETATM   41  C   UNL     1      29.901  38.128  48.727  1.00  0.00     0.025 C 
HETATM   42  C   UNL     1      29.479  38.134  50.195  1.00  0.00     0.002 C 
HETATM   43  C   UNL     1      28.497  37.011  50.511  1.00  0.00     0.000 C 
HETATM   44  C   UNL     1      27.293  37.031  49.574  1.00  0.00     0.002 C 
HETATM   45  C   UNL     1      27.723  36.994  48.107  1.00  0.00     0.025 C 
ENDBRANCH  37  40
ENDBRANCH  11  36
TORSDOF 7
ENDMDL
MODEL 3
REMARK VINA RESULT:     -10.4      4.754     10.023
REMARK  7 active torsions:
REMARK  status: ('A' for Active; 'I' for Inactive)
REMARK    1  A    between atoms: C_4  and  N_5 
REMARK       I    between atoms: N_5  and  C_6 
REMARK    2  A    between atoms: C_6  and  C_7 
REMARK    3  A    between atoms: C_7  and  N_8 
REMARK    4  A    between atoms: N_11  and  C_12 
REMARK    5  A    between atoms: C_12  and  C_13 
REMARK    6  A    between atoms: C_28  and  C_29 
REMARK       I    between atoms: C_29  and  N_30 
REMARK    7  A    between atoms: N_30  and  C_31 
ROOT
HETATM    1  N   UNL     1      22.895  46.030  48.153  1.00  0.00    -0.290 N 
HETATM    2  C   UNL     1      22.328  47.240  47.760  1.00  0.00     0.332 C 
HETATM    3  O   UNL     1      21.476  47.259  46.865  1.00  0.00    -0.246 OA
HETATM    4  N   UNL     1      22.793  48.393  48.372  1.00  0.00    -0.261 N 
HETATM    5  C   UNL     1      23.868  48.399  49.251  1.00  0.00     0.264 C 
HETATM    6  O   UNL     1      24.553  49.384  49.510  1.00  0.00    -0.267 OA
HETATM    7  C   UNL     1      24.249  47.109  49.841  1.00  0.00     0.059 A 
HETATM    8  C   UNL     1      23.782  45.933  49.257  1.00  0.00     0.056 A 
HETATM    9  C   UNL     1      25.157  47.080  50.904  1.00  0.00     0.020 A 
HETATM   10  C   UNL     1      25.637  45.859  51.369  1.00  0.00     0.018 A 
HETATM   11  C   UNL     1      25.210  44.658  50.785  1.00  0.00     0.034 A 
HETATM   12  C   UNL     1      24.250  44.703  49.757  1.00  0.00     0.048 A 
ENDROOT
BRANCH   1  13
HETATM   13  C   UNL     1      22.673  44.882  47.269  1.00  0.00     0.237 C 
BRANCH  13  14
HETATM   14  C   UNL     1      21.212  44.457  47.119  1.00  0.00     0.240 C 
HETATM   15  N   UNL     1      20.757  44.563  45.816  1.00  0.00    -0.325 N 
HETATM   16  H   UNL     1      21.335  45.127  45.192  1.00  0.00     0.169 HD
HETATM   17  O   UNL     1      20.581  44.054  48.093  1.00  0.00    -0.271 OA
BRANCH  15  18
HETATM   18  C   UNL     1      19.610  43.969  45.245  1.00  0.00     0.041 A 
HETATM   19  C   UNL     1      19.653  42.700  44.650  1.00  0.00     0.037 A 
HETATM   20  C   UNL     1      18.534  42.165  43.994  1.00  0.00    -0.060 A 
HETATM   21  C   UNL     1      18.612  40.838  43.296  1.00  0.00     0.048 C 
HETATM   22  C   UNL     1      17.356  42.911  43.939  1.00  0.00     0.007 A 
HETATM   23  C   UNL     1      17.293  44.167  44.541  1.00  0.00     0.009 A 
HETATM   24  C   UNL     1      18.410  44.709  45.199  1.00  0.00    -0.035 A 
HETATM   25  C   UNL     1      18.279  46.073  45.822  1.00  0.00     0.050 C 
ENDBRANCH  15  18
ENDBRANCH  13  14
ENDBRANCH   1  13
BRANCH   4  26
HETATM   26  C   UNL     1      22.432  49.668  47.758  1.00  0.00     0.175 C 
BRANCH  26  27
HETATM   27  C   UNL     1      21.201  50.332  48.340  1.00  0.00    -0.037 A 
HETATM   28  C   UNL     1      20.109  50.661  47.524  1.00  0.00     0.048 A 
HETATM   29  C   UNL     1      19.040  51.315  48.106  1.00  0.00     0.105 A 
HETATM   30  C   UNL     1      19.021  51.631  49.445  1.00  0.00     0.105 A 
HETATM   31  O   UNL     1      17.915  51.728  47.464  1.00  0.00    -0.323 OA
HETATM   32  O   UNL     1      17.884  52.280  49.813  1.00  0.00    -0.323 OA
HETATM   33  C   UNL     1      20.065  51.313  50.280  1.00  0.00     0.040 A 
HETATM   34  C   UNL     1      17.196  52.355  48.548  1.00  0.00     0.352 A 
HETATM   35  C   UNL     1      21.164  50.661  49.719  1.00  0.00     0.012 A 
ENDBRANCH  26  27
ENDBRANCH   4  26
BRANCH  11  36
HETATM   36  C   UNL     1      25.906  43.408  51.229  1.00  0.00     0.252 C 
HETATM   37  N   UNL     1      27.051  43.529  51.993  1.00  0.00    -0.352 N 
HETATM   38  H   UNL     1      27.422  44.438  52.217  1.00  0.00     0.163 HD
HETATM   39  O   UNL     1      25.402  42.318  50.970  1.00  0.00    -0.268 OA
BRANCH  37  40
HETATM   40  C   UNL     1      27.498  42.421  52.837  1.00  0.00     0.084 C 
HETATM   41  C   UNL     1      28.897  41.943  52.439  1.00  0.00     0.025 C 
HETATM   42  C   UNL     1      29.999  42.932  52.814  1.00  0.00     0.002 C 
HETATM   43  C   UNL     1      29.930  43.332  54.285  1.00  0.00     0.000 C 
HETATM   44  C   UNL     1      28.546  43.850  54.667  1.00  0.00     0.002 C 
HETATM   45  C   UNL     1      27.452  42.840  54.316  1.00  0.00     0.025 C 
ENDBRANCH  37  40
ENDBRANCH  11  36
TORSDOF 7
ENDMDL
MODEL 4
REMARK VINA RESULT:     -10.4      4.084      9.348
REMARK  7 active torsions:
REMARK  status: ('A' for Active; 'I' for Inactive)
REMARK    1  A    between atoms: C_4  and  N_5 
REMARK       I    between atoms: N_5  and  C_6 
REMARK    2  A    between atoms: C_6  and  C_7 
REMARK    3  A    between atoms: C_7  and  N_8 
REMARK    4  A    between atoms: N_11  and  C_12 
REMARK    5  A    between atoms: C_12  and  C_13 
REMARK    6  A    between atoms: C_28  and  C_29 
REMARK       I    between atoms: C_29  and  N_30 
REMARK    7  A    between atoms: N_30  and  C_31 
ROOT
HETATM    1  N   UNL     1      23.046  45.784  47.937  1.00  0.00    -0.290 N 
HETATM    2  C   UNL     1      22.343  46.936  47.594  1.00  0.00     0.332 C 
HETATM    3  O   UNL     1      21.610  46.936  46.599  1.00  0.00    -0.246 OA
HETATM    4  N   UNL     1      22.544  48.064  48.373  1.00  0.00    -0.261 N 
HETATM    5  C   UNL     1      23.493  48.123  49.385  1.00  0.00     0.264 C 
HETATM    6  O   UNL     1      23.977  49.160  49.829  1.00  0.00    -0.267 OA
HETATM    7  C   UNL     1      24.004  46.841  49.889  1.00  0.00     0.059 A 
HETATM    8  C   UNL     1      23.802  45.688  49.135  1.00  0.00     0.056 A 
HETATM    9  C   UNL     1      24.774  46.820  51.056  1.00  0.00     0.020 A 
HETATM   10  C   UNL     1      25.385  45.636  51.458  1.00  0.00     0.018 A 
HETATM   11  C   UNL     1      25.226  44.462  50.706  1.00  0.00     0.034 A 
HETATM   12  C   UNL     1      24.398  44.488  49.569  1.00  0.00     0.048 A 
ENDROOT
BRANCH   1  13
HETATM   13  C   UNL     1      23.115  44.728  46.923  1.00  0.00     0.237 C 
BRANCH  13  14
HETATM   14  C   UNL     1      22.050  43.639  47.054  1.00  0.00     0.240 C 
HETATM   15  N   UNL     1      22.168  42.658  46.084  1.00  0.00    -0.325 N 
HETATM   16  H   UNL     1      22.753  42.900  45.283  1.00  0.00     0.169 HD
HETATM   17  O   UNL     1      21.226  43.684  47.964  1.00  0.00    -0.271 OA
BRANCH  15  18
HETATM   18  C   UNL     1      21.599  41.366  46.080  1.00  0.00     0.041 A 
HETATM   19  C   UNL     1      20.532  41.029  45.235  1.00  0.00     0.037 A 
HETATM   20  C   UNL     1      19.908  39.775  45.315  1.00  0.00    -0.060 A 
HETATM   21  C   UNL     1      18.718  39.451  44.457  1.00  0.00     0.048 C 
HETATM   22  C   UNL     1      20.363  38.846  46.251  1.00  0.00     0.007 A 
HETATM   23  C   UNL     1      21.435  39.160  47.085  1.00  0.00     0.009 A 
HETATM   24  C   UNL     1      22.064  40.414  47.012  1.00  0.00    -0.035 A 
HETATM   25  C   UNL     1      23.211  40.694  47.946  1.00  0.00     0.050 C 
ENDBRANCH  15  18
ENDBRANCH  13  14
ENDBRANCH   1  13
BRANCH   4  26
HETATM   26  C   UNL     1      22.058  49.337  47.845  1.00  0.00     0.175 C 
BRANCH  26  27
HETATM   27  C   UNL     1      20.783  49.849  48.483  1.00  0.00    -0.037 A 
HETATM   28  C   UNL     1      20.304  51.136  48.199  1.00  0.00     0.048 A 
HETATM   29  C   UNL     1      19.166  51.563  48.856  1.00  0.00     0.105 A 
HETATM   30  C   UNL     1      18.501  50.762  49.755  1.00  0.00     0.105 A 
HETATM   31  O   UNL     1      18.579  52.782  48.720  1.00  0.00    -0.323 OA
HETATM   32  O   UNL     1      17.413  51.375  50.296  1.00  0.00    -0.323 OA
HETATM   33  C   UNL     1      18.929  49.490  50.050  1.00  0.00     0.040 A 
HETATM   34  C   UNL     1      17.481  52.662  49.649  1.00  0.00     0.352 A 
HETATM   35  C   UNL     1      20.082  49.034  49.409  1.00  0.00     0.012 A 
ENDBRANCH  26  27
ENDBRANCH   4  26
BRANCH  11  36
HETATM   36  C   UNL     1      26.055  43.284  51.115  1.00  0.00     0.252 C 
HETATM   37  N   UNL     1      27.066  43.479  52.036  1.00  0.00    -0.352 N 
HETATM   38  H   UNL     1      27.257  44.398  52.400  1.00  0.00     0.163 HD
HETATM   39  O   UNL     1      25.769  42.171  50.680  1.00  0.00    -0.268 OA
BRANCH  37  40
HETATM   40  C   UNL     1      27.581  42.355  52.819  1.00  0.00     0.084 C 
HETATM   41  C   UNL     1      29.002  41.978  52.390  1.00  0.00     0.025 C 
HETATM   42  C   UNL     1      30.048  43.008  52.814  1.00  0.00     0.002 C 
HETATM   43  C   UNL     1      29.966  43.324  54.304  1.00  0.00     0.000 C 
HETATM   44  C   UNL     1      28.559  43.741  54.718  1.00  0.00     0.002 C 
HETATM   45  C   UNL     1      27.522  42.691  54.317  1.00  0.00     0.025 C 
ENDBRANCH  37  40
ENDBRANCH  11  36
TORSDOF 7
ENDMDL
MODEL 5
REMARK VINA RESULT:     -10.2      2.521      8.959
REMARK  7 active torsions:
REMARK  status: ('A' for Active; 'I' for Inactive)
REMARK    1  A    between atoms: C_4  and  N_5 
REMARK       I    between atoms: N_5  and  C_6 
REMARK    2  A    between atoms: C_6  and  C_7 
REMARK    3  A    between atoms: C_7  and  N_8 
REMARK    4  A    between atoms: N_11  and  C_12 
REMARK    5  A    between atoms: C_12  and  C_13 
REMARK    6  A    between atoms: C_28  and  C_29 
REMARK       I    between atoms: C_29  and  N_30 
REMARK    7  A    between atoms: N_30  and  C_31 
ROOT
HETATM    1  N   UNL     1      25.645  41.200  48.432  1.00  0.00    -0.290 N 
HETATM    2  C   UNL     1      25.732  40.683  47.142  1.00  0.00     0.332 C 
HETATM    3  O   UNL     1      24.853  40.944  46.313  1.00  0.00    -0.246 OA
HETATM    4  N   UNL     1      26.798  39.842  46.861  1.00  0.00    -0.261 N 
HETATM    5  C   UNL     1      27.691  39.407  47.831  1.00  0.00     0.264 C 
HETATM    6  O   UNL     1      28.386  38.399  47.739  1.00  0.00    -0.267 OA
HETATM    7  C   UNL     1      27.734  40.172  49.084  1.00  0.00     0.059 A 
HETATM    8  C   UNL     1      26.685  41.037  49.385  1.00  0.00     0.056 A 
HETATM    9  C   UNL     1      28.765  39.937  49.999  1.00  0.00     0.020 A 
HETATM   10  C   UNL     1      28.731  40.546  51.249  1.00  0.00     0.018 A 
HETATM   11  C   UNL     1      27.675  41.401  51.596  1.00  0.00     0.034 A 
HETATM   12  C   UNL     1      26.677  41.674  50.641  1.00  0.00     0.048 A 
ENDROOT
BRANCH   1  13
HETATM   13  C   UNL     1      24.355  41.775  48.824  1.00  0.00     0.237 C 
BRANCH  13  14
HETATM   14  C   UNL     1      24.213  43.275  48.565  1.00  0.00     0.240 C 
HETATM   15  N   UNL     1      24.508  44.040  49.680  1.00  0.00    -0.325 N 
HETATM   16  H   UNL     1      24.531  43.535  50.567  1.00  0.00     0.169 HD
HETATM   17  O   UNL     1      23.889  43.684  47.452  1.00  0.00    -0.271 OA
BRANCH  15  18
HETATM   18  C   UNL     1      24.805  45.420  49.735  1.00  0.00     0.041 A 
HETATM   19  C   UNL     1      23.812  46.396  49.568  1.00  0.00     0.037 A 
HETATM   20  C   UNL     1      24.135  47.761  49.520  1.00  0.00    -0.060 A 
HETATM   21  C   UNL     1      23.076  48.794  49.266  1.00  0.00     0.048 C 
HETATM   22  C   UNL     1      25.469  48.150  49.645  1.00  0.00     0.007 A 
HETATM   23  C   UNL     1      26.464  47.191  49.830  1.00  0.00     0.009 A 
HETATM   24  C   UNL     1      26.149  45.823  49.878  1.00  0.00    -0.035 A 
HETATM   25  C   UNL     1      27.270  44.838  50.072  1.00  0.00     0.050 C 
ENDBRANCH  15  18
ENDBRANCH  13  14
ENDBRANCH   1  13
BRANCH   4  26
HETATM   26  C   UNL     1      26.729  39.065  45.627  1.00  0.00     0.175 C 
BRANCH  26  27
HETATM   27  C   UNL     1      27.834  39.346  44.631  1.00  0.00    -0.037 A 
HETATM   28  C   UNL     1      28.680  38.318  44.186  1.00  0.00     0.048 A 
HETATM   29  C   UNL     1      29.703  38.651  43.320  1.00  0.00     0.105 A 
HETATM   30  C   UNL     1      29.897  39.941  42.884  1.00  0.00     0.105 A 
HETATM   31  O   UNL     1      30.625  37.791  42.811  1.00  0.00    -0.323 OA
HETATM   32  O   UNL     1      30.963  40.055  42.046  1.00  0.00    -0.323 OA
HETATM   33  C   UNL     1      29.083  40.973  43.284  1.00  0.00     0.040 A 
HETATM   34  C   UNL     1      31.431  38.691  42.020  1.00  0.00     0.352 A 
HETATM   35  C   UNL     1      28.045  40.669  44.168  1.00  0.00     0.012 A 
ENDBRANCH  26  27
ENDBRANCH   4  26
BRANCH  11  36
HETATM   36  C   UNL     1      27.629  41.873  53.016  1.00  0.00     0.252 C 
HETATM   37  N   UNL     1      27.568  43.233  53.255  1.00  0.00    -0.352 N 
HETATM   38  H   UNL     1      27.585  43.888  52.491  1.00  0.00     0.163 HD
HETATM   39  O   UNL     1      27.571  41.045  53.921  1.00  0.00    -0.268 OA
BRANCH  37  40
HETATM   40  C   UNL     1      27.054  43.738  54.529  1.00  0.00     0.084 C 
HETATM   41  C   UNL     1      27.802  44.998  54.974  1.00  0.00     0.025 C 
HETATM   42  C   UNL     1      27.466  46.225  54.126  1.00  0.00     0.002 C 
HETATM   43  C   UNL     1      25.961  46.457  54.031  1.00  0.00     0.000 C 
HETATM   44  C   UNL     1      25.225  45.212  53.545  1.00  0.00     0.002 C 
HETATM   45  C   UNL     1      25.543  43.996  54.417  1.00  0.00     0.025 C 
ENDBRANCH  37  40
ENDBRANCH  11  36
TORSDOF 7
ENDMDL
MODEL 6
REMARK VINA RESULT:     -10.2      2.717      8.834
REMARK  7 active torsions:
REMARK  status: ('A' for Active; 'I' for Inactive)
REMARK    1  A    between atoms: C_4  and  N_5 
REMARK       I    between atoms: N_5  and  C_6 
REMARK    2  A    between atoms: C_6  and  C_7 
REMARK    3  A    between atoms: C_7  and  N_8 
REMARK    4  A    between atoms: N_11  and  C_12 
REMARK    5  A    between atoms: C_12  and  C_13 
REMARK    6  A    between atoms: C_28  and  C_29 
REMARK       I    between atoms: C_29  and  N_30 
REMARK    7  A    between atoms: N_30  and  C_31 
ROOT
HETATM    1  N   UNL     1      25.321  44.636  50.180  1.00  0.00    -0.290 N 
HETATM    2  C   UNL     1      25.414  43.252  50.060  1.00  0.00     0.332 C 
HETATM    3  O   UNL     1      26.283  42.637  50.689  1.00  0.00    -0.246 OA
HETATM    4  N   UNL     1      24.541  42.625  49.185  1.00  0.00    -0.261 N 
HETATM    5  C   UNL     1      23.682  43.324  48.348  1.00  0.00     0.264 C 
HETATM    6  O   UNL     1      23.191  42.873  47.316  1.00  0.00    -0.267 OA
HETATM    7  C   UNL     1      23.418  44.728  48.691  1.00  0.00     0.059 A 
HETATM    8  C   UNL     1      24.269  45.378  49.582  1.00  0.00     0.056 A 
HETATM    9  C   UNL     1      22.390  45.414  48.038  1.00  0.00     0.020 A 
HETATM   10  C   UNL     1      22.230  46.780  48.247  1.00  0.00     0.018 A 
HETATM   11  C   UNL     1      23.087  47.472  49.115  1.00  0.00     0.034 A 
HETATM   12  C   UNL     1      24.077  46.755  49.811  1.00  0.00     0.048 A 
ENDROOT
BRANCH   1  13
HETATM   13  C   UNL     1      26.456  45.320  50.807  1.00  0.00     0.237 C 
BRANCH  13  14
HETATM   14  C   UNL     1      26.735  44.911  52.253  1.00  0.00     0.240 C 
HETATM   15  N   UNL     1      27.993  44.358  52.418  1.00  0.00    -0.325 N 
HETATM   16  H   UNL     1      28.461  44.065  51.560  1.00  0.00     0.169 HD
HETATM   17  O   UNL     1      25.892  45.105  53.126  1.00  0.00    -0.271 OA
BRANCH  15  18
HETATM   18  C   UNL     1      28.712  44.176  53.620  1.00  0.00     0.041 A 
HETATM   19  C   UNL     1      28.706  45.140  54.639  1.00  0.00     0.037 A 
HETATM   20  C   UNL     1      29.506  44.995  55.783  1.00  0.00    -0.060 A 
HETATM   21  C   UNL     1      29.549  46.067  56.833  1.00  0.00     0.048 C 
HETATM   22  C   UNL     1      30.319  43.868  55.907  1.00  0.00     0.007 A 
HETATM   23  C   UNL     1      30.322  42.893  54.910  1.00  0.00     0.009 A 
HETATM   24  C   UNL     1      29.524  43.031  53.762  1.00  0.00    -0.035 A 
HETATM   25  C   UNL     1      29.579  41.947  52.719  1.00  0.00     0.050 C 
ENDBRANCH  15  18
ENDBRANCH  13  14
ENDBRANCH   1  13
BRANCH   4  26
HETATM   26  C   UNL     1      24.833  41.239  48.828  1.00  0.00     0.175 C 
BRANCH  26  27
HETATM   27  C   UNL     1      25.836  41.065  47.707  1.00  0.00    -0.037 A 
HETATM   28  C   UNL     1      25.412  40.773  46.402  1.00  0.00     0.048 A 
HETATM   29  C   UNL     1      26.380  40.572  45.437  1.00  0.00     0.105 A 
HETATM   30  C   UNL     1      27.723  40.662  45.722  1.00  0.00     0.105 A 
HETATM   31  O   UNL     1      26.151  40.259  44.134  1.00  0.00    -0.323 OA
HETATM   32  O   UNL     1      28.505  40.419  44.637  1.00  0.00    -0.323 OA
HETATM   33  C   UNL     1      28.178  40.960  46.985  1.00  0.00     0.040 A 
HETATM   34  C   UNL     1      27.502  40.146  43.638  1.00  0.00     0.352 A 
HETATM   35  C   UNL     1      27.224  41.159  47.983  1.00  0.00     0.012 A 
ENDBRANCH  26  27
ENDBRANCH   4  26
BRANCH  11  36
HETATM   36  C   UNL     1      22.952  48.963  49.147  1.00  0.00     0.252 C 
HETATM   37  N   UNL     1      21.736  49.522  48.803  1.00  0.00    -0.352 N 
HETATM   38  H   UNL     1      20.970  48.938  48.509  1.00  0.00     0.163 HD
HETATM   39  O   UNL     1      23.895  49.641  49.548  1.00  0.00    -0.268 OA
BRANCH  37  40
HETATM   40  C   UNL     1      21.387  50.869  49.253  1.00  0.00     0.084 C 
HETATM   41  C   UNL     1      20.486  51.582  48.239  1.00  0.00     0.025 C 
HETATM   42  C   UNL     1      19.068  51.015  48.195  1.00  0.00     0.002 C 
HETATM   43  C   UNL     1      18.433  50.958  49.581  1.00  0.00     0.000 C 
HETATM   44  C   UNL     1      19.313  50.209  50.577  1.00  0.00     0.002 C 
HETATM   45  C   UNL     1      20.722  50.802  50.637  1.00  0.00     0.025 C 
ENDBRANCH  37  40
ENDBRANCH  11  36
TORSDOF 7
ENDMDL
MODEL 7
REMARK VINA RESULT:     -10.1      8.738     15.929
REMARK  7 active torsions:
REMARK  status: ('A' for Active; 'I' for Inactive)
REMARK    1  A    between atoms: C_4  and  N_5 
REMARK       I    between atoms: N_5  and  C_6 
REMARK    2  A    between atoms: C_6  and  C_7 
REMARK    3  A    between atoms: C_7  and  N_8 
REMARK    4  A    between atoms: N_11  and  C_12 
REMARK    5  A    between atoms: C_12  and  C_13 
REMARK    6  A    between atoms: C_28  and  C_29 
REMARK       I    between atoms: C_29  and  N_30 
REMARK    7  A    between atoms: N_30  and  C_31 
ROOT
HETATM    1  N   UNL     1      17.655  49.701  47.391  1.00  0.00    -0.290 N 
HETATM    2  C   UNL     1      18.832  48.968  47.527  1.00  0.00     0.332 C 
HETATM    3  O   UNL     1      19.074  48.043  46.744  1.00  0.00    -0.246 OA
HETATM    4  N   UNL     1      19.665  49.287  48.587  1.00  0.00    -0.261 N 
HETATM    5  C   UNL     1      19.319  50.205  49.569  1.00  0.00     0.264 C 
HETATM    6  O   UNL     1      19.809  50.243  50.694  1.00  0.00    -0.267 OA
HETATM    7  C   UNL     1      18.228  51.136  49.251  1.00  0.00     0.059 A 
HETATM    8  C   UNL     1      17.385  50.850  48.180  1.00  0.00     0.056 A 
HETATM    9  C   UNL     1      17.990  52.229  50.090  1.00  0.00     0.020 A 
HETATM   10  C   UNL     1      16.870  53.029  49.881  1.00  0.00     0.018 A 
HETATM   11  C   UNL     1      15.984  52.752  48.830  1.00  0.00     0.034 A 
HETATM   12  C   UNL     1      16.272  51.685  47.958  1.00  0.00     0.048 A 
ENDROOT
BRANCH   1  13
HETATM   13  C   UNL     1      16.625  49.136  46.515  1.00  0.00     0.237 C 
BRANCH  13  14
HETATM   14  C   UNL     1      16.410  49.891  45.203  1.00  0.00     0.240 C 
HETATM   15  N   UNL     1      17.447  50.760  44.911  1.00  0.00    -0.325 N 
HETATM   16  H   UNL     1      18.072  50.977  45.689  1.00  0.00     0.169 HD
HETATM   17  O   UNL     1      15.409  49.679  44.523  1.00  0.00    -0.271 OA
BRANCH  15  18
HETATM   18  C   UNL     1      17.756  51.359  43.670  1.00  0.00     0.041 A 
HETATM   19  C   UNL     1      18.672  50.782  42.779  1.00  0.00     0.037 A 
HETATM   20  C   UNL     1      19.049  51.438  41.597  1.00  0.00    -0.060 A 
HETATM   21  C   UNL     1      20.087  50.847  40.686  1.00  0.00     0.048 C 
HETATM   22  C   UNL     1      18.497  52.685  41.304  1.00  0.00     0.007 A 
HETATM   23  C   UNL     1      17.571  53.262  42.172  1.00  0.00     0.009 A 
HETATM   24  C   UNL     1      17.189  52.612  43.358  1.00  0.00    -0.035 A 
HETATM   25  C   UNL     1      16.192  53.292  44.256  1.00  0.00     0.050 C 
ENDBRANCH  15  18
ENDBRANCH  13  14
ENDBRANCH   1  13
BRANCH   4  26
HETATM   26  C   UNL     1      20.727  48.337  48.912  1.00  0.00     0.175 C 
BRANCH  26  27
HETATM   27  C   UNL     1      22.132  48.830  48.636  1.00  0.00    -0.037 A 
HETATM   28  C   UNL     1      23.244  48.181  49.193  1.00  0.00     0.048 A 
HETATM   29  C   UNL     1      24.494  48.713  48.947  1.00  0.00     0.105 A 
HETATM   30  C   UNL     1      24.668  49.835  48.171  1.00  0.00     0.105 A 
HETATM   31  O   UNL     1      25.672  48.230  49.425  1.00  0.00    -0.323 OA
HETATM   32  O   UNL     1      25.975  50.198  48.062  1.00  0.00    -0.323 OA
HETATM   33  C   UNL     1      23.607  50.491  47.595  1.00  0.00     0.040 A 
HETATM   34  C   UNL     1      26.603  49.187  48.875  1.00  0.00     0.352 A 
HETATM   35  C   UNL     1      22.329  49.983  47.834  1.00  0.00     0.012 A 
ENDBRANCH  26  27
ENDBRANCH   4  26
BRANCH  11  36
HETATM   36  C   UNL     1      14.721  53.554  48.785  1.00  0.00     0.252 C 
HETATM   37  N   UNL     1      14.479  54.339  47.674  1.00  0.00    -0.352 N 
HETATM   38  H   UNL     1      15.153  54.391  46.928  1.00  0.00     0.163 HD
HETATM   39  O   UNL     1      13.904  53.436  49.695  1.00  0.00    -0.268 OA
BRANCH  37  40
HETATM   40  C   UNL     1      13.116  54.754  47.344  1.00  0.00     0.084 C 
HETATM   41  C   UNL     1      12.775  56.109  47.972  1.00  0.00     0.025 C 
HETATM   42  C   UNL     1      13.503  57.277  47.308  1.00  0.00     0.002 C 
HETATM   43  C   UNL     1      13.308  57.285  45.795  1.00  0.00     0.000 C 
HETATM   44  C   UNL     1      13.690  55.948  45.168  1.00  0.00     0.002 C 
HETATM   45  C   UNL     1      12.935  54.787  45.818  1.00  0.00     0.025 C 
ENDBRANCH  37  40
ENDBRANCH  11  36
TORSDOF 7
ENDMDL
MODEL 8
REMARK VINA RESULT:     -10.1      4.331      9.392
REMARK  7 active torsions:
REMARK  status: ('A' for Active; 'I' for Inactive)
REMARK    1  A    between atoms: C_4  and  N_5 
REMARK       I    between atoms: N_5  and  C_6 
REMARK    2  A    between atoms: C_6  and  C_7 
REMARK    3  A    between atoms: C_7  and  N_8 
REMARK    4  A    between atoms: N_11  and  C_12 
REMARK    5  A    between atoms: C_12  and  C_13 
REMARK    6  A    between atoms: C_28  and  C_29 
REMARK       I    between atoms: C_29  and  N_30 
REMARK    7  A    between atoms: N_30  and  C_31 
ROOT
HETATM    1  N   UNL     1      22.433  45.570  48.664  1.00  0.00    -0.290 N 
HETATM    2  C   UNL     1      21.796  46.741  48.260  1.00  0.00     0.332 C 
HETATM    3  O   UNL     1      20.775  46.678  47.566  1.00  0.00    -0.246 OA
HETATM    4  N   UNL     1      22.380  47.945  48.622  1.00  0.00    -0.261 N 
HETATM    5  C   UNL     1      23.615  48.025  49.251  1.00  0.00     0.264 C 
HETATM    6  O   UNL     1      24.339  49.016  49.244  1.00  0.00    -0.267 OA
HETATM    7  C   UNL     1      24.112  46.801  49.895  1.00  0.00     0.059 A 
HETATM    8  C   UNL     1      23.532  45.579  49.563  1.00  0.00     0.056 A 
HETATM    9  C   UNL     1      25.223  46.872  50.741  1.00  0.00     0.020 A 
HETATM   10  C   UNL     1      25.790  45.701  51.235  1.00  0.00     0.018 A 
HETATM   11  C   UNL     1      25.249  44.451  50.897  1.00  0.00     0.034 A 
HETATM   12  C   UNL     1      24.095  44.402  50.095  1.00  0.00     0.048 A 
ENDROOT
BRANCH   1  13
HETATM   13  C   UNL     1      22.031  44.334  47.987  1.00  0.00     0.237 C 
BRANCH  13  14
HETATM   14  C   UNL     1      22.767  44.048  46.678  1.00  0.00     0.240 C 
HETATM   15  N   UNL     1      22.154  44.630  45.582  1.00  0.00    -0.325 N 
HETATM   16  H   UNL     1      21.194  44.945  45.730  1.00  0.00     0.169 HD
HETATM   17  O   UNL     1      23.800  43.383  46.681  1.00  0.00    -0.271 OA
BRANCH  15  18
HETATM   18  C   UNL     1      22.701  44.862  44.301  1.00  0.00     0.041 A 
HETATM   19  C   UNL     1      24.016  44.495  43.981  1.00  0.00     0.037 A 
HETATM   20  C   UNL     1      24.582  44.824  42.740  1.00  0.00    -0.060 A 
HETATM   21  C   UNL     1      26.014  44.493  42.435  1.00  0.00     0.048 C 
HETATM   22  C   UNL     1      23.817  45.525  41.807  1.00  0.00     0.007 A 
HETATM   23  C   UNL     1      22.502  45.880  42.104  1.00  0.00     0.009 A 
HETATM   24  C   UNL     1      21.929  45.555  43.345  1.00  0.00    -0.035 A 
HETATM   25  C   UNL     1      20.507  45.975  43.607  1.00  0.00     0.050 C 
ENDBRANCH  15  18
ENDBRANCH  13  14
ENDBRANCH   1  13
BRANCH   4  26
HETATM   26  C   UNL     1      21.897  49.150  47.952  1.00  0.00     0.175 C 
BRANCH  26  27
HETATM   27  C   UNL     1      20.685  49.794  48.591  1.00  0.00    -0.037 A 
HETATM   28  C   UNL     1      20.190  51.019  48.119  1.00  0.00     0.048 A 
HETATM   29  C   UNL     1      19.115  51.581  48.780  1.00  0.00     0.105 A 
HETATM   30  C   UNL     1      18.524  50.969  49.861  1.00  0.00     0.105 A 
HETATM   31  O   UNL     1      18.525  52.768  48.475  1.00  0.00    -0.323 OA
HETATM   32  O   UNL     1      17.491  51.691  50.371  1.00  0.00    -0.323 OA
HETATM   33  C   UNL     1      18.970  49.762  50.345  1.00  0.00     0.040 A 
HETATM   34  C   UNL     1      17.510  52.840  49.498  1.00  0.00     0.352 A 
HETATM   35  C   UNL     1      20.062  49.175  49.703  1.00  0.00     0.012 A 
ENDBRANCH  26  27
ENDBRANCH   4  26
BRANCH  11  36
HETATM   36  C   UNL     1      26.023  43.245  51.330  1.00  0.00     0.252 C 
HETATM   37  N   UNL     1      27.141  43.429  52.120  1.00  0.00    -0.352 N 
HETATM   38  H   UNL     1      27.443  44.356  52.371  1.00  0.00     0.163 HD
HETATM   39  O   UNL     1      25.603  42.128  51.037  1.00  0.00    -0.268 OA
BRANCH  37  40
HETATM   40  C   UNL     1      27.649  42.336  52.950  1.00  0.00     0.084 C 
HETATM   41  C   UNL     1      29.058  41.916  52.522  1.00  0.00     0.025 C 
HETATM   42  C   UNL     1      30.127  42.947  52.880  1.00  0.00     0.002 C 
HETATM   43  C   UNL     1      30.071  43.338  54.353  1.00  0.00     0.000 C 
HETATM   44  C   UNL     1      28.676  43.799  54.765  1.00  0.00     0.002 C 
HETATM   45  C   UNL     1      27.617  42.747  54.431  1.00  0.00     0.025 C 
ENDBRANCH  37  40
ENDBRANCH  11  36
TORSDOF 7
ENDMDL
MODEL 9
REMARK VINA RESULT:     -10.0      3.157      8.746
REMARK  7 active torsions:
REMARK  status: ('A' for Active; 'I' for Inactive)
REMARK    1  A    between atoms: C_4  and  N_5 
REMARK       I    between atoms: N_5  and  C_6 
REMARK    2  A    between atoms: C_6  and  C_7 
REMARK    3  A    between atoms: C_7  and  N_8 
REMARK    4  A    between atoms: N_11  and  C_12 
REMARK    5  A    between atoms: C_12  and  C_13 
REMARK    6  A    between atoms: C_28  and  C_29 
REMARK       I    between atoms: C_29  and  N_30 
REMARK    7  A    between atoms: N_30  and  C_31 
ROOT
HETATM    1  N   UNL     1      25.074  43.746  49.151  1.00  0.00    -0.290 N 
HETATM    2  C   UNL     1      26.160  42.884  49.025  1.00  0.00     0.332 C 
HETATM    3  O   UNL     1      27.190  43.092  49.676  1.00  0.00    -0.246 OA
HETATM    4  N   UNL     1      26.048  41.842  48.117  1.00  0.00    -0.261 N 
HETATM    5  C   UNL     1      24.966  41.703  47.258  1.00  0.00     0.264 C 
HETATM    6  O   UNL     1      24.984  41.067  46.208  1.00  0.00    -0.267 OA
HETATM    7  C   UNL     1      23.746  42.446  47.603  1.00  0.00     0.059 A 
HETATM    8  C   UNL     1      23.826  43.487  48.525  1.00  0.00     0.056 A 
HETATM    9  C   UNL     1      22.557  42.169  46.923  1.00  0.00     0.020 A 
HETATM   10  C   UNL     1      21.437  42.966  47.137  1.00  0.00     0.018 A 
HETATM   11  C   UNL     1      21.490  44.041  48.037  1.00  0.00     0.034 A 
HETATM   12  C   UNL     1      22.677  44.267  48.758  1.00  0.00     0.048 A 
ENDROOT
BRANCH   1  13
HETATM   13  C   UNL     1      25.323  45.026  49.819  1.00  0.00     0.237 C 
BRANCH  13  14
HETATM   14  C   UNL     1      25.383  44.955  51.346  1.00  0.00     0.240 C 
HETATM   15  N   UNL     1      26.631  45.283  51.847  1.00  0.00    -0.325 N 
HETATM   16  H   UNL     1      27.393  45.279  51.168  1.00  0.00     0.169 HD
HETATM   17  O   UNL     1      24.382  44.655  51.991  1.00  0.00    -0.271 OA
BRANCH  15  18
HETATM   18  C   UNL     1      26.969  45.644  53.170  1.00  0.00     0.041 A 
HETATM   19  C   UNL     1      26.495  46.825  53.759  1.00  0.00     0.037 A 
HETATM   20  C   UNL     1      26.921  47.223  55.035  1.00  0.00    -0.060 A 
HETATM   21  C   UNL     1      26.467  48.526  55.626  1.00  0.00     0.048 C 
HETATM   22  C   UNL     1      27.830  46.424  55.730  1.00  0.00     0.007 A 
HETATM   23  C   UNL     1      28.296  45.238  55.164  1.00  0.00     0.009 A 
HETATM   24  C   UNL     1      27.874  44.833  53.887  1.00  0.00    -0.035 A 
HETATM   25  C   UNL     1      28.420  43.546  53.329  1.00  0.00     0.050 C 
ENDBRANCH  15  18
ENDBRANCH  13  14
ENDBRANCH   1  13
BRANCH   4  26
HETATM   26  C   UNL     1      27.274  41.133  47.760  1.00  0.00     0.175 C 
BRANCH  26  27
HETATM   27  C   UNL     1      27.539  39.874  48.558  1.00  0.00    -0.037 A 
HETATM   28  C   UNL     1      28.694  39.751  49.345  1.00  0.00     0.048 A 
HETATM   29  C   UNL     1      28.905  38.556  50.005  1.00  0.00     0.105 A 
HETATM   30  C   UNL     1      28.016  37.510  49.918  1.00  0.00     0.105 A 
HETATM   31  O   UNL     1      29.977  38.257  50.786  1.00  0.00    -0.323 OA
HETATM   32  O   UNL     1      28.414  36.425  50.634  1.00  0.00    -0.323 OA
HETATM   33  C   UNL     1      26.866  37.595  49.171  1.00  0.00     0.040 A 
HETATM   34  C   UNL     1      29.668  36.899  51.166  1.00  0.00     0.352 A 
HETATM   35  C   UNL     1      26.631  38.788  48.484  1.00  0.00     0.012 A 
ENDBRANCH  26  27
ENDBRANCH   4  26
BRANCH  11  36
HETATM   36  C   UNL     1      20.298  44.946  48.075  1.00  0.00     0.252 C 
HETATM   37  N   UNL     1      20.505  46.299  48.265  1.00  0.00    -0.352 N 
HETATM   38  H   UNL     1      21.435  46.659  48.404  1.00  0.00     0.163 HD
HETATM   39  O   UNL     1      19.183  44.477  47.863  1.00  0.00    -0.268 OA
BRANCH  37  40
HETATM   40  C   UNL     1      19.492  47.268  47.850  1.00  0.00     0.084 C 
HETATM   41  C   UNL     1      18.481  47.536  48.969  1.00  0.00     0.025 C 
HETATM   42  C   UNL     1      19.067  48.347  50.125  1.00  0.00     0.002 C 
HETATM   43  C   UNL     1      19.735  49.630  49.640  1.00  0.00     0.000 C 
HETATM   44  C   UNL     1      20.772  49.354  48.556  1.00  0.00     0.002 C 
HETATM   45  C   UNL     1      20.170  48.569  47.389  1.00  0.00     0.025 C 
ENDBRANCH  37  40
ENDBRANCH  11  36
TORSDOF 7
ENDMDL
MODEL 10
REMARK VINA RESULT:     -10.0      7.605     13.008
REMARK  7 active torsions:
REMARK  status: ('A' for Active; 'I' for Inactive)
REMARK    1  A    between atoms: C_4  and  N_5 
REMARK       I    between atoms: N_5  and  C_6 
REMARK    2  A    between atoms: C_6  and  C_7 
REMARK    3  A    between atoms: C_7  and  N_8 
REMARK    4  A    between atoms: N_11  and  C_12 
REMARK    5  A    between atoms: C_12  and  C_13 
REMARK    6  A    between atoms: C_28  and  C_29 
REMARK       I    between atoms: C_29  and  N_30 
REMARK    7  A    between atoms: N_30  and  C_31 
ROOT
HETATM    1  N   UNL     1      18.436  48.506  48.725  1.00  0.00    -0.290 N 
HETATM    2  C   UNL     1      17.189  49.068  48.463  1.00  0.00     0.332 C 
HETATM    3  O   UNL     1      16.175  48.363  48.509  1.00  0.00    -0.246 OA
HETATM    4  N   UNL     1      17.153  50.407  48.107  1.00  0.00    -0.261 N 
HETATM    5  C   UNL     1      18.298  51.159  47.885  1.00  0.00     0.264 C 
HETATM    6  O   UNL     1      18.340  52.187  47.215  1.00  0.00    -0.267 OA
HETATM    7  C   UNL     1      19.556  50.628  48.427  1.00  0.00     0.059 A 
HETATM    8  C   UNL     1      19.616  49.290  48.810  1.00  0.00     0.056 A 
HETATM    9  C   UNL     1      20.693  51.441  48.448  1.00  0.00     0.020 A 
HETATM   10  C   UNL     1      21.921  50.901  48.820  1.00  0.00     0.018 A 
HETATM   11  C   UNL     1      22.023  49.550  49.183  1.00  0.00     0.034 A 
HETATM   12  C   UNL     1      20.858  48.763  49.216  1.00  0.00     0.048 A 
ENDROOT
BRANCH   1  13
HETATM   13  C   UNL     1      18.508  47.042  48.741  1.00  0.00     0.237 C 
BRANCH  13  14
HETATM   14  C   UNL     1      18.622  46.388  47.363  1.00  0.00     0.240 C 
HETATM   15  N   UNL     1      17.418  45.869  46.918  1.00  0.00    -0.325 N 
HETATM   16  H   UNL     1      16.697  45.756  47.631  1.00  0.00     0.169 HD
HETATM   17  O   UNL     1      19.695  46.384  46.766  1.00  0.00    -0.271 OA
BRANCH  15  18
HETATM   18  C   UNL     1      17.064  45.502  45.601  1.00  0.00     0.041 A 
HETATM   19  C   UNL     1      17.193  44.184  45.141  1.00  0.00     0.037 A 
HETATM   20  C   UNL     1      16.937  43.852  43.802  1.00  0.00    -0.060 A 
HETATM   21  C   UNL     1      17.149  42.452  43.301  1.00  0.00     0.048 C 
HETATM   22  C   UNL     1      16.542  44.855  42.915  1.00  0.00     0.007 A 
HETATM   23  C   UNL     1      16.393  46.166  43.363  1.00  0.00     0.009 A 
HETATM   24  C   UNL     1      16.648  46.506  44.702  1.00  0.00    -0.035 A 
HETATM   25  C   UNL     1      16.476  47.942  45.120  1.00  0.00     0.050 C 
ENDBRANCH  15  18
ENDBRANCH  13  14
ENDBRANCH   1  13
BRANCH   4  26
HETATM   26  C   UNL     1      15.906  50.914  47.540  1.00  0.00     0.175 C 
BRANCH  26  27
HETATM   27  C   UNL     1      15.310  52.102  48.266  1.00  0.00    -0.037 A 
HETATM   28  C   UNL     1      14.833  53.214  47.555  1.00  0.00     0.048 A 
HETATM   29  C   UNL     1      14.353  54.288  48.279  1.00  0.00     0.105 A 
HETATM   30  C   UNL     1      14.322  54.284  49.654  1.00  0.00     0.105 A 
HETATM   31  O   UNL     1      13.877  55.450  47.756  1.00  0.00    -0.323 OA
HETATM   32  O   UNL     1      13.823  55.440  50.169  1.00  0.00    -0.323 OA
HETATM   33  C   UNL     1      14.766  53.209  50.387  1.00  0.00     0.040 A 
HETATM   34  C   UNL     1      13.561  56.181  48.960  1.00  0.00     0.352 A 
HETATM   35  C   UNL     1      15.267  52.113  49.683  1.00  0.00     0.012 A 
ENDBRANCH  26  27
ENDBRANCH   4  26
BRANCH  11  36
HETATM   36  C   UNL     1      23.405  49.015  49.401  1.00  0.00     0.252 C 
HETATM   37  N   UNL     1      23.542  47.740  49.916  1.00  0.00    -0.352 N 
HETATM   38  H   UNL     1      22.731  47.199  50.166  1.00  0.00     0.163 HD
HETATM   39  O   UNL     1      24.370  49.687  49.047  1.00  0.00    -0.268 OA
BRANCH  37  40
HETATM   40  C   UNL     1      24.782  46.990  49.714  1.00  0.00     0.084 C 
HETATM   41  C   UNL     1      25.765  47.212  50.867  1.00  0.00     0.025 C 
HETATM   42  C   UNL     1      25.332  46.530  52.164  1.00  0.00     0.002 C 
HETATM   43  C   UNL     1      25.023  45.051  51.955  1.00  0.00     0.000 C 
HETATM   44  C   UNL     1      24.010  44.837  50.834  1.00  0.00     0.002 C 
HETATM   45  C   UNL     1      24.466  45.497  49.532  1.00  0.00     0.025 C 
ENDBRANCH  37  40
ENDBRANCH  11  36
TORSDOF 7
ENDMDL
