MODEL 1
REMARK VINA RESULT:      -9.2      0.000      0.000
REMARK  5 active torsions:
REMARK  status: ('A' for Active; 'I' for Inactive)
REMARK    1  A    between atoms: C_7  and  C_8 
REMARK    2  A    between atoms: N_9  and  N_10 
REMARK       I    between atoms: N_10  and  C_11 
REMARK    3  A    between atoms: C_11  and  C_12 
REMARK    4  A    between atoms: C_12  and  O_13 
REMARK    5  A    between atoms: O_13  and  C_14 
ROOT
HETATM    1  C   UNL     1      24.692  46.673  50.382  1.00  0.00     0.147 C 
HETATM    2  N   UNL     1      25.029  46.474  51.622  1.00  0.00    -0.205 NA
ENDROOT
BRANCH   2   3
HETATM    3  N   UNL     1      25.445  47.498  52.428  1.00  0.00    -0.149 NA
HETATM    4  C   UNL     1      25.909  47.305  53.720  1.00  0.00     0.241 C 
HETATM    5  O   UNL     1      25.636  48.152  54.574  1.00  0.00    -0.276 OA
HETATM    6  H   UNL     1      24.769  48.259  52.456  1.00  0.00     0.158 HD
BRANCH   4   7
HETATM    7  C   UNL     1      26.809  46.104  53.990  1.00  0.00     0.273 C 
BRANCH   7   8
HETATM    8  O   UNL     1      27.810  46.411  54.954  1.00  0.00    -0.343 OA
BRANCH   8   9
HETATM    9  C   UNL     1      28.792  45.478  55.147  1.00  0.00     0.069 A 
HETATM   10  C   UNL     1      28.672  44.335  54.352  1.00  0.00     0.037 A 
HETATM   11  C   UNL     1      29.595  43.294  54.458  1.00  0.00     0.003 A 
HETATM   12  C   UNL     1      30.645  43.387  55.367  1.00  0.00     0.000 A 
HETATM   13  C   UNL     1      30.774  44.524  56.163  1.00  0.00     0.003 A 
HETATM   14  C   UNL     1      29.854  45.571  56.050  1.00  0.00     0.037 A 
ENDBRANCH   8   9
ENDBRANCH   7   8
ENDBRANCH   4   7
ENDBRANCH   2   3
BRANCH   1  15
HETATM   15  C   UNL     1      24.674  47.915  49.631  1.00  0.00     0.017 A 
HETATM   16  C   UNL     1      25.844  48.529  49.193  1.00  0.00     0.018 A 
HETATM   17  C   UNL     1      27.269  48.134  49.351  1.00  0.00     0.069 C 
HETATM   18  N   UNL     1      25.496  49.688  48.550  1.00  0.00    -0.358 N 
HETATM   19  H   UNL     1      26.143  50.345  48.134  1.00  0.00     0.166 HD
HETATM   20  C   UNL     1      24.131  49.839  48.536  1.00  0.00     0.043 A 
HETATM   21  C   UNL     1      23.582  48.725  49.174  1.00  0.00     0.004 A 
HETATM   22  C   UNL     1      23.354  50.871  47.996  1.00  0.00     0.030 A 
HETATM   23  C   UNL     1      22.175  48.627  49.229  1.00  0.00     0.014 A 
HETATM   24  C   UNL     1      21.383  49.652  48.698  1.00  0.00     0.001 A 
HETATM   25  C   UNL     1      21.967  50.761  48.097  1.00  0.00     0.002 A 
ENDBRANCH   1  15
TORSDOF 5
ENDMDL
MODEL 2
REMARK VINA RESULT:      -8.9      2.452      8.208
REMARK  5 active torsions:
REMARK  status: ('A' for Active; 'I' for Inactive)
REMARK    1  A    between atoms: C_7  and  C_8 
REMARK    2  A    between atoms: N_9  and  N_10 
REMARK       I    between atoms: N_10  and  C_11 
REMARK    3  A    between atoms: C_11  and  C_12 
REMARK    4  A    between atoms: C_12  and  O_13 
REMARK    5  A    between atoms: O_13  and  C_14 
ROOT
HETATM    1  C   UNL     1      26.107  44.315  53.757  1.00  0.00     0.147 C 
HETATM    2  N   UNL     1      25.932  44.095  52.487  1.00  0.00    -0.205 NA
ENDROOT
BRANCH   2   3
HETATM    3  N   UNL     1      26.830  44.528  51.551  1.00  0.00    -0.149 NA
HETATM    4  C   UNL     1      26.472  44.865  50.255  1.00  0.00     0.241 C 
HETATM    5  O   UNL     1      27.253  44.593  49.341  1.00  0.00    -0.276 OA
HETATM    6  H   UNL     1      27.643  43.917  51.494  1.00  0.00     0.158 HD
BRANCH   4   7
HETATM    7  C   UNL     1      25.173  45.637  50.045  1.00  0.00     0.273 C 
BRANCH   7   8
HETATM    8  O   UNL     1      25.231  46.926  50.645  1.00  0.00    -0.343 OA
BRANCH   8   9
HETATM    9  C   UNL     1      25.651  47.960  49.854  1.00  0.00     0.069 A 
HETATM   10  C   UNL     1      24.627  48.630  49.181  1.00  0.00     0.037 A 
HETATM   11  C   UNL     1      24.914  49.693  48.325  1.00  0.00     0.003 A 
HETATM   12  C   UNL     1      26.233  50.092  48.132  1.00  0.00     0.000 A 
HETATM   13  C   UNL     1      27.262  49.432  48.801  1.00  0.00     0.003 A 
HETATM   14  C   UNL     1      26.973  48.371  49.665  1.00  0.00     0.037 A 
ENDBRANCH   8   9
ENDBRANCH   7   8
ENDBRANCH   4   7
ENDBRANCH   2   3
BRANCH   1  15
HETATM   15  C   UNL     1      27.201  45.001  54.420  1.00  0.00     0.017 A 
HETATM   16  C   UNL     1      27.129  46.349  54.759  1.00  0.00     0.018 A 
HETATM   17  C   UNL     1      26.042  47.346  54.561  1.00  0.00     0.069 C 
HETATM   18  N   UNL     1      28.321  46.703  55.335  1.00  0.00    -0.358 N 
HETATM   19  H   UNL     1      28.558  47.626  55.673  1.00  0.00     0.166 HD
HETATM   20  C   UNL     1      29.162  45.620  55.403  1.00  0.00     0.043 A 
HETATM   21  C   UNL     1      28.477  44.526  54.870  1.00  0.00     0.004 A 
HETATM   22  C   UNL     1      30.466  45.535  55.905  1.00  0.00     0.030 A 
HETATM   23  C   UNL     1      29.127  43.273  54.888  1.00  0.00     0.014 A 
HETATM   24  C   UNL     1      30.432  43.170  55.383  1.00  0.00     0.001 A 
HETATM   25  C   UNL     1      31.094  44.289  55.878  1.00  0.00     0.002 A 
ENDBRANCH   1  15
TORSDOF 5
ENDMDL
MODEL 3
REMARK VINA RESULT:      -8.9      3.286      8.363
REMARK  5 active torsions:
REMARK  status: ('A' for Active; 'I' for Inactive)
REMARK    1  A    between atoms: C_7  and  C_8 
REMARK    2  A    between atoms: N_9  and  N_10 
REMARK       I    between atoms: N_10  and  C_11 
REMARK    3  A    between atoms: C_11  and  C_12 
REMARK    4  A    between atoms: C_12  and  O_13 
REMARK    5  A    between atoms: O_13  and  C_14 
ROOT
HETATM    1  C   UNL     1      28.749  44.048  53.369  1.00  0.00     0.147 C 
HETATM    2  N   UNL     1      27.687  43.381  53.024  1.00  0.00    -0.205 NA
ENDROOT
BRANCH   2   3
HETATM    3  N   UNL     1      26.619  43.243  53.867  1.00  0.00    -0.149 NA
HETATM    4  C   UNL     1      25.367  43.772  53.596  1.00  0.00     0.241 C 
HETATM    5  O   UNL     1      24.701  44.215  54.535  1.00  0.00    -0.276 OA
HETATM    6  H   UNL     1      26.856  43.494  54.825  1.00  0.00     0.158 HD
BRANCH   4   7
HETATM    7  C   UNL     1      24.844  43.689  52.165  1.00  0.00     0.273 C 
BRANCH   7   8
HETATM    8  O   UNL     1      24.276  44.925  51.747  1.00  0.00    -0.343 OA
BRANCH   8   9
HETATM    9  C   UNL     1      25.084  45.769  51.035  1.00  0.00     0.069 A 
HETATM   10  C   UNL     1      26.151  45.143  50.387  1.00  0.00     0.037 A 
HETATM   11  C   UNL     1      27.066  45.887  49.640  1.00  0.00     0.003 A 
HETATM   12  C   UNL     1      26.921  47.268  49.541  1.00  0.00     0.000 A 
HETATM   13  C   UNL     1      25.858  47.901  50.183  1.00  0.00     0.003 A 
HETATM   14  C   UNL     1      24.937  47.154  50.924  1.00  0.00     0.037 A 
ENDBRANCH   8   9
ENDBRANCH   7   8
ENDBRANCH   4   7
ENDBRANCH   2   3
BRANCH   1  15
HETATM   15  C   UNL     1      29.023  44.744  54.612  1.00  0.00     0.017 A 
HETATM   16  C   UNL     1      28.359  45.916  54.964  1.00  0.00     0.018 A 
HETATM   17  C   UNL     1      27.309  46.692  54.249  1.00  0.00     0.069 C 
HETATM   18  N   UNL     1      28.861  46.339  56.166  1.00  0.00    -0.358 N 
HETATM   19  H   UNL     1      28.571  47.172  56.662  1.00  0.00     0.166 HD
HETATM   20  C   UNL     1      29.818  45.467  56.622  1.00  0.00     0.043 A 
HETATM   21  C   UNL     1      29.919  44.434  55.688  1.00  0.00     0.004 A 
HETATM   22  C   UNL     1      30.584  45.518  57.793  1.00  0.00     0.030 A 
HETATM   23  C   UNL     1      30.808  43.375  55.975  1.00  0.00     0.014 A 
HETATM   24  C   UNL     1      31.585  43.411  57.139  1.00  0.00     0.001 A 
HETATM   25  C   UNL     1      31.478  44.472  58.030  1.00  0.00     0.002 A 
ENDBRANCH   1  15
TORSDOF 5
ENDMDL
MODEL 4
REMARK VINA RESULT:      -8.8      3.695      5.977
REMARK  5 active torsions:
REMARK  status: ('A' for Active; 'I' for Inactive)
REMARK    1  A    between atoms: C_7  and  C_8 
REMARK    2  A    between atoms: N_9  and  N_10 
REMARK       I    between atoms: N_10  and  C_11 
REMARK    3  A    between atoms: C_11  and  C_12 
REMARK    4  A    between atoms: C_12  and  O_13 
REMARK    5  A    between atoms: O_13  and  C_14 
ROOT
HETATM    1  C   UNL     1      25.107  44.855  53.835  1.00  0.00     0.147 C 
HETATM    2  N   UNL     1      25.409  46.023  54.322  1.00  0.00    -0.205 NA
ENDROOT
BRANCH   2   3
HETATM    3  N   UNL     1      26.515  46.712  53.906  1.00  0.00    -0.149 NA
HETATM    4  C   UNL     1      27.559  47.050  54.752  1.00  0.00     0.241 C 
HETATM    5  O   UNL     1      28.124  48.134  54.583  1.00  0.00    -0.276 OA
HETATM    6  H   UNL     1      26.266  47.547  53.379  1.00  0.00     0.158 HD
BRANCH   4   7
HETATM    7  C   UNL     1      28.013  46.022  55.783  1.00  0.00     0.273 C 
BRANCH   7   8
HETATM    8  O   UNL     1      29.232  46.411  56.405  1.00  0.00    -0.343 OA
BRANCH   8   9
HETATM    9  C   UNL     1      30.114  45.414  56.719  1.00  0.00     0.069 A 
HETATM   10  C   UNL     1      30.270  44.443  55.727  1.00  0.00     0.037 A 
HETATM   11  C   UNL     1      31.125  43.357  55.921  1.00  0.00     0.003 A 
HETATM   12  C   UNL     1      31.829  43.234  57.116  1.00  0.00     0.000 A 
HETATM   13  C   UNL     1      31.682  44.199  58.110  1.00  0.00     0.003 A 
HETATM   14  C   UNL     1      30.831  45.290  57.911  1.00  0.00     0.037 A 
ENDBRANCH   8   9
ENDBRANCH   7   8
ENDBRANCH   4   7
ENDBRANCH   2   3
BRANCH   1  15
HETATM   15  C   UNL     1      25.804  44.083  52.823  1.00  0.00     0.017 A 
HETATM   16  C   UNL     1      25.499  44.196  51.469  1.00  0.00     0.018 A 
HETATM   17  C   UNL     1      24.494  45.036  50.764  1.00  0.00     0.069 C 
HETATM   18  N   UNL     1      26.301  43.322  50.783  1.00  0.00    -0.358 N 
HETATM   19  H   UNL     1      26.294  43.181  49.781  1.00  0.00     0.166 HD
HETATM   20  C   UNL     1      27.137  42.657  51.646  1.00  0.00     0.043 A 
HETATM   21  C   UNL     1      26.877  43.137  52.931  1.00  0.00     0.004 A 
HETATM   22  C   UNL     1      28.104  41.681  51.376  1.00  0.00     0.030 A 
HETATM   23  C   UNL     1      27.665  42.639  53.990  1.00  0.00     0.014 A 
HETATM   24  C   UNL     1      28.633  41.660  53.739  1.00  0.00     0.001 A 
HETATM   25  C   UNL     1      28.843  41.183  52.450  1.00  0.00     0.002 A 
ENDBRANCH   1  15
TORSDOF 5
ENDMDL
MODEL 5
REMARK VINA RESULT:      -8.7      2.091      8.841
REMARK  5 active torsions:
REMARK  status: ('A' for Active; 'I' for Inactive)
REMARK    1  A    between atoms: C_7  and  C_8 
REMARK    2  A    between atoms: N_9  and  N_10 
REMARK       I    between atoms: N_10  and  C_11 
REMARK    3  A    between atoms: C_11  and  C_12 
REMARK    4  A    between atoms: C_12  and  O_13 
REMARK    5  A    between atoms: O_13  and  C_14 
ROOT
HETATM    1  C   UNL     1      25.682  46.495  53.716  1.00  0.00     0.147 C 
HETATM    2  N   UNL     1      25.505  47.432  52.830  1.00  0.00    -0.205 NA
ENDROOT
BRANCH   2   3
HETATM    3  N   UNL     1      26.300  47.535  51.723  1.00  0.00    -0.149 NA
HETATM    4  C   UNL     1      25.874  47.191  50.449  1.00  0.00     0.241 C 
HETATM    5  O   UNL     1      26.683  46.666  49.681  1.00  0.00    -0.276 OA
HETATM    6  H   UNL     1      27.211  47.101  51.866  1.00  0.00     0.158 HD
BRANCH   4   7
HETATM    7  C   UNL     1      24.453  47.568  50.040  1.00  0.00     0.273 C 
BRANCH   7   8
HETATM    8  O   UNL     1      24.376  48.926  49.621  1.00  0.00    -0.343 OA
BRANCH   8   9
HETATM    9  C   UNL     1      23.218  49.321  49.008  1.00  0.00     0.069 A 
HETATM   10  C   UNL     1      22.940  50.686  49.118  1.00  0.00     0.037 A 
HETATM   11  C   UNL     1      21.781  51.223  48.557  1.00  0.00     0.003 A 
HETATM   12  C   UNL     1      20.887  50.395  47.883  1.00  0.00     0.000 A 
HETATM   13  C   UNL     1      21.158  49.033  47.767  1.00  0.00     0.003 A 
HETATM   14  C   UNL     1      22.323  48.497  48.323  1.00  0.00     0.037 A 
ENDBRANCH   8   9
ENDBRANCH   7   8
ENDBRANCH   4   7
ENDBRANCH   2   3
BRANCH   1  15
HETATM   15  C   UNL     1      26.670  45.432  53.730  1.00  0.00     0.017 A 
HETATM   16  C   UNL     1      26.544  44.295  52.936  1.00  0.00     0.018 A 
HETATM   17  C   UNL     1      25.487  43.898  51.967  1.00  0.00     0.069 C 
HETATM   18  N   UNL     1      27.609  43.476  53.201  1.00  0.00    -0.358 N 
HETATM   19  H   UNL     1      27.775  42.573  52.775  1.00  0.00     0.166 HD
HETATM   20  C   UNL     1      28.441  44.052  54.128  1.00  0.00     0.043 A 
HETATM   21  C   UNL     1      27.900  45.298  54.456  1.00  0.00     0.004 A 
HETATM   22  C   UNL     1      29.629  43.564  54.686  1.00  0.00     0.030 A 
HETATM   23  C   UNL     1      28.622  46.110  55.357  1.00  0.00     0.014 A 
HETATM   24  C   UNL     1      29.809  45.637  55.927  1.00  0.00     0.001 A 
HETATM   25  C   UNL     1      30.301  44.378  55.600  1.00  0.00     0.002 A 
ENDBRANCH   1  15
TORSDOF 5
ENDMDL
MODEL 6
REMARK VINA RESULT:      -8.5      2.473      8.935
REMARK  5 active torsions:
REMARK  status: ('A' for Active; 'I' for Inactive)
REMARK    1  A    between atoms: C_7  and  C_8 
REMARK    2  A    between atoms: N_9  and  N_10 
REMARK       I    between atoms: N_10  and  C_11 
REMARK    3  A    between atoms: C_11  and  C_12 
REMARK    4  A    between atoms: C_12  and  O_13 
REMARK    5  A    between atoms: O_13  and  C_14 
ROOT
HETATM    1  C   UNL     1      26.249  43.844  53.268  1.00  0.00     0.147 C 
HETATM    2  N   UNL     1      25.883  44.567  52.250  1.00  0.00    -0.205 NA
ENDROOT
BRANCH   2   3
HETATM    3  N   UNL     1      26.796  45.150  51.416  1.00  0.00    -0.149 NA
HETATM    4  C   UNL     1      26.443  45.818  50.254  1.00  0.00     0.241 C 
HETATM    5  O   UNL     1      27.186  45.724  49.274  1.00  0.00    -0.276 OA
HETATM    6  H   UNL     1      27.558  44.516  51.183  1.00  0.00     0.158 HD
BRANCH   4   7
HETATM    7  C   UNL     1      25.205  46.708  50.283  1.00  0.00     0.273 C 
BRANCH   7   8
HETATM    8  O   UNL     1      25.463  47.978  49.695  1.00  0.00    -0.343 OA
BRANCH   8   9
HETATM    9  C   UNL     1      24.398  48.632  49.138  1.00  0.00     0.069 A 
HETATM   10  C   UNL     1      24.732  49.786  48.425  1.00  0.00     0.037 A 
HETATM   11  C   UNL     1      23.742  50.562  47.821  1.00  0.00     0.003 A 
HETATM   12  C   UNL     1      22.405  50.190  47.931  1.00  0.00     0.000 A 
HETATM   13  C   UNL     1      22.062  49.039  48.638  1.00  0.00     0.003 A 
HETATM   14  C   UNL     1      23.056  48.258  49.236  1.00  0.00     0.037 A 
ENDBRANCH   8   9
ENDBRANCH   7   8
ENDBRANCH   4   7
ENDBRANCH   2   3
BRANCH   1  15
HETATM   15  C   UNL     1      27.590  43.511  53.712  1.00  0.00     0.017 A 
HETATM   16  C   UNL     1      28.242  42.357  53.288  1.00  0.00     0.018 A 
HETATM   17  C   UNL     1      27.802  41.270  52.372  1.00  0.00     0.069 C 
HETATM   18  N   UNL     1      29.465  42.314  53.905  1.00  0.00    -0.358 N 
HETATM   19  H   UNL     1      30.154  41.582  53.792  1.00  0.00     0.166 HD
HETATM   20  C   UNL     1      29.641  43.417  54.702  1.00  0.00     0.043 A 
HETATM   21  C   UNL     1      28.497  44.209  54.577  1.00  0.00     0.004 A 
HETATM   22  C   UNL     1      30.730  43.770  55.510  1.00  0.00     0.030 A 
HETATM   23  C   UNL     1      28.472  45.440  55.266  1.00  0.00     0.014 A 
HETATM   24  C   UNL     1      29.550  45.807  56.080  1.00  0.00     0.001 A 
HETATM   25  C   UNL     1      30.659  44.978  56.205  1.00  0.00     0.002 A 
ENDBRANCH   1  15
TORSDOF 5
ENDMDL
MODEL 7
REMARK VINA RESULT:      -8.3      3.870      6.143
REMARK  5 active torsions:
REMARK  status: ('A' for Active; 'I' for Inactive)
REMARK    1  A    between atoms: C_7  and  C_8 
REMARK    2  A    between atoms: N_9  and  N_10 
REMARK       I    between atoms: N_10  and  C_11 
REMARK    3  A    between atoms: C_11  and  C_12 
REMARK    4  A    between atoms: C_12  and  O_13 
REMARK    5  A    between atoms: O_13  and  C_14 
ROOT
HETATM    1  C   UNL     1      26.614  45.568  51.350  1.00  0.00     0.147 C 
HETATM    2  N   UNL     1      26.142  46.118  52.430  1.00  0.00    -0.205 NA
ENDROOT
BRANCH   2   3
HETATM    3  N   UNL     1      25.702  45.369  53.486  1.00  0.00    -0.149 NA
HETATM    4  C   UNL     1      26.512  45.013  54.553  1.00  0.00     0.241 C 
HETATM    5  O   UNL     1      26.355  43.901  55.063  1.00  0.00    -0.276 OA
HETATM    6  H   UNL     1      25.214  44.529  53.179  1.00  0.00     0.158 HD
BRANCH   4   7
HETATM    7  C   UNL     1      27.488  46.053  55.095  1.00  0.00     0.273 C 
BRANCH   7   8
HETATM    8  O   UNL     1      28.833  45.723  54.769  1.00  0.00    -0.343 OA
BRANCH   8   9
HETATM    9  C   UNL     1      29.617  45.243  55.782  1.00  0.00     0.069 A 
HETATM   10  C   UNL     1      29.503  45.943  56.986  1.00  0.00     0.037 A 
HETATM   11  C   UNL     1      30.260  45.574  58.099  1.00  0.00     0.003 A 
HETATM   12  C   UNL     1      31.142  44.501  58.013  1.00  0.00     0.000 A 
HETATM   13  C   UNL     1      31.261  43.795  56.817  1.00  0.00     0.003 A 
HETATM   14  C   UNL     1      30.496  44.161  55.705  1.00  0.00     0.037 A 
ENDBRANCH   8   9
ENDBRANCH   7   8
ENDBRANCH   4   7
ENDBRANCH   2   3
BRANCH   1  15
HETATM   15  C   UNL     1      26.776  44.159  51.043  1.00  0.00     0.017 A 
HETATM   16  C   UNL     1      26.004  43.521  50.075  1.00  0.00     0.018 A 
HETATM   17  C   UNL     1      24.927  44.042  49.190  1.00  0.00     0.069 C 
HETATM   18  N   UNL     1      26.371  42.202  50.046  1.00  0.00    -0.358 N 
HETATM   19  H   UNL     1      25.971  41.494  49.443  1.00  0.00     0.166 HD
HETATM   20  C   UNL     1      27.374  41.961  50.951  1.00  0.00     0.043 A 
HETATM   21  C   UNL     1      27.679  43.176  51.569  1.00  0.00     0.004 A 
HETATM   22  C   UNL     1      28.034  40.763  51.253  1.00  0.00     0.030 A 
HETATM   23  C   UNL     1      28.734  43.190  52.506  1.00  0.00     0.014 A 
HETATM   24  C   UNL     1      29.402  42.001  52.823  1.00  0.00     0.001 A 
HETATM   25  C   UNL     1      29.050  40.804  52.209  1.00  0.00     0.002 A 
ENDBRANCH   1  15
TORSDOF 5
ENDMDL
MODEL 8
REMARK VINA RESULT:      -8.3      1.629      2.764
REMARK  5 active torsions:
REMARK  status: ('A' for Active; 'I' for Inactive)
REMARK    1  A    between atoms: C_7  and  C_8 
REMARK    2  A    between atoms: N_9  and  N_10 
REMARK       I    between atoms: N_10  and  C_11 
REMARK    3  A    between atoms: C_11  and  C_12 
REMARK    4  A    between atoms: C_12  and  O_13 
REMARK    5  A    between atoms: O_13  and  C_14 
ROOT
HETATM    1  C   UNL     1      26.204  45.037  50.807  1.00  0.00     0.147 C 
HETATM    2  N   UNL     1      26.793  45.151  51.961  1.00  0.00    -0.205 NA
ENDROOT
BRANCH   2   3
HETATM    3  N   UNL     1      26.542  46.204  52.796  1.00  0.00    -0.149 NA
HETATM    4  C   UNL     1      26.502  46.084  54.176  1.00  0.00     0.241 C 
HETATM    5  O   UNL     1      25.682  46.761  54.801  1.00  0.00    -0.276 OA
HETATM    6  H   UNL     1      25.715  46.727  52.512  1.00  0.00     0.158 HD
BRANCH   4   7
HETATM    7  C   UNL     1      27.538  45.192  54.852  1.00  0.00     0.273 C 
BRANCH   7   8
HETATM    8  O   UNL     1      28.726  45.913  55.157  1.00  0.00    -0.343 OA
BRANCH   8   9
HETATM    9  C   UNL     1      29.606  45.322  56.022  1.00  0.00     0.069 A 
HETATM   10  C   UNL     1      30.236  44.180  55.520  1.00  0.00     0.037 A 
HETATM   11  C   UNL     1      31.143  43.466  56.303  1.00  0.00     0.003 A 
HETATM   12  C   UNL     1      31.425  43.887  57.599  1.00  0.00     0.000 A 
HETATM   13  C   UNL     1      30.803  45.026  58.108  1.00  0.00     0.003 A 
HETATM   14  C   UNL     1      29.900  45.746  57.320  1.00  0.00     0.037 A 
ENDBRANCH   8   9
ENDBRANCH   7   8
ENDBRANCH   4   7
ENDBRANCH   2   3
BRANCH   1  15
HETATM   15  C   UNL     1      25.226  45.917  50.193  1.00  0.00     0.017 A 
HETATM   16  C   UNL     1      23.896  45.541  50.028  1.00  0.00     0.018 A 
HETATM   17  C   UNL     1      23.188  44.283  50.390  1.00  0.00     0.069 C 
HETATM   18  N   UNL     1      23.244  46.566  49.395  1.00  0.00    -0.358 N 
HETATM   19  H   UNL     1      22.265  46.569  49.137  1.00  0.00     0.166 HD
HETATM   20  C   UNL     1      24.103  47.611  49.161  1.00  0.00     0.043 A 
HETATM   21  C   UNL     1      25.348  47.252  49.682  1.00  0.00     0.004 A 
HETATM   22  C   UNL     1      23.861  48.842  48.539  1.00  0.00     0.030 A 
HETATM   23  C   UNL     1      26.389  48.203  49.611  1.00  0.00     0.014 A 
HETATM   24  C   UNL     1      26.166  49.437  48.989  1.00  0.00     0.001 A 
HETATM   25  C   UNL     1      24.920  49.747  48.455  1.00  0.00     0.002 A 
ENDBRANCH   1  15
TORSDOF 5
ENDMDL
MODEL 9
REMARK VINA RESULT:      -8.2     11.901     14.196
REMARK  5 active torsions:
REMARK  status: ('A' for Active; 'I' for Inactive)
REMARK    1  A    between atoms: C_7  and  C_8 
REMARK    2  A    between atoms: N_9  and  N_10 
REMARK       I    between atoms: N_10  and  C_11 
REMARK    3  A    between atoms: C_11  and  C_12 
REMARK    4  A    between atoms: C_12  and  O_13 
REMARK    5  A    between atoms: O_13  and  C_14 
ROOT
HETATM    1  C   UNL     1      28.379  48.176  41.277  1.00  0.00     0.147 C 
HETATM    2  N   UNL     1      27.412  48.587  40.509  1.00  0.00    -0.205 NA
ENDROOT
BRANCH   2   3
HETATM    3  N   UNL     1      27.652  49.125  39.276  1.00  0.00    -0.149 NA
HETATM    4  C   UNL     1      27.561  50.483  39.011  1.00  0.00     0.241 C 
HETATM    5  O   UNL     1      27.126  50.839  37.913  1.00  0.00    -0.276 OA
HETATM    6  H   UNL     1      27.143  48.637  38.541  1.00  0.00     0.158 HD
BRANCH   4   7
HETATM    7  C   UNL     1      28.094  51.458  40.056  1.00  0.00     0.273 C 
BRANCH   7   8
HETATM    8  O   UNL     1      28.890  52.476  39.461  1.00  0.00    -0.343 OA
BRANCH   8   9
HETATM    9  C   UNL     1      30.209  52.186  39.245  1.00  0.00     0.069 A 
HETATM   10  C   UNL     1      31.101  52.923  40.027  1.00  0.00     0.037 A 
HETATM   11  C   UNL     1      32.479  52.743  39.896  1.00  0.00     0.003 A 
HETATM   12  C   UNL     1      32.975  51.824  38.976  1.00  0.00     0.000 A 
HETATM   13  C   UNL     1      32.092  51.082  38.193  1.00  0.00     0.003 A 
HETATM   14  C   UNL     1      30.712  51.258  38.330  1.00  0.00     0.037 A 
ENDBRANCH   8   9
ENDBRANCH   7   8
ENDBRANCH   4   7
ENDBRANCH   2   3
BRANCH   1  15
HETATM   15  C   UNL     1      29.808  48.185  41.025  1.00  0.00     0.017 A 
HETATM   16  C   UNL     1      30.401  47.323  40.108  1.00  0.00     0.018 A 
HETATM   17  C   UNL     1      29.810  46.274  39.233  1.00  0.00     0.069 C 
HETATM   18  N   UNL     1      31.752  47.555  40.124  1.00  0.00    -0.358 N 
HETATM   19  H   UNL     1      32.438  47.066  39.564  1.00  0.00     0.166 HD
HETATM   20  C   UNL     1      32.057  48.558  41.009  1.00  0.00     0.043 A 
HETATM   21  C   UNL     1      30.855  49.003  41.566  1.00  0.00     0.004 A 
HETATM   22  C   UNL     1      33.302  49.105  41.343  1.00  0.00     0.030 A 
HETATM   23  C   UNL     1      30.911  50.084  42.471  1.00  0.00     0.014 A 
HETATM   24  C   UNL     1      32.148  50.640  42.819  1.00  0.00     0.001 A 
HETATM   25  C   UNL     1      33.326  50.151  42.267  1.00  0.00     0.002 A 
ENDBRANCH   1  15
TORSDOF 5
ENDMDL
MODEL 10
REMARK VINA RESULT:      -8.2      2.239      8.582
REMARK  5 active torsions:
REMARK  status: ('A' for Active; 'I' for Inactive)
REMARK    1  A    between atoms: C_7  and  C_8 
REMARK    2  A    between atoms: N_9  and  N_10 
REMARK       I    between atoms: N_10  and  C_11 
REMARK    3  A    between atoms: C_11  and  C_12 
REMARK    4  A    between atoms: C_12  and  O_13 
REMARK    5  A    between atoms: O_13  and  C_14 
ROOT
HETATM    1  C   UNL     1      25.409  46.873  52.801  1.00  0.00     0.147 C 
HETATM    2  N   UNL     1      25.448  47.389  51.608  1.00  0.00    -0.205 NA
ENDROOT
BRANCH   2   3
HETATM    3  N   UNL     1      26.629  47.603  50.954  1.00  0.00    -0.149 NA
HETATM    4  C   UNL     1      26.702  47.963  49.617  1.00  0.00     0.241 C 
HETATM    5  O   UNL     1      27.626  47.511  48.937  1.00  0.00    -0.276 OA
HETATM    6  H   UNL     1      27.289  46.840  51.100  1.00  0.00     0.158 HD
BRANCH   4   7
HETATM    7  C   UNL     1      25.687  48.971  49.087  1.00  0.00     0.273 C 
BRANCH   7   8
HETATM    8  O   UNL     1      24.453  48.344  48.758  1.00  0.00    -0.343 OA
BRANCH   8   9
HETATM    9  C   UNL     1      23.373  49.162  48.570  1.00  0.00     0.069 A 
HETATM   10  C   UNL     1      22.249  48.526  48.037  1.00  0.00     0.037 A 
HETATM   11  C   UNL     1      21.081  49.244  47.776  1.00  0.00     0.003 A 
HETATM   12  C   UNL     1      21.032  50.609  48.042  1.00  0.00     0.000 A 
HETATM   13  C   UNL     1      22.148  51.252  48.575  1.00  0.00     0.003 A 
HETATM   14  C   UNL     1      23.314  50.530  48.845  1.00  0.00     0.037 A 
ENDBRANCH   8   9
ENDBRANCH   7   8
ENDBRANCH   4   7
ENDBRANCH   2   3
BRANCH   1  15
HETATM   15  C   UNL     1      26.510  46.436  53.640  1.00  0.00     0.017 A 
HETATM   16  C   UNL     1      26.913  47.155  54.762  1.00  0.00     0.018 A 
HETATM   17  C   UNL     1      26.392  48.420  55.347  1.00  0.00     0.069 C 
HETATM   18  N   UNL     1      27.987  46.507  55.314  1.00  0.00    -0.358 N 
HETATM   19  H   UNL     1      28.494  46.807  56.137  1.00  0.00     0.166 HD
HETATM   20  C   UNL     1      28.284  45.373  54.599  1.00  0.00     0.043 A 
HETATM   21  C   UNL     1      27.354  45.279  53.561  1.00  0.00     0.004 A 
HETATM   22  C   UNL     1      29.298  44.429  54.805  1.00  0.00     0.030 A 
HETATM   23  C   UNL     1      27.424  44.149  52.718  1.00  0.00     0.014 A 
HETATM   24  C   UNL     1      28.433  43.198  52.908  1.00  0.00     0.001 A 
HETATM   25  C   UNL     1      29.360  43.342  53.933  1.00  0.00     0.002 A 
ENDBRANCH   1  15
TORSDOF 5
ENDMDL
