MODEL 1
REMARK VINA RESULT:      -8.4      0.000      0.000
REMARK  12 active torsions:
REMARK  status: ('A' for Active; 'I' for Inactive)
REMARK    1  A    between atoms: C_7  and  N_8 
REMARK    2  A    between atoms: C_12  and  N_13 
REMARK       I    between atoms: N_13  and  C_14 
REMARK    3  A    between atoms: C_14  and  C_15 
REMARK    4  A    between atoms: C_15  and  C_16 
REMARK    5  A    between atoms: C_16  and  C_17 
REMARK    6  A    between atoms: C_17  and  C_18 
REMARK    7  A    between atoms: C_18  and  C_19 
REMARK    8  A    between atoms: C_19  and  C_20 
REMARK    9  A    between atoms: C_20  and  C_21 
REMARK   10  A    between atoms: C_21  and  C_22 
REMARK       I    between atoms: C_22  and  N_23 
REMARK   11  A    between atoms: N_23  and  C_24 
REMARK   12  A    between atoms: C_33  and  N_34 
ROOT
HETATM    1  C   UNL     1      37.198  51.994  43.386  1.00  0.00     0.000 C 
ENDROOT
BRANCH   1   2
HETATM    2  C   UNL     1      36.999  50.849  42.387  1.00  0.00     0.000 C 
BRANCH   2   3
HETATM    3  C   UNL     1      37.478  51.179  40.969  1.00  0.00     0.009 C 
BRANCH   3   4
HETATM    4  C   UNL     1      36.373  51.385  39.930  1.00  0.00     0.103 C 
BRANCH   4   5
HETATM    5  C   UNL     1      35.584  52.661  40.118  1.00  0.00     0.222 C 
HETATM    6  N   UNL     1      34.234  52.707  39.920  1.00  0.00    -0.327 N 
HETATM    7  H   UNL     1      33.921  53.659  40.085  1.00  0.00     0.169 HD
HETATM    8  O   UNL     1      36.128  53.716  40.451  1.00  0.00    -0.273 OA
BRANCH   6   9
HETATM    9  C   UNL     1      33.239  51.779  39.564  1.00  0.00     0.035 A 
HETATM   10  C   UNL     1      32.285  51.945  38.567  1.00  0.00     0.032 A 
HETATM   11  C   UNL     1      31.365  50.927  38.282  1.00  0.00     0.033 A 
HETATM   12  C   UNL     1      31.380  49.725  38.999  1.00  0.00     0.044 A 
HETATM   13  N   UNL     1      30.518  48.742  38.678  1.00  0.00    -0.359 N 
HETATM   14  C   UNL     1      32.309  49.527  40.041  1.00  0.00     0.014 A 
HETATM   15  C   UNL     1      30.503  47.544  39.283  1.00  0.00     0.007 A 
HETATM   16  H   UNL     1      29.860  48.909  37.917  1.00  0.00     0.166 HD
HETATM   17  C   UNL     1      29.539  46.504  38.810  1.00  0.00     0.068 C 
HETATM   18  C   UNL     1      31.389  47.304  40.330  1.00  0.00     0.048 A 
HETATM   19  C   UNL     1      32.263  48.306  40.759  1.00  0.00     0.020 A 
HETATM   20  C   UNL     1      33.235  50.573  40.292  1.00  0.00     0.045 A 
BRANCH  19  21
HETATM   21  N   UNL     1      33.213  47.976  41.733  1.00  0.00    -0.302 NA
HETATM   22  H   UNL     1      34.186  48.149  41.494  1.00  0.00     0.124 HD
HETATM   23  H   UNL     1      33.019  48.305  42.677  1.00  0.00     0.124 HD
ENDBRANCH  19  21
ENDBRANCH   6   9
ENDBRANCH   4   5
ENDBRANCH   3   4
ENDBRANCH   2   3
ENDBRANCH   1   2
BRANCH   1  24
HETATM   24  C   UNL     1      35.857  52.467  43.957  1.00  0.00     0.000 C 
BRANCH  24  25
HETATM   25  C   UNL     1      34.658  51.620  43.519  1.00  0.00     0.009 C 
BRANCH  25  26
HETATM   26  C   UNL     1      33.311  52.035  44.103  1.00  0.00     0.103 C 
BRANCH  26  27
HETATM   27  C   UNL     1      32.106  51.362  43.465  1.00  0.00     0.222 C 
HETATM   28  N   UNL     1      31.302  52.233  42.751  1.00  0.00    -0.327 N 
HETATM   29  H   UNL     1      31.522  53.220  42.835  1.00  0.00     0.169 HD
HETATM   30  O   UNL     1      31.928  50.154  43.592  1.00  0.00    -0.273 OA
BRANCH  28  31
HETATM   31  C   UNL     1      30.189  51.902  41.950  1.00  0.00     0.035 A 
HETATM   32  C   UNL     1      29.528  50.669  42.005  1.00  0.00     0.045 A 
HETATM   33  C   UNL     1      28.423  50.364  41.172  1.00  0.00     0.014 A 
HETATM   34  C   UNL     1      28.006  51.354  40.255  1.00  0.00     0.044 A 
HETATM   35  C   UNL     1      27.720  49.133  41.200  1.00  0.00     0.020 A 
HETATM   36  N   UNL     1      26.983  51.096  39.419  1.00  0.00    -0.359 N 
HETATM   37  C   UNL     1      28.662  52.590  40.194  1.00  0.00     0.033 A 
HETATM   38  H   UNL     1      26.702  51.825  38.764  1.00  0.00     0.166 HD
HETATM   39  C   UNL     1      26.334  49.921  39.380  1.00  0.00     0.007 A 
HETATM   40  C   UNL     1      25.246  49.723  38.375  1.00  0.00     0.068 C 
HETATM   41  C   UNL     1      26.711  48.911  40.261  1.00  0.00     0.048 A 
HETATM   42  C   UNL     1      29.747  52.858  41.033  1.00  0.00     0.032 A 
BRANCH  35  43
HETATM   43  N   UNL     1      28.150  48.044  41.970  1.00  0.00    -0.302 NA
HETATM   44  H   UNL     1      29.155  47.928  42.064  1.00  0.00     0.124 HD
HETATM   45  H   UNL     1      27.702  47.149  41.776  1.00  0.00     0.124 HD
ENDBRANCH  35  43
ENDBRANCH  28  31
ENDBRANCH  26  27
ENDBRANCH  25  26
ENDBRANCH  24  25
ENDBRANCH   1  24
TORSDOF 12
ENDMDL
MODEL 2
REMARK VINA RESULT:      -8.0     12.471     16.041
REMARK  12 active torsions:
REMARK  status: ('A' for Active; 'I' for Inactive)
REMARK    1  A    between atoms: C_7  and  N_8 
REMARK    2  A    between atoms: C_12  and  N_13 
REMARK       I    between atoms: N_13  and  C_14 
REMARK    3  A    between atoms: C_14  and  C_15 
REMARK    4  A    between atoms: C_15  and  C_16 
REMARK    5  A    between atoms: C_16  and  C_17 
REMARK    6  A    between atoms: C_17  and  C_18 
REMARK    7  A    between atoms: C_18  and  C_19 
REMARK    8  A    between atoms: C_19  and  C_20 
REMARK    9  A    between atoms: C_20  and  C_21 
REMARK   10  A    between atoms: C_21  and  C_22 
REMARK       I    between atoms: C_22  and  N_23 
REMARK   11  A    between atoms: N_23  and  C_24 
REMARK   12  A    between atoms: C_33  and  N_34 
ROOT
HETATM    1  C   UNL     1      22.431  47.361  48.500  1.00  0.00     0.000 C 
ENDROOT
BRANCH   1   2
HETATM    2  C   UNL     1      22.114  48.634  47.708  1.00  0.00     0.000 C 
BRANCH   2   3
HETATM    3  C   UNL     1      22.917  49.857  48.163  1.00  0.00     0.009 C 
BRANCH   3   4
HETATM    4  C   UNL     1      22.090  51.028  48.700  1.00  0.00     0.103 C 
BRANCH   4   5
HETATM    5  C   UNL     1      21.650  50.859  50.138  1.00  0.00     0.222 C 
HETATM    6  N   UNL     1      20.459  50.274  50.460  1.00  0.00    -0.327 N 
HETATM    7  H   UNL     1      20.365  50.283  51.472  1.00  0.00     0.169 HD
HETATM    8  O   UNL     1      22.346  51.247  51.078  1.00  0.00    -0.273 OA
BRANCH   6   9
HETATM    9  C   UNL     1      19.399  49.693  49.742  1.00  0.00     0.035 A 
HETATM   10  C   UNL     1      19.012  48.359  49.793  1.00  0.00     0.032 A 
HETATM   11  C   UNL     1      17.911  47.906  49.054  1.00  0.00     0.033 A 
HETATM   12  C   UNL     1      17.181  48.783  48.242  1.00  0.00     0.044 A 
HETATM   13  N   UNL     1      16.099  48.337  47.577  1.00  0.00    -0.359 N 
HETATM   14  C   UNL     1      17.559  50.137  48.135  1.00  0.00     0.014 A 
HETATM   15  C   UNL     1      15.320  49.124  46.820  1.00  0.00     0.007 A 
HETATM   16  H   UNL     1      15.845  47.355  47.677  1.00  0.00     0.166 HD
HETATM   17  C   UNL     1      14.109  48.538  46.170  1.00  0.00     0.068 C 
HETATM   18  C   UNL     1      15.659  50.466  46.668  1.00  0.00     0.048 A 
HETATM   19  C   UNL     1      16.810  50.977  47.275  1.00  0.00     0.020 A 
HETATM   20  C   UNL     1      18.670  50.564  48.909  1.00  0.00     0.045 A 
BRANCH  19  21
HETATM   21  N   UNL     1      17.041  52.355  47.189  1.00  0.00    -0.302 NA
HETATM   22  H   UNL     1      17.754  52.734  47.806  1.00  0.00     0.124 HD
HETATM   23  H   UNL     1      17.152  52.733  46.249  1.00  0.00     0.124 HD
ENDBRANCH  19  21
ENDBRANCH   6   9
ENDBRANCH   4   5
ENDBRANCH   3   4
ENDBRANCH   2   3
ENDBRANCH   1   2
BRANCH   1  24
HETATM   24  C   UNL     1      23.515  47.621  49.550  1.00  0.00     0.000 C 
BRANCH  24  25
HETATM   25  C   UNL     1      24.547  46.495  49.675  1.00  0.00     0.009 C 
BRANCH  25  26
HETATM   26  C   UNL     1      24.045  45.212  50.331  1.00  0.00     0.103 C 
BRANCH  26  27
HETATM   27  C   UNL     1      24.831  44.773  51.556  1.00  0.00     0.222 C 
HETATM   28  N   UNL     1      26.120  45.276  51.594  1.00  0.00    -0.327 N 
HETATM   29  H   UNL     1      26.438  45.761  50.762  1.00  0.00     0.169 HD
HETATM   30  O   UNL     1      24.310  44.056  52.405  1.00  0.00    -0.273 OA
BRANCH  28  31
HETATM   31  C   UNL     1      27.050  45.155  52.648  1.00  0.00     0.035 A 
HETATM   32  C   UNL     1      28.068  44.194  52.684  1.00  0.00     0.045 A 
HETATM   33  C   UNL     1      28.974  44.091  53.769  1.00  0.00     0.014 A 
HETATM   34  C   UNL     1      28.812  44.995  54.842  1.00  0.00     0.044 A 
HETATM   35  C   UNL     1      30.023  43.140  53.842  1.00  0.00     0.020 A 
HETATM   36  N   UNL     1      29.627  44.912  55.909  1.00  0.00    -0.359 N 
HETATM   37  C   UNL     1      27.796  45.960  54.813  1.00  0.00     0.033 A 
HETATM   38  H   UNL     1      29.488  45.574  56.672  1.00  0.00     0.166 HD
HETATM   39  C   UNL     1      30.592  43.987  56.036  1.00  0.00     0.007 A 
HETATM   40  C   UNL     1      31.406  43.952  57.289  1.00  0.00     0.068 C 
HETATM   41  C   UNL     1      30.790  43.071  55.008  1.00  0.00     0.048 A 
HETATM   42  C   UNL     1      26.921  46.034  53.726  1.00  0.00     0.032 A 
BRANCH  35  43
HETATM   43  N   UNL     1      30.171  42.115  52.898  1.00  0.00    -0.302 NA
HETATM   44  H   UNL     1      31.123  41.814  52.706  1.00  0.00     0.124 HD
HETATM   45  H   UNL     1      29.646  42.220  52.032  1.00  0.00     0.124 HD
ENDBRANCH  35  43
ENDBRANCH  28  31
ENDBRANCH  26  27
ENDBRANCH  25  26
ENDBRANCH  24  25
ENDBRANCH   1  24
TORSDOF 12
ENDMDL
MODEL 3
REMARK VINA RESULT:      -7.9     11.308     15.142
REMARK  12 active torsions:
REMARK  status: ('A' for Active; 'I' for Inactive)
REMARK    1  A    between atoms: C_7  and  N_8 
REMARK    2  A    between atoms: C_12  and  N_13 
REMARK       I    between atoms: N_13  and  C_14 
REMARK    3  A    between atoms: C_14  and  C_15 
REMARK    4  A    between atoms: C_15  and  C_16 
REMARK    5  A    between atoms: C_16  and  C_17 
REMARK    6  A    between atoms: C_17  and  C_18 
REMARK    7  A    between atoms: C_18  and  C_19 
REMARK    8  A    between atoms: C_19  and  C_20 
REMARK    9  A    between atoms: C_20  and  C_21 
REMARK   10  A    between atoms: C_21  and  C_22 
REMARK       I    between atoms: C_22  and  N_23 
REMARK   11  A    between atoms: N_23  and  C_24 
REMARK   12  A    between atoms: C_33  and  N_34 
ROOT
HETATM    1  C   UNL     1      21.960  44.758  47.377  1.00  0.00     0.000 C 
ENDROOT
BRANCH   1   2
HETATM    2  C   UNL     1      21.004  44.838  48.573  1.00  0.00     0.000 C 
BRANCH   2   3
HETATM    3  C   UNL     1      19.664  45.506  48.245  1.00  0.00     0.009 C 
BRANCH   3   4
HETATM    4  C   UNL     1      19.757  46.841  47.500  1.00  0.00     0.103 C 
BRANCH   4   5
HETATM    5  C   UNL     1      19.296  48.030  48.314  1.00  0.00     0.222 C 
HETATM    6  N   UNL     1      20.168  48.996  48.730  1.00  0.00    -0.327 N 
HETATM    7  H   UNL     1      19.647  49.681  49.270  1.00  0.00     0.169 HD
HETATM    8  O   UNL     1      18.116  48.174  48.641  1.00  0.00    -0.273 OA
BRANCH   6   9
HETATM    9  C   UNL     1      21.544  49.238  48.581  1.00  0.00     0.035 A 
HETATM   10  C   UNL     1      22.117  50.282  47.863  1.00  0.00     0.032 A 
HETATM   11  C   UNL     1      23.509  50.439  47.818  1.00  0.00     0.033 A 
HETATM   12  C   UNL     1      24.354  49.545  48.486  1.00  0.00     0.044 A 
HETATM   13  N   UNL     1      25.686  49.741  48.468  1.00  0.00    -0.359 N 
HETATM   14  C   UNL     1      23.817  48.453  49.198  1.00  0.00     0.014 A 
HETATM   15  C   UNL     1      26.557  48.959  49.124  1.00  0.00     0.007 A 
HETATM   16  H   UNL     1      26.047  50.540  47.950  1.00  0.00     0.166 HD
HETATM   17  C   UNL     1      28.012  49.299  49.082  1.00  0.00     0.068 C 
HETATM   18  C   UNL     1      26.080  47.856  49.828  1.00  0.00     0.048 A 
HETATM   19  C   UNL     1      24.715  47.556  49.830  1.00  0.00     0.020 A 
HETATM   20  C   UNL     1      22.404  48.334  49.234  1.00  0.00     0.045 A 
BRANCH  19  21
HETATM   21  N   UNL     1      24.273  46.510  50.648  1.00  0.00    -0.302 NA
HETATM   22  H   UNL     1      24.359  45.571  50.271  1.00  0.00     0.124 HD
HETATM   23  H   UNL     1      24.594  46.532  51.615  1.00  0.00     0.124 HD
ENDBRANCH  19  21
ENDBRANCH   6   9
ENDBRANCH   4   5
ENDBRANCH   3   4
ENDBRANCH   2   3
ENDBRANCH   1   2
BRANCH   1  24
HETATM   24  C   UNL     1      23.382  44.416  47.831  1.00  0.00     0.000 C 
BRANCH  24  25
HETATM   25  C   UNL     1      23.452  43.693  49.179  1.00  0.00     0.009 C 
BRANCH  25  26
HETATM   26  C   UNL     1      24.611  42.714  49.343  1.00  0.00     0.103 C 
BRANCH  26  27
HETATM   27  C   UNL     1      25.752  43.218  50.212  1.00  0.00     0.222 C 
HETATM   28  N   UNL     1      25.897  42.515  51.396  1.00  0.00    -0.327 N 
HETATM   29  H   UNL     1      25.168  41.844  51.612  1.00  0.00     0.169 HD
HETATM   30  O   UNL     1      26.454  44.153  49.837  1.00  0.00    -0.273 OA
BRANCH  28  31
HETATM   31  C   UNL     1      26.928  42.656  52.348  1.00  0.00     0.035 A 
HETATM   32  C   UNL     1      27.126  43.809  53.118  1.00  0.00     0.045 A 
HETATM   33  C   UNL     1      28.184  43.922  54.055  1.00  0.00     0.014 A 
HETATM   34  C   UNL     1      29.059  42.821  54.185  1.00  0.00     0.044 A 
HETATM   35  C   UNL     1      28.416  45.066  54.859  1.00  0.00     0.020 A 
HETATM   36  N   UNL     1      30.099  42.896  55.036  1.00  0.00    -0.359 N 
HETATM   37  C   UNL     1      28.867  41.664  53.419  1.00  0.00     0.033 A 
HETATM   38  H   UNL     1      30.718  42.090  55.110  1.00  0.00     0.166 HD
HETATM   39  C   UNL     1      30.380  43.986  55.770  1.00  0.00     0.007 A 
HETATM   40  C   UNL     1      31.592  43.980  56.645  1.00  0.00     0.068 C 
HETATM   41  C   UNL     1      29.550  45.098  55.674  1.00  0.00     0.048 A 
HETATM   42  C   UNL     1      27.812  41.586  52.505  1.00  0.00     0.032 A 
BRANCH  35  43
HETATM   43  N   UNL     1      27.691  46.254  54.697  1.00  0.00    -0.302 NA
HETATM   44  H   UNL     1      27.093  46.308  53.877  1.00  0.00     0.124 HD
HETATM   45  H   UNL     1      28.212  47.121  54.819  1.00  0.00     0.124 HD
ENDBRANCH  35  43
ENDBRANCH  28  31
ENDBRANCH  26  27
ENDBRANCH  25  26
ENDBRANCH  24  25
ENDBRANCH   1  24
TORSDOF 12
ENDMDL
MODEL 4
REMARK VINA RESULT:      -7.8     12.622     16.113
REMARK  12 active torsions:
REMARK  status: ('A' for Active; 'I' for Inactive)
REMARK    1  A    between atoms: C_7  and  N_8 
REMARK    2  A    between atoms: C_12  and  N_13 
REMARK       I    between atoms: N_13  and  C_14 
REMARK    3  A    between atoms: C_14  and  C_15 
REMARK    4  A    between atoms: C_15  and  C_16 
REMARK    5  A    between atoms: C_16  and  C_17 
REMARK    6  A    between atoms: C_17  and  C_18 
REMARK    7  A    between atoms: C_18  and  C_19 
REMARK    8  A    between atoms: C_19  and  C_20 
REMARK    9  A    between atoms: C_20  and  C_21 
REMARK   10  A    between atoms: C_21  and  C_22 
REMARK       I    between atoms: C_22  and  N_23 
REMARK   11  A    between atoms: N_23  and  C_24 
REMARK   12  A    between atoms: C_33  and  N_34 
ROOT
HETATM    1  C   UNL     1      24.331  47.870  50.084  1.00  0.00     0.000 C 
ENDROOT
BRANCH   1   2
HETATM    2  C   UNL     1      23.569  47.663  48.771  1.00  0.00     0.000 C 
BRANCH   2   3
HETATM    3  C   UNL     1      22.214  48.379  48.727  1.00  0.00     0.009 C 
BRANCH   3   4
HETATM    4  C   UNL     1      22.274  49.889  48.477  1.00  0.00     0.103 C 
BRANCH   4   5
HETATM    5  C   UNL     1      21.855  50.724  49.666  1.00  0.00     0.222 C 
HETATM    6  N   UNL     1      20.579  51.191  49.801  1.00  0.00    -0.327 N 
HETATM    7  H   UNL     1      20.531  51.737  50.657  1.00  0.00     0.169 HD
HETATM    8  O   UNL     1      22.650  51.025  50.559  1.00  0.00    -0.273 OA
BRANCH   6   9
HETATM    9  C   UNL     1      19.387  51.084  49.064  1.00  0.00     0.035 A 
HETATM   10  C   UNL     1      18.806  52.089  48.298  1.00  0.00     0.032 A 
HETATM   11  C   UNL     1      17.629  51.847  47.577  1.00  0.00     0.033 A 
HETATM   12  C   UNL     1      17.008  50.593  47.617  1.00  0.00     0.044 A 
HETATM   13  N   UNL     1      15.904  50.368  46.879  1.00  0.00    -0.359 N 
HETATM   14  C   UNL     1      17.544  49.555  48.406  1.00  0.00     0.014 A 
HETATM   15  C   UNL     1      15.280  49.181  46.824  1.00  0.00     0.007 A 
HETATM   16  H   UNL     1      15.540  51.134  46.313  1.00  0.00     0.166 HD
HETATM   17  C   UNL     1      14.094  49.025  45.929  1.00  0.00     0.068 C 
HETATM   18  C   UNL     1      15.760  48.129  47.599  1.00  0.00     0.048 A 
HETATM   19  C   UNL     1      16.860  48.315  48.440  1.00  0.00     0.020 A 
HETATM   20  C   UNL     1      18.744  49.831  49.112  1.00  0.00     0.045 A 
BRANCH  19  21
HETATM   21  N   UNL     1      17.376  47.196  49.106  1.00  0.00    -0.302 NA
HETATM   22  H   UNL     1      18.046  47.378  49.847  1.00  0.00     0.124 HD
HETATM   23  H   UNL     1      16.694  46.503  49.411  1.00  0.00     0.124 HD
ENDBRANCH  19  21
ENDBRANCH   6   9
ENDBRANCH   4   5
ENDBRANCH   3   4
ENDBRANCH   2   3
ENDBRANCH   1   2
BRANCH   1  24
HETATM   24  C   UNL     1      25.296  46.710  50.350  1.00  0.00     0.000 C 
BRANCH  24  25
HETATM   25  C   UNL     1      24.922  45.409  49.634  1.00  0.00     0.009 C 
BRANCH  25  26
HETATM   26  C   UNL     1      24.360  44.305  50.525  1.00  0.00     0.103 C 
BRANCH  26  27
HETATM   27  C   UNL     1      25.123  44.082  51.821  1.00  0.00     0.222 C 
HETATM   28  N   UNL     1      26.448  43.732  51.629  1.00  0.00    -0.327 N 
HETATM   29  H   UNL     1      26.728  43.539  50.673  1.00  0.00     0.169 HD
HETATM   30  O   UNL     1      24.566  44.233  52.905  1.00  0.00    -0.273 OA
BRANCH  28  31
HETATM   31  C   UNL     1      27.441  43.581  52.619  1.00  0.00     0.035 A 
HETATM   32  C   UNL     1      27.783  44.578  53.540  1.00  0.00     0.045 A 
HETATM   33  C   UNL     1      28.798  44.397  54.512  1.00  0.00     0.014 A 
HETATM   34  C   UNL     1      29.480  43.160  54.518  1.00  0.00     0.044 A 
HETATM   35  C   UNL     1      29.170  45.376  55.467  1.00  0.00     0.020 A 
HETATM   36  N   UNL     1      30.476  42.955  55.399  1.00  0.00    -0.359 N 
HETATM   37  C   UNL     1      29.144  42.156  53.600  1.00  0.00     0.033 A 
HETATM   38  H   UNL     1      30.955  42.055  55.382  1.00  0.00     0.166 HD
HETATM   39  C   UNL     1      30.891  43.882  56.279  1.00  0.00     0.007 A 
HETATM   40  C   UNL     1      32.043  43.567  57.178  1.00  0.00     0.068 C 
HETATM   41  C   UNL     1      30.254  45.118  56.309  1.00  0.00     0.048 A 
HETATM   42  C   UNL     1      28.135  42.369  52.656  1.00  0.00     0.032 A 
BRANCH  35  43
HETATM   43  N   UNL     1      28.652  46.677  55.445  1.00  0.00    -0.302 NA
HETATM   44  H   UNL     1      29.279  47.406  55.112  1.00  0.00     0.124 HD
HETATM   45  H   UNL     1      28.162  46.983  56.284  1.00  0.00     0.124 HD
ENDBRANCH  35  43
ENDBRANCH  28  31
ENDBRANCH  26  27
ENDBRANCH  25  26
ENDBRANCH  24  25
ENDBRANCH   1  24
TORSDOF 12
ENDMDL
MODEL 5
REMARK VINA RESULT:      -7.7     12.257     15.161
REMARK  12 active torsions:
REMARK  status: ('A' for Active; 'I' for Inactive)
REMARK    1  A    between atoms: C_7  and  N_8 
REMARK    2  A    between atoms: C_12  and  N_13 
REMARK       I    between atoms: N_13  and  C_14 
REMARK    3  A    between atoms: C_14  and  C_15 
REMARK    4  A    between atoms: C_15  and  C_16 
REMARK    5  A    between atoms: C_16  and  C_17 
REMARK    6  A    between atoms: C_17  and  C_18 
REMARK    7  A    between atoms: C_18  and  C_19 
REMARK    8  A    between atoms: C_19  and  C_20 
REMARK    9  A    between atoms: C_20  and  C_21 
REMARK   10  A    between atoms: C_21  and  C_22 
REMARK       I    between atoms: C_22  and  N_23 
REMARK   11  A    between atoms: N_23  and  C_24 
REMARK   12  A    between atoms: C_33  and  N_34 
ROOT
HETATM    1  C   UNL     1      20.512  50.801  48.341  1.00  0.00     0.000 C 
ENDROOT
BRANCH   1   2
HETATM    2  C   UNL     1      19.688  52.082  48.516  1.00  0.00     0.000 C 
BRANCH   2   3
HETATM    3  C   UNL     1      18.372  52.079  47.731  1.00  0.00     0.009 C 
BRANCH   3   4
HETATM    4  C   UNL     1      18.441  51.469  46.328  1.00  0.00     0.103 C 
BRANCH   4   5
HETATM    5  C   UNL     1      17.296  50.534  46.009  1.00  0.00     0.222 C 
HETATM    6  N   UNL     1      17.280  49.242  46.449  1.00  0.00    -0.327 N 
HETATM    7  H   UNL     1      16.432  48.800  46.105  1.00  0.00     0.169 HD
HETATM    8  O   UNL     1      16.332  50.899  45.332  1.00  0.00    -0.273 OA
BRANCH   6   9
HETATM    9  C   UNL     1      18.127  48.437  47.232  1.00  0.00     0.035 A 
HETATM   10  C   UNL     1      18.035  48.250  48.606  1.00  0.00     0.032 A 
HETATM   11  C   UNL     1      18.920  47.391  49.271  1.00  0.00     0.033 A 
HETATM   12  C   UNL     1      19.921  46.708  48.568  1.00  0.00     0.044 A 
HETATM   13  N   UNL     1      20.730  45.851  49.219  1.00  0.00    -0.359 N 
HETATM   14  C   UNL     1      20.070  46.893  47.179  1.00  0.00     0.014 A 
HETATM   15  C   UNL     1      21.678  45.123  48.610  1.00  0.00     0.007 A 
HETATM   16  H   UNL     1      20.597  45.732  50.222  1.00  0.00     0.166 HD
HETATM   17  C   UNL     1      22.486  44.160  49.418  1.00  0.00     0.068 C 
HETATM   18  C   UNL     1      21.879  45.282  47.241  1.00  0.00     0.048 A 
HETATM   19  C   UNL     1      21.119  46.206  46.519  1.00  0.00     0.020 A 
HETATM   20  C   UNL     1      19.147  47.759  46.537  1.00  0.00     0.045 A 
BRANCH  19  21
HETATM   21  N   UNL     1      21.275  46.242  45.128  1.00  0.00    -0.302 NA
HETATM   22  H   UNL     1      20.493  46.607  44.592  1.00  0.00     0.124 HD
HETATM   23  H   UNL     1      22.150  46.636  44.786  1.00  0.00     0.124 HD
ENDBRANCH  19  21
ENDBRANCH   6   9
ENDBRANCH   4   5
ENDBRANCH   3   4
ENDBRANCH   2   3
ENDBRANCH   1   2
BRANCH   1  24
HETATM   24  C   UNL     1      21.452  50.583  49.530  1.00  0.00     0.000 C 
BRANCH  24  25
HETATM   25  C   UNL     1      22.854  50.107  49.140  1.00  0.00     0.009 C 
BRANCH  25  26
HETATM   26  C   UNL     1      23.067  48.596  49.164  1.00  0.00     0.103 C 
BRANCH  26  27
HETATM   27  C   UNL     1      24.345  48.144  49.852  1.00  0.00     0.222 C 
HETATM   28  N   UNL     1      24.159  47.083  50.721  1.00  0.00    -0.327 N 
HETATM   29  H   UNL     1      23.198  46.813  50.901  1.00  0.00     0.169 HD
HETATM   30  O   UNL     1      25.414  48.695  49.605  1.00  0.00    -0.273 OA
BRANCH  28  31
HETATM   31  C   UNL     1      25.156  46.361  51.411  1.00  0.00     0.035 A 
HETATM   32  C   UNL     1      25.666  46.736  52.659  1.00  0.00     0.045 A 
HETATM   33  C   UNL     1      26.681  45.996  53.316  1.00  0.00     0.014 A 
HETATM   34  C   UNL     1      27.184  44.853  52.656  1.00  0.00     0.044 A 
HETATM   35  C   UNL     1      27.220  46.334  54.583  1.00  0.00     0.020 A 
HETATM   36  N   UNL     1      28.173  44.138  53.224  1.00  0.00    -0.359 N 
HETATM   37  C   UNL     1      26.678  44.471  51.406  1.00  0.00     0.033 A 
HETATM   38  H   UNL     1      28.521  43.320  52.727  1.00  0.00     0.166 HD
HETATM   39  C   UNL     1      28.745  44.464  54.395  1.00  0.00     0.007 A 
HETATM   40  C   UNL     1      29.873  43.631  54.910  1.00  0.00     0.068 C 
HETATM   41  C   UNL     1      28.288  45.584  55.083  1.00  0.00     0.048 A 
HETATM   42  C   UNL     1      25.675  45.224  50.788  1.00  0.00     0.032 A 
BRANCH  35  43
HETATM   43  N   UNL     1      26.889  47.524  55.244  1.00  0.00    -0.302 NA
HETATM   44  H   UNL     1      25.986  47.931  55.011  1.00  0.00     0.124 HD
HETATM   45  H   UNL     1      27.610  48.242  55.270  1.00  0.00     0.124 HD
ENDBRANCH  35  43
ENDBRANCH  28  31
ENDBRANCH  26  27
ENDBRANCH  25  26
ENDBRANCH  24  25
ENDBRANCH   1  24
TORSDOF 12
ENDMDL
MODEL 6
REMARK VINA RESULT:      -7.6      2.879      8.045
REMARK  12 active torsions:
REMARK  status: ('A' for Active; 'I' for Inactive)
REMARK    1  A    between atoms: C_7  and  N_8 
REMARK    2  A    between atoms: C_12  and  N_13 
REMARK       I    between atoms: N_13  and  C_14 
REMARK    3  A    between atoms: C_14  and  C_15 
REMARK    4  A    between atoms: C_15  and  C_16 
REMARK    5  A    between atoms: C_16  and  C_17 
REMARK    6  A    between atoms: C_17  and  C_18 
REMARK    7  A    between atoms: C_18  and  C_19 
REMARK    8  A    between atoms: C_19  and  C_20 
REMARK    9  A    between atoms: C_20  and  C_21 
REMARK   10  A    between atoms: C_21  and  C_22 
REMARK       I    between atoms: C_22  and  N_23 
REMARK   11  A    between atoms: N_23  and  C_24 
REMARK   12  A    between atoms: C_33  and  N_34 
ROOT
HETATM    1  C   UNL     1      25.839  45.689  41.180  1.00  0.00     0.000 C 
ENDROOT
BRANCH   1   2
HETATM    2  C   UNL     1      24.983  46.787  40.540  1.00  0.00     0.000 C 
BRANCH   2   3
HETATM    3  C   UNL     1      25.119  46.863  39.015  1.00  0.00     0.009 C 
BRANCH   3   4
HETATM    4  C   UNL     1      25.968  48.022  38.484  1.00  0.00     0.103 C 
BRANCH   4   5
HETATM    5  C   UNL     1      25.345  49.384  38.695  1.00  0.00     0.222 C 
HETATM    6  N   UNL     1      25.894  50.300  39.547  1.00  0.00    -0.327 N 
HETATM    7  H   UNL     1      25.305  51.128  39.543  1.00  0.00     0.169 HD
HETATM    8  O   UNL     1      24.313  49.722  38.111  1.00  0.00    -0.273 OA
BRANCH   6   9
HETATM    9  C   UNL     1      27.029  50.348  40.374  1.00  0.00     0.035 A 
HETATM   10  C   UNL     1      27.463  49.339  41.226  1.00  0.00     0.032 A 
HETATM   11  C   UNL     1      28.637  49.493  41.976  1.00  0.00     0.033 A 
HETATM   12  C   UNL     1      29.394  50.668  41.891  1.00  0.00     0.044 A 
HETATM   13  N   UNL     1      30.543  50.777  42.585  1.00  0.00    -0.359 N 
HETATM   14  C   UNL     1      28.973  51.730  41.065  1.00  0.00     0.014 A 
HETATM   15  C   UNL     1      31.348  51.848  42.518  1.00  0.00     0.007 A 
HETATM   16  H   UNL     1      30.826  49.993  43.170  1.00  0.00     0.166 HD
HETATM   17  C   UNL     1      32.629  51.842  43.288  1.00  0.00     0.068 C 
HETATM   18  C   UNL     1      30.969  52.932  41.730  1.00  0.00     0.048 A 
HETATM   19  C   UNL     1      29.755  52.912  41.039  1.00  0.00     0.020 A 
HETATM   20  C   UNL     1      27.788  51.533  40.309  1.00  0.00     0.045 A 
BRANCH  19  21
HETATM   21  N   UNL     1      29.476  53.972  40.168  1.00  0.00    -0.302 NA
HETATM   22  H   UNL     1      28.559  54.399  40.251  1.00  0.00     0.124 HD
HETATM   23  H   UNL     1      30.194  54.692  40.095  1.00  0.00     0.124 HD
ENDBRANCH  19  21
ENDBRANCH   6   9
ENDBRANCH   4   5
ENDBRANCH   3   4
ENDBRANCH   2   3
ENDBRANCH   1   2
BRANCH   1  24
HETATM   24  C   UNL     1      26.057  44.524  40.210  1.00  0.00     0.000 C 
BRANCH  24  25
HETATM   25  C   UNL     1      27.527  44.258  39.873  1.00  0.00     0.009 C 
BRANCH  25  26
HETATM   26  C   UNL     1      27.930  44.526  38.425  1.00  0.00     0.103 C 
BRANCH  26  27
HETATM   27  C   UNL     1      29.069  45.519  38.255  1.00  0.00     0.222 C 
HETATM   28  N   UNL     1      29.083  46.514  39.217  1.00  0.00    -0.327 N 
HETATM   29  H   UNL     1      28.281  46.551  39.837  1.00  0.00     0.169 HD
HETATM   30  O   UNL     1      29.879  45.386  37.342  1.00  0.00    -0.273 OA
BRANCH  28  31
HETATM   31  C   UNL     1      30.071  47.502  39.406  1.00  0.00     0.035 A 
HETATM   32  C   UNL     1      30.100  48.718  38.713  1.00  0.00     0.045 A 
HETATM   33  C   UNL     1      31.120  49.682  38.916  1.00  0.00     0.014 A 
HETATM   34  C   UNL     1      32.135  49.370  39.847  1.00  0.00     0.044 A 
HETATM   35  C   UNL     1      31.183  50.928  38.242  1.00  0.00     0.020 A 
HETATM   36  N   UNL     1      33.143  50.239  40.047  1.00  0.00    -0.359 N 
HETATM   37  C   UNL     1      32.113  48.155  40.545  1.00  0.00     0.033 A 
HETATM   38  H   UNL     1      33.865  49.990  40.721  1.00  0.00     0.166 HD
HETATM   39  C   UNL     1      33.263  51.401  39.383  1.00  0.00     0.007 A 
HETATM   40  C   UNL     1      34.452  52.268  39.645  1.00  0.00     0.068 C 
HETATM   41  C   UNL     1      32.291  51.752  38.452  1.00  0.00     0.048 A 
HETATM   42  C   UNL     1      31.090  47.229  40.321  1.00  0.00     0.032 A 
BRANCH  35  43
HETATM   43  N   UNL     1      30.306  51.261  37.202  1.00  0.00    -0.302 NA
HETATM   44  H   UNL     1      29.433  51.707  37.474  1.00  0.00     0.124 HD
HETATM   45  H   UNL     1      30.137  50.539  36.504  1.00  0.00     0.124 HD
ENDBRANCH  35  43
ENDBRANCH  28  31
ENDBRANCH  26  27
ENDBRANCH  25  26
ENDBRANCH  24  25
ENDBRANCH   1  24
TORSDOF 12
ENDMDL
MODEL 7
REMARK VINA RESULT:      -7.5     11.615     14.226
REMARK  12 active torsions:
REMARK  status: ('A' for Active; 'I' for Inactive)
REMARK    1  A    between atoms: C_7  and  N_8 
REMARK    2  A    between atoms: C_12  and  N_13 
REMARK       I    between atoms: N_13  and  C_14 
REMARK    3  A    between atoms: C_14  and  C_15 
REMARK    4  A    between atoms: C_15  and  C_16 
REMARK    5  A    between atoms: C_16  and  C_17 
REMARK    6  A    between atoms: C_17  and  C_18 
REMARK    7  A    between atoms: C_18  and  C_19 
REMARK    8  A    between atoms: C_19  and  C_20 
REMARK    9  A    between atoms: C_20  and  C_21 
REMARK   10  A    between atoms: C_21  and  C_22 
REMARK       I    between atoms: C_22  and  N_23 
REMARK   11  A    between atoms: N_23  and  C_24 
REMARK   12  A    between atoms: C_33  and  N_34 
ROOT
HETATM    1  C   UNL     1      26.896  46.809  54.893  1.00  0.00     0.000 C 
ENDROOT
BRANCH   1   2
HETATM    2  C   UNL     1      26.625  47.490  53.547  1.00  0.00     0.000 C 
BRANCH   2   3
HETATM    3  C   UNL     1      26.100  46.535  52.469  1.00  0.00     0.009 C 
BRANCH   3   4
HETATM    4  C   UNL     1      25.087  47.135  51.491  1.00  0.00     0.103 C 
BRANCH   4   5
HETATM    5  C   UNL     1      25.472  46.980  50.037  1.00  0.00     0.222 C 
HETATM    6  N   UNL     1      24.908  47.749  49.059  1.00  0.00    -0.327 N 
HETATM    7  H   UNL     1      25.301  47.463  48.166  1.00  0.00     0.169 HD
HETATM    8  O   UNL     1      26.307  46.149  49.673  1.00  0.00    -0.273 OA
BRANCH   6   9
HETATM    9  C   UNL     1      23.965  48.790  49.019  1.00  0.00     0.035 A 
HETATM   10  C   UNL     1      24.240  50.133  48.788  1.00  0.00     0.032 A 
HETATM   11  C   UNL     1      23.204  51.076  48.737  1.00  0.00     0.033 A 
HETATM   12  C   UNL     1      21.872  50.689  48.924  1.00  0.00     0.044 A 
HETATM   13  N   UNL     1      20.888  51.603  48.824  1.00  0.00    -0.359 N 
HETATM   14  C   UNL     1      21.551  49.343  49.193  1.00  0.00     0.014 A 
HETATM   15  C   UNL     1      19.585  51.303  48.940  1.00  0.00     0.007 A 
HETATM   16  H   UNL     1      21.147  52.568  48.624  1.00  0.00     0.166 HD
HETATM   17  C   UNL     1      18.572  52.385  48.757  1.00  0.00     0.068 C 
HETATM   18  C   UNL     1      19.216  49.990  49.224  1.00  0.00     0.048 A 
HETATM   19  C   UNL     1      20.191  49.007  49.409  1.00  0.00     0.020 A 
HETATM   20  C   UNL     1      22.624  48.414  49.224  1.00  0.00     0.045 A 
BRANCH  19  21
HETATM   21  N   UNL     1      19.767  47.683  49.572  1.00  0.00    -0.302 NA
HETATM   22  H   UNL     1      19.807  47.306  50.515  1.00  0.00     0.124 HD
HETATM   23  H   UNL     1      18.879  47.439  49.134  1.00  0.00     0.124 HD
ENDBRANCH  19  21
ENDBRANCH   6   9
ENDBRANCH   4   5
ENDBRANCH   3   4
ENDBRANCH   2   3
ENDBRANCH   1   2
BRANCH   1  24
HETATM   24  C   UNL     1      27.251  45.332  54.702  1.00  0.00     0.000 C 
BRANCH  24  25
HETATM   25  C   UNL     1      28.736  45.015  54.904  1.00  0.00     0.009 C 
BRANCH  25  26
HETATM   26  C   UNL     1      29.228  43.725  54.254  1.00  0.00     0.103 C 
BRANCH  26  27
HETATM   27  C   UNL     1      28.152  42.918  53.546  1.00  0.00     0.222 C 
HETATM   28  N   UNL     1      27.857  43.385  52.277  1.00  0.00    -0.327 N 
HETATM   29  H   UNL     1      28.282  44.267  52.013  1.00  0.00     0.169 HD
HETATM   30  O   UNL     1      27.644  41.942  54.093  1.00  0.00    -0.273 OA
BRANCH  28  31
HETATM   31  C   UNL     1      27.002  42.787  51.327  1.00  0.00     0.035 A 
HETATM   32  C   UNL     1      25.693  43.216  51.077  1.00  0.00     0.045 A 
HETATM   33  C   UNL     1      24.856  42.580  50.126  1.00  0.00     0.014 A 
HETATM   34  C   UNL     1      25.385  41.469  49.432  1.00  0.00     0.044 A 
HETATM   35  C   UNL     1      23.529  42.986  49.836  1.00  0.00     0.020 A 
HETATM   36  N   UNL     1      24.615  40.812  48.545  1.00  0.00    -0.359 N 
HETATM   37  C   UNL     1      26.695  41.034  49.676  1.00  0.00     0.033 A 
HETATM   38  H   UNL     1      25.018  40.012  48.059  1.00  0.00     0.166 HD
HETATM   39  C   UNL     1      23.337  41.135  48.290  1.00  0.00     0.007 A 
HETATM   40  C   UNL     1      22.556  40.303  47.324  1.00  0.00     0.068 C 
HETATM   41  C   UNL     1      22.768  42.219  48.951  1.00  0.00     0.048 A 
HETATM   42  C   UNL     1      27.493  41.687  50.620  1.00  0.00     0.032 A 
BRANCH  35  43
HETATM   43  N   UNL     1      22.873  43.980  50.573  1.00  0.00    -0.302 NA
HETATM   44  H   UNL     1      22.628  44.828  50.067  1.00  0.00     0.124 HD
HETATM   45  H   UNL     1      23.273  44.208  51.481  1.00  0.00     0.124 HD
ENDBRANCH  35  43
ENDBRANCH  28  31
ENDBRANCH  26  27
ENDBRANCH  25  26
ENDBRANCH  24  25
ENDBRANCH   1  24
TORSDOF 12
ENDMDL
MODEL 8
REMARK VINA RESULT:      -7.4      1.908      7.299
REMARK  12 active torsions:
REMARK  status: ('A' for Active; 'I' for Inactive)
REMARK    1  A    between atoms: C_7  and  N_8 
REMARK    2  A    between atoms: C_12  and  N_13 
REMARK       I    between atoms: N_13  and  C_14 
REMARK    3  A    between atoms: C_14  and  C_15 
REMARK    4  A    between atoms: C_15  and  C_16 
REMARK    5  A    between atoms: C_16  and  C_17 
REMARK    6  A    between atoms: C_17  and  C_18 
REMARK    7  A    between atoms: C_18  and  C_19 
REMARK    8  A    between atoms: C_19  and  C_20 
REMARK    9  A    between atoms: C_20  and  C_21 
REMARK   10  A    between atoms: C_21  and  C_22 
REMARK       I    between atoms: C_22  and  N_23 
REMARK   11  A    between atoms: N_23  and  C_24 
REMARK   12  A    between atoms: C_33  and  N_34 
ROOT
HETATM    1  C   UNL     1      29.717  52.935  40.092  1.00  0.00     0.000 C 
ENDROOT
BRANCH   1   2
HETATM    2  C   UNL     1      29.322  52.399  41.473  1.00  0.00     0.000 C 
BRANCH   2   3
HETATM    3  C   UNL     1      30.323  52.751  42.578  1.00  0.00     0.009 C 
BRANCH   3   4
HETATM    4  C   UNL     1      31.747  52.228  42.371  1.00  0.00     0.103 C 
BRANCH   4   5
HETATM    5  C   UNL     1      32.193  51.232  43.418  1.00  0.00     0.222 C 
HETATM    6  N   UNL     1      32.042  49.887  43.239  1.00  0.00    -0.327 N 
HETATM    7  H   UNL     1      32.392  49.416  44.069  1.00  0.00     0.169 HD
HETATM    8  O   UNL     1      32.706  51.594  44.479  1.00  0.00    -0.273 OA
BRANCH   6   9
HETATM    9  C   UNL     1      31.544  49.059  42.218  1.00  0.00     0.035 A 
HETATM   10  C   UNL     1      32.302  48.248  41.381  1.00  0.00     0.032 A 
HETATM   11  C   UNL     1      31.683  47.437  40.420  1.00  0.00     0.033 A 
HETATM   12  C   UNL     1      30.290  47.432  40.275  1.00  0.00     0.044 A 
HETATM   13  N   UNL     1      29.712  46.610  39.378  1.00  0.00    -0.359 N 
HETATM   14  C   UNL     1      29.486  48.263  41.081  1.00  0.00     0.014 A 
HETATM   15  C   UNL     1      28.384  46.510  39.215  1.00  0.00     0.007 A 
HETATM   16  H   UNL     1      30.317  46.016  38.812  1.00  0.00     0.166 HD
HETATM   17  C   UNL     1      27.847  45.526  38.228  1.00  0.00     0.068 C 
HETATM   18  C   UNL     1      27.546  47.323  39.974  1.00  0.00     0.048 A 
HETATM   19  C   UNL     1      28.084  48.246  40.874  1.00  0.00     0.020 A 
HETATM   20  C   UNL     1      30.145  49.059  42.053  1.00  0.00     0.045 A 
BRANCH  19  21
HETATM   21  N   UNL     1      27.199  48.953  41.697  1.00  0.00    -0.302 NA
HETATM   22  H   UNL     1      26.562  48.398  42.261  1.00  0.00     0.124 HD
HETATM   23  H   UNL     1      27.609  49.697  42.261  1.00  0.00     0.124 HD
ENDBRANCH  19  21
ENDBRANCH   6   9
ENDBRANCH   4   5
ENDBRANCH   3   4
ENDBRANCH   2   3
ENDBRANCH   1   2
BRANCH   1  24
HETATM   24  C   UNL     1      29.602  51.843  39.024  1.00  0.00     0.000 C 
BRANCH  24  25
HETATM   25  C   UNL     1      30.801  50.892  38.971  1.00  0.00     0.009 C 
BRANCH  25  26
HETATM   26  C   UNL     1      32.005  51.393  38.179  1.00  0.00     0.103 C 
BRANCH  26  27
HETATM   27  C   UNL     1      33.159  51.902  39.028  1.00  0.00     0.222 C 
HETATM   28  N   UNL     1      34.048  50.909  39.404  1.00  0.00    -0.327 N 
HETATM   29  H   UNL     1      33.774  49.956  39.190  1.00  0.00     0.169 HD
HETATM   30  O   UNL     1      33.249  53.095  39.306  1.00  0.00    -0.273 OA
BRANCH  28  31
HETATM   31  C   UNL     1      35.273  51.076  40.082  1.00  0.00     0.035 A 
HETATM   32  C   UNL     1      35.376  51.372  41.447  1.00  0.00     0.045 A 
HETATM   33  C   UNL     1      36.625  51.549  42.092  1.00  0.00     0.014 A 
HETATM   34  C   UNL     1      37.789  51.431  41.301  1.00  0.00     0.044 A 
HETATM   35  C   UNL     1      36.774  51.842  43.471  1.00  0.00     0.020 A 
HETATM   36  N   UNL     1      38.996  51.626  41.863  1.00  0.00    -0.359 N 
HETATM   37  C   UNL     1      37.696  51.134  39.935  1.00  0.00     0.033 A 
HETATM   38  H   UNL     1      39.822  51.538  41.271  1.00  0.00     0.166 HD
HETATM   39  C   UNL     1      39.169  51.960  43.152  1.00  0.00     0.007 A 
HETATM   40  C   UNL     1      40.554  52.206  43.660  1.00  0.00     0.068 C 
HETATM   41  C   UNL     1      38.053  52.094  43.972  1.00  0.00     0.048 A 
HETATM   42  C   UNL     1      36.446  50.963  39.331  1.00  0.00     0.032 A 
BRANCH  35  43
HETATM   43  N   UNL     1      35.679  52.119  44.300  1.00  0.00    -0.302 NA
HETATM   44  H   UNL     1      35.896  52.421  45.247  1.00  0.00     0.124 HD
HETATM   45  H   UNL     1      34.931  51.428  44.307  1.00  0.00     0.124 HD
ENDBRANCH  35  43
ENDBRANCH  28  31
ENDBRANCH  26  27
ENDBRANCH  25  26
ENDBRANCH  24  25
ENDBRANCH   1  24
TORSDOF 12
ENDMDL
MODEL 9
REMARK VINA RESULT:      -7.4     12.760     15.361
REMARK  12 active torsions:
REMARK  status: ('A' for Active; 'I' for Inactive)
REMARK    1  A    between atoms: C_7  and  N_8 
REMARK    2  A    between atoms: C_12  and  N_13 
REMARK       I    between atoms: N_13  and  C_14 
REMARK    3  A    between atoms: C_14  and  C_15 
REMARK    4  A    between atoms: C_15  and  C_16 
REMARK    5  A    between atoms: C_16  and  C_17 
REMARK    6  A    between atoms: C_17  and  C_18 
REMARK    7  A    between atoms: C_18  and  C_19 
REMARK    8  A    between atoms: C_19  and  C_20 
REMARK    9  A    between atoms: C_20  and  C_21 
REMARK   10  A    between atoms: C_21  and  C_22 
REMARK       I    between atoms: C_22  and  N_23 
REMARK   11  A    between atoms: N_23  and  C_24 
REMARK   12  A    between atoms: C_33  and  N_34 
ROOT
HETATM    1  C   UNL     1      25.448  42.493  49.112  1.00  0.00     0.000 C 
ENDROOT
BRANCH   1   2
HETATM    2  C   UNL     1      26.870  42.827  49.574  1.00  0.00     0.000 C 
BRANCH   2   3
HETATM    3  C   UNL     1      27.095  42.612  51.075  1.00  0.00     0.009 C 
BRANCH   3   4
HETATM    4  C   UNL     1      27.054  41.156  51.548  1.00  0.00     0.103 C 
BRANCH   4   5
HETATM    5  C   UNL     1      28.419  40.534  51.738  1.00  0.00     0.222 C 
HETATM    6  N   UNL     1      28.897  39.577  50.889  1.00  0.00    -0.327 N 
HETATM    7  H   UNL     1      29.817  39.295  51.216  1.00  0.00     0.169 HD
HETATM    8  O   UNL     1      29.155  40.861  52.672  1.00  0.00    -0.273 OA
BRANCH   6   9
HETATM    9  C   UNL     1      28.427  38.939  49.728  1.00  0.00     0.035 A 
HETATM   10  C   UNL     1      28.018  37.614  49.632  1.00  0.00     0.032 A 
HETATM   11  C   UNL     1      27.533  37.102  48.421  1.00  0.00     0.033 A 
HETATM   12  C   UNL     1      27.455  37.910  47.280  1.00  0.00     0.044 A 
HETATM   13  N   UNL     1      26.942  37.411  46.140  1.00  0.00    -0.359 N 
HETATM   14  C   UNL     1      27.889  39.250  47.324  1.00  0.00     0.014 A 
HETATM   15  C   UNL     1      26.787  38.134  45.020  1.00  0.00     0.007 A 
HETATM   16  H   UNL     1      26.631  36.440  46.137  1.00  0.00     0.166 HD
HETATM   17  C   UNL     1      26.155  37.497  43.826  1.00  0.00     0.068 C 
HETATM   18  C   UNL     1      27.216  39.459  45.006  1.00  0.00     0.048 A 
HETATM   19  C   UNL     1      27.822  40.017  46.134  1.00  0.00     0.020 A 
HETATM   20  C   UNL     1      28.361  39.739  48.570  1.00  0.00     0.045 A 
BRANCH  19  21
HETATM   21  N   UNL     1      28.125  41.384  46.109  1.00  0.00    -0.302 NA
HETATM   22  H   UNL     1      27.382  42.009  45.811  1.00  0.00     0.124 HD
HETATM   23  H   UNL     1      28.586  41.756  46.939  1.00  0.00     0.124 HD
ENDBRANCH  19  21
ENDBRANCH   6   9
ENDBRANCH   4   5
ENDBRANCH   3   4
ENDBRANCH   2   3
ENDBRANCH   1   2
BRANCH   1  24
HETATM   24  C   UNL     1      24.616  43.765  48.924  1.00  0.00     0.000 C 
BRANCH  24  25
HETATM   25  C   UNL     1      23.790  44.158  50.153  1.00  0.00     0.009 C 
BRANCH  25  26
HETATM   26  C   UNL     1      24.291  45.377  50.921  1.00  0.00     0.103 C 
BRANCH  26  27
HETATM   27  C   UNL     1      25.061  45.057  52.192  1.00  0.00     0.222 C 
HETATM   28  N   UNL     1      26.197  45.831  52.360  1.00  0.00    -0.327 N 
HETATM   29  H   UNL     1      26.458  46.420  51.577  1.00  0.00     0.169 HD
HETATM   30  O   UNL     1      24.653  44.195  52.966  1.00  0.00    -0.273 OA
BRANCH  28  31
HETATM   31  C   UNL     1      27.047  45.861  53.485  1.00  0.00     0.035 A 
HETATM   32  C   UNL     1      28.071  44.934  53.714  1.00  0.00     0.045 A 
HETATM   33  C   UNL     1      28.897  44.986  54.865  1.00  0.00     0.014 A 
HETATM   34  C   UNL     1      28.644  46.011  55.802  1.00  0.00     0.044 A 
HETATM   35  C   UNL     1      29.949  44.074  55.131  1.00  0.00     0.020 A 
HETATM   36  N   UNL     1      29.379  46.079  56.928  1.00  0.00    -0.359 N 
HETATM   37  C   UNL     1      27.621  46.943  55.581  1.00  0.00     0.033 A 
HETATM   38  H   UNL     1      29.175  46.826  57.590  1.00  0.00     0.166 HD
HETATM   39  C   UNL     1      30.344  45.197  57.237  1.00  0.00     0.007 A 
HETATM   40  C   UNL     1      31.063  45.335  58.540  1.00  0.00     0.068 C 
HETATM   41  C   UNL     1      30.628  44.166  56.348  1.00  0.00     0.048 A 
HETATM   42  C   UNL     1      26.827  46.864  54.432  1.00  0.00     0.032 A 
BRANCH  35  43
HETATM   43  N   UNL     1      30.179  42.944  54.336  1.00  0.00    -0.302 NA
HETATM   44  H   UNL     1      31.004  42.393  54.563  1.00  0.00     0.124 HD
HETATM   45  H   UNL     1      30.105  43.078  53.329  1.00  0.00     0.124 HD
ENDBRANCH  35  43
ENDBRANCH  28  31
ENDBRANCH  26  27
ENDBRANCH  25  26
ENDBRANCH  24  25
ENDBRANCH   1  24
TORSDOF 12
ENDMDL
MODEL 10
REMARK VINA RESULT:      -7.4      2.652      8.404
REMARK  12 active torsions:
REMARK  status: ('A' for Active; 'I' for Inactive)
REMARK    1  A    between atoms: C_7  and  N_8 
REMARK    2  A    between atoms: C_12  and  N_13 
REMARK       I    between atoms: N_13  and  C_14 
REMARK    3  A    between atoms: C_14  and  C_15 
REMARK    4  A    between atoms: C_15  and  C_16 
REMARK    5  A    between atoms: C_16  and  C_17 
REMARK    6  A    between atoms: C_17  and  C_18 
REMARK    7  A    between atoms: C_18  and  C_19 
REMARK    8  A    between atoms: C_19  and  C_20 
REMARK    9  A    between atoms: C_20  and  C_21 
REMARK   10  A    between atoms: C_21  and  C_22 
REMARK       I    between atoms: C_22  and  N_23 
REMARK   11  A    between atoms: N_23  and  C_24 
REMARK   12  A    between atoms: C_33  and  N_34 
ROOT
HETATM    1  C   UNL     1      28.673  45.707  38.756  1.00  0.00     0.000 C 
ENDROOT
BRANCH   1   2
HETATM    2  C   UNL     1      27.626  44.984  37.902  1.00  0.00     0.000 C 
BRANCH   2   3
HETATM    3  C   UNL     1      27.000  45.868  36.817  1.00  0.00     0.009 C 
BRANCH   3   4
HETATM    4  C   UNL     1      25.470  45.935  36.822  1.00  0.00     0.103 C 
BRANCH   4   5
HETATM    5  C   UNL     1      24.862  45.965  38.206  1.00  0.00     0.222 C 
HETATM    6  N   UNL     1      25.074  47.008  39.061  1.00  0.00    -0.327 N 
HETATM    7  H   UNL     1      24.588  46.809  39.931  1.00  0.00     0.169 HD
HETATM    8  O   UNL     1      24.155  45.045  38.623  1.00  0.00    -0.273 OA
BRANCH   6   9
HETATM    9  C   UNL     1      25.771  48.228  39.004  1.00  0.00     0.035 A 
HETATM   10  C   UNL     1      25.669  49.180  37.996  1.00  0.00     0.032 A 
HETATM   11  C   UNL     1      26.392  50.379  38.070  1.00  0.00     0.033 A 
HETATM   12  C   UNL     1      27.238  50.641  39.155  1.00  0.00     0.044 A 
HETATM   13  N   UNL     1      27.886  51.818  39.230  1.00  0.00    -0.359 N 
HETATM   14  C   UNL     1      27.396  49.689  40.183  1.00  0.00     0.014 A 
HETATM   15  C   UNL     1      28.674  52.164  40.259  1.00  0.00     0.007 A 
HETATM   16  H   UNL     1      27.750  52.490  38.476  1.00  0.00     0.166 HD
HETATM   17  C   UNL     1      29.303  53.520  40.268  1.00  0.00     0.068 C 
HETATM   18  C   UNL     1      28.877  51.253  41.292  1.00  0.00     0.048 A 
HETATM   19  C   UNL     1      28.289  49.986  41.242  1.00  0.00     0.020 A 
HETATM   20  C   UNL     1      26.638  48.493  40.082  1.00  0.00     0.045 A 
BRANCH  19  21
HETATM   21  N   UNL     1      28.426  49.153  42.359  1.00  0.00    -0.302 NA
HETATM   22  H   UNL     1      29.297  48.635  42.434  1.00  0.00     0.124 HD
HETATM   23  H   UNL     1      28.183  49.566  43.258  1.00  0.00     0.124 HD
ENDBRANCH  19  21
ENDBRANCH   6   9
ENDBRANCH   4   5
ENDBRANCH   3   4
ENDBRANCH   2   3
ENDBRANCH   1   2
BRANCH   1  24
HETATM   24  C   UNL     1      29.168  46.979  38.061  1.00  0.00     0.000 C 
BRANCH  24  25
HETATM   25  C   UNL     1      30.215  47.761  38.860  1.00  0.00     0.009 C 
BRANCH  25  26
HETATM   26  C   UNL     1      30.653  47.122  40.175  1.00  0.00     0.103 C 
BRANCH  26  27
HETATM   27  C   UNL     1      31.878  47.755  40.814  1.00  0.00     0.222 C 
HETATM   28  N   UNL     1      31.713  49.096  41.116  1.00  0.00    -0.327 N 
HETATM   29  H   UNL     1      30.865  49.533  40.770  1.00  0.00     0.169 HD
HETATM   30  O   UNL     1      32.883  47.085  41.033  1.00  0.00    -0.273 OA
BRANCH  28  31
HETATM   31  C   UNL     1      32.609  49.928  41.819  1.00  0.00     0.035 A 
HETATM   32  C   UNL     1      33.951  50.105  41.463  1.00  0.00     0.045 A 
HETATM   33  C   UNL     1      34.829  50.936  42.203  1.00  0.00     0.014 A 
HETATM   34  C   UNL     1      34.304  51.584  43.344  1.00  0.00     0.044 A 
HETATM   35  C   UNL     1      36.191  51.150  41.874  1.00  0.00     0.020 A 
HETATM   36  N   UNL     1      35.109  52.355  44.099  1.00  0.00    -0.359 N 
HETATM   37  C   UNL     1      32.962  51.412  43.707  1.00  0.00     0.033 A 
HETATM   38  H   UNL     1      34.708  52.809  44.918  1.00  0.00     0.166 HD
HETATM   39  C   UNL     1      36.416  52.532  43.847  1.00  0.00     0.007 A 
HETATM   40  C   UNL     1      37.230  53.368  44.781  1.00  0.00     0.068 C 
HETATM   41  C   UNL     1      36.981  51.911  42.737  1.00  0.00     0.048 A 
HETATM   42  C   UNL     1      32.124  50.586  42.952  1.00  0.00     0.032 A 
BRANCH  35  43
HETATM   43  N   UNL     1      36.833  50.441  40.850  1.00  0.00    -0.302 NA
HETATM   44  H   UNL     1      37.845  50.533  40.805  1.00  0.00     0.124 HD
HETATM   45  H   UNL     1      36.424  50.519  39.921  1.00  0.00     0.124 HD
ENDBRANCH  35  43
ENDBRANCH  28  31
ENDBRANCH  26  27
ENDBRANCH  25  26
ENDBRANCH  24  25
ENDBRANCH   1  24
TORSDOF 12
ENDMDL
