MODEL 1
REMARK VINA RESULT:      -9.4      0.000      0.000
REMARK  2 active torsions:
REMARK  status: ('A' for Active; 'I' for Inactive)
REMARK    1  A    between atoms: C_2  and  C_3 
REMARK    2  A    between atoms: C_7  and  C_8 
REMARK       I    between atoms: C_8  and  N_9 
ROOT
HETATM    1  C   UNL     1      25.365  43.824  51.597  1.00  0.00     0.271 C 
HETATM    2  N   UNL     1      25.222  45.134  51.122  1.00  0.00    -0.347 N 
HETATM    3  C   UNL     1      25.334  46.305  51.985  1.00  0.00     0.128 C 
HETATM    4  C   UNL     1      25.888  47.489  51.206  1.00  0.00     0.055 C 
HETATM    5  C   UNL     1      25.030  47.807  49.964  1.00  0.00     0.100 C 
HETATM    6  N   UNL     1      23.709  48.337  50.424  1.00  0.00    -0.273 NA
HETATM    7  C   UNL     1      22.987  49.033  49.423  1.00  0.00     0.036 A 
HETATM    8  C   UNL     1      23.630  49.686  48.358  1.00  0.00     0.056 A 
HETATM    9  N   UNL     1      25.020  49.596  48.233  1.00  0.00    -0.324 N 
HETATM   10  C   UNL     1      25.789  48.831  49.073  1.00  0.00     0.245 C 
HETATM   11  O   UNL     1      27.016  48.910  49.019  1.00  0.00    -0.271 OA
HETATM   12  C   UNL     1      21.614  49.227  49.600  1.00  0.00     0.026 A 
HETATM   13  C   UNL     1      20.887  50.007  48.698  1.00  0.00     0.002 A 
HETATM   14  C   UNL     1      21.533  50.624  47.627  1.00  0.00     0.002 A 
HETATM   15  C   UNL     1      22.910  50.472  47.459  1.00  0.00     0.031 A 
HETATM   16  C   UNL     1      24.820  46.525  49.127  1.00  0.00     0.055 C 
HETATM   17  C   UNL     1      24.355  45.339  49.966  1.00  0.00     0.128 C 
HETATM   18  O   UNL     1      24.681  42.904  51.150  1.00  0.00    -0.266 OA
HETATM   19  H   UNL     1      23.850  49.012  51.180  1.00  0.00     0.129 HD
HETATM   20  H   UNL     1      25.513  50.180  47.571  1.00  0.00     0.169 HD
ENDROOT
BRANCH   1  21
HETATM   21  C   UNL     1      26.359  43.556  52.608  1.00  0.00     0.119 A 
HETATM   22  N   UNL     1      26.002  43.331  53.911  1.00  0.00    -0.273 N 
HETATM   23  N   UNL     1      27.037  43.118  54.740  1.00  0.00    -0.179 NA
HETATM   24  H   UNL     1      25.058  43.323  54.289  1.00  0.00     0.189 HD
HETATM   25  C   UNL     1      28.105  43.142  53.935  1.00  0.00     0.060 A 
HETATM   26  C   UNL     1      27.727  43.364  52.588  1.00  0.00     0.066 A 
BRANCH  25  27
HETATM   27  C   UNL     1      29.496  42.932  54.465  1.00  0.00     0.031 C 
HETATM   28  C   UNL     1      29.928  44.086  55.370  1.00  0.00     0.016 C 
HETATM   29  C   UNL     1      30.526  42.708  53.354  1.00  0.00     0.016 C 
ENDBRANCH  25  27
ENDBRANCH   1  21
TORSDOF 2
ENDMDL
MODEL 2
REMARK VINA RESULT:      -9.1      1.507      8.584
REMARK  2 active torsions:
REMARK  status: ('A' for Active; 'I' for Inactive)
REMARK    1  A    between atoms: C_2  and  C_3 
REMARK    2  A    between atoms: C_7  and  C_8 
REMARK       I    between atoms: C_8  and  N_9 
ROOT
HETATM    1  C   UNL     1      25.434  48.431  49.152  1.00  0.00     0.271 C 
HETATM    2  N   UNL     1      25.573  47.275  49.930  1.00  0.00    -0.347 N 
HETATM    3  C   UNL     1      24.708  46.977  51.067  1.00  0.00     0.128 C 
HETATM    4  C   UNL     1      24.541  45.473  51.229  1.00  0.00     0.055 C 
HETATM    5  C   UNL     1      25.900  44.759  51.376  1.00  0.00     0.100 C 
HETATM    6  N   UNL     1      26.496  45.142  52.693  1.00  0.00    -0.273 NA
HETATM    7  C   UNL     1      27.525  44.274  53.135  1.00  0.00     0.036 A 
HETATM    8  C   UNL     1      27.576  42.923  52.749  1.00  0.00     0.056 A 
HETATM    9  N   UNL     1      26.629  42.426  51.848  1.00  0.00    -0.324 N 
HETATM   10  C   UNL     1      25.680  43.224  51.261  1.00  0.00     0.245 C 
HETATM   11  O   UNL     1      24.775  42.712  50.601  1.00  0.00    -0.271 OA
HETATM   12  C   UNL     1      28.406  44.725  54.121  1.00  0.00     0.026 A 
HETATM   13  C   UNL     1      29.359  43.864  54.667  1.00  0.00     0.002 A 
HETATM   14  C   UNL     1      29.420  42.534  54.253  1.00  0.00     0.002 A 
HETATM   15  C   UNL     1      28.522  42.057  53.297  1.00  0.00     0.031 A 
HETATM   16  C   UNL     1      26.844  45.184  50.228  1.00  0.00     0.055 C 
HETATM   17  C   UNL     1      26.909  46.695  50.042  1.00  0.00     0.128 C 
HETATM   18  O   UNL     1      26.417  49.016  48.697  1.00  0.00    -0.266 OA
HETATM   19  H   UNL     1      25.778  45.109  53.422  1.00  0.00     0.129 HD
HETATM   20  H   UNL     1      26.555  41.432  51.680  1.00  0.00     0.169 HD
ENDROOT
BRANCH   1  21
HETATM   21  C   UNL     1      24.107  48.917  48.859  1.00  0.00     0.119 A 
HETATM   22  N   UNL     1      23.135  48.078  48.382  1.00  0.00    -0.273 N 
HETATM   23  N   UNL     1      21.959  48.679  48.136  1.00  0.00    -0.179 NA
HETATM   24  H   UNL     1      23.230  47.084  48.197  1.00  0.00     0.189 HD
HETATM   25  C   UNL     1      22.153  49.942  48.528  1.00  0.00     0.060 A 
HETATM   26  C   UNL     1      23.464  50.127  49.032  1.00  0.00     0.066 A 
BRANCH  25  27
HETATM   27  C   UNL     1      21.064  50.973  48.431  1.00  0.00     0.031 C 
HETATM   28  C   UNL     1      20.394  51.207  49.785  1.00  0.00     0.016 C 
HETATM   29  C   UNL     1      20.016  50.629  47.367  1.00  0.00     0.016 C 
ENDBRANCH  25  27
ENDBRANCH   1  21
TORSDOF 2
ENDMDL
MODEL 3
REMARK VINA RESULT:      -8.9      2.292      3.099
REMARK  2 active torsions:
REMARK  status: ('A' for Active; 'I' for Inactive)
REMARK    1  A    between atoms: C_2  and  C_3 
REMARK    2  A    between atoms: C_7  and  C_8 
REMARK       I    between atoms: C_8  and  N_9 
ROOT
HETATM    1  C   UNL     1      23.713  44.608  49.481  1.00  0.00     0.271 C 
HETATM    2  N   UNL     1      23.489  45.983  49.339  1.00  0.00    -0.347 N 
HETATM    3  C   UNL     1      24.087  46.977  50.224  1.00  0.00     0.128 C 
HETATM    4  C   UNL     1      24.331  48.279  49.475  1.00  0.00     0.055 C 
HETATM    5  C   UNL     1      23.036  48.824  48.838  1.00  0.00     0.100 C 
HETATM    6  N   UNL     1      22.122  49.271  49.935  1.00  0.00    -0.273 NA
HETATM    7  C   UNL     1      21.091  50.143  49.506  1.00  0.00     0.036 A 
HETATM    8  C   UNL     1      21.237  50.974  48.382  1.00  0.00     0.056 A 
HETATM    9  N   UNL     1      22.403  50.898  47.615  1.00  0.00    -0.324 N 
HETATM   10  C   UNL     1      23.397  49.987  47.871  1.00  0.00     0.245 C 
HETATM   11  O   UNL     1      24.468  50.065  47.269  1.00  0.00    -0.271 OA
HETATM   12  C   UNL     1      19.972  50.313  50.326  1.00  0.00     0.026 A 
HETATM   13  C   UNL     1      18.989  51.249  49.999  1.00  0.00     0.002 A 
HETATM   14  C   UNL     1      19.131  52.045  48.863  1.00  0.00     0.002 A 
HETATM   15  C   UNL     1      20.261  51.915  48.055  1.00  0.00     0.031 A 
HETATM   16  C   UNL     1      22.354  47.716  48.004  1.00  0.00     0.055 C 
HETATM   17  C   UNL     1      22.214  46.402  48.764  1.00  0.00     0.128 C 
HETATM   18  O   UNL     1      22.820  43.789  49.262  1.00  0.00    -0.266 OA
HETATM   19  H   UNL     1      22.651  49.797  50.636  1.00  0.00     0.129 HD
HETATM   20  H   UNL     1      22.594  51.588  46.902  1.00  0.00     0.169 HD
ENDROOT
BRANCH   1  21
HETATM   21  C   UNL     1      25.029  44.153  49.860  1.00  0.00     0.119 A 
HETATM   22  N   UNL     1      25.978  43.866  48.915  1.00  0.00    -0.273 N 
HETATM   23  N   UNL     1      27.146  43.432  49.419  1.00  0.00    -0.179 NA
HETATM   24  H   UNL     1      25.873  43.941  47.907  1.00  0.00     0.189 HD
HETATM   25  C   UNL     1      26.971  43.500  50.743  1.00  0.00     0.060 A 
HETATM   26  C   UNL     1      25.683  43.990  51.065  1.00  0.00     0.066 A 
BRANCH  25  27
HETATM   27  C   UNL     1      28.060  43.106  51.702  1.00  0.00     0.031 C 
HETATM   28  C   UNL     1      27.927  41.644  52.127  1.00  0.00     0.016 C 
HETATM   29  C   UNL     1      28.125  44.019  52.931  1.00  0.00     0.016 C 
ENDBRANCH  25  27
ENDBRANCH   1  21
TORSDOF 2
ENDMDL
MODEL 4
REMARK VINA RESULT:      -8.8      2.308      8.426
REMARK  2 active torsions:
REMARK  status: ('A' for Active; 'I' for Inactive)
REMARK    1  A    between atoms: C_2  and  C_3 
REMARK    2  A    between atoms: C_7  and  C_8 
REMARK       I    between atoms: C_8  and  N_9 
ROOT
HETATM    1  C   UNL     1      24.434  47.691  49.557  1.00  0.00     0.271 C 
HETATM    2  N   UNL     1      25.040  46.556  50.109  1.00  0.00    -0.347 N 
HETATM    3  C   UNL     1      24.322  45.607  50.953  1.00  0.00     0.128 C 
HETATM    4  C   UNL     1      24.891  44.206  50.783  1.00  0.00     0.055 C 
HETATM    5  C   UNL     1      26.404  44.163  51.080  1.00  0.00     0.100 C 
HETATM    6  N   UNL     1      26.606  44.398  52.544  1.00  0.00    -0.273 NA
HETATM    7  C   UNL     1      27.878  43.996  53.022  1.00  0.00     0.036 A 
HETATM    8  C   UNL     1      28.616  42.973  52.404  1.00  0.00     0.056 A 
HETATM    9  N   UNL     1      28.125  42.372  51.242  1.00  0.00    -0.324 N 
HETATM   10  C   UNL     1      26.971  42.788  50.627  1.00  0.00     0.245 C 
HETATM   11  O   UNL     1      26.499  42.127  49.702  1.00  0.00    -0.271 OA
HETATM   12  C   UNL     1      28.326  44.506  54.243  1.00  0.00     0.026 A 
HETATM   13  C   UNL     1      29.519  44.048  54.806  1.00  0.00     0.002 A 
HETATM   14  C   UNL     1      30.259  43.055  54.167  1.00  0.00     0.002 A 
HETATM   15  C   UNL     1      29.805  42.508  52.967  1.00  0.00     0.031 A 
HETATM   16  C   UNL     1      27.130  45.259  50.267  1.00  0.00     0.055 C 
HETATM   17  C   UNL     1      26.470  46.627  50.393  1.00  0.00     0.128 C 
HETATM   18  O   UNL     1      25.047  48.753  49.446  1.00  0.00    -0.266 OA
HETATM   19  H   UNL     1      25.926  43.851  53.079  1.00  0.00     0.129 HD
HETATM   20  H   UNL     1      28.560  41.537  50.873  1.00  0.00     0.169 HD
ENDROOT
BRANCH   1  21
HETATM   21  C   UNL     1      23.075  47.593  49.083  1.00  0.00     0.119 A 
HETATM   22  N   UNL     1      22.101  48.439  49.543  1.00  0.00    -0.273 N 
HETATM   23  N   UNL     1      20.882  48.212  49.028  1.00  0.00    -0.179 NA
HETATM   24  H   UNL     1      22.218  49.187  50.222  1.00  0.00     0.189 HD
HETATM   25  C   UNL     1      21.081  47.222  48.151  1.00  0.00     0.060 A 
HETATM   26  C   UNL     1      22.443  46.836  48.116  1.00  0.00     0.066 A 
BRANCH  25  27
HETATM   27  C   UNL     1      19.955  46.657  47.331  1.00  0.00     0.031 C 
HETATM   28  C   UNL     1      19.318  45.447  48.015  1.00  0.00     0.016 C 
HETATM   29  C   UNL     1      20.382  46.303  45.903  1.00  0.00     0.016 C 
ENDBRANCH  25  27
ENDBRANCH   1  21
TORSDOF 2
ENDMDL
MODEL 5
REMARK VINA RESULT:      -8.8      2.097      8.276
REMARK  2 active torsions:
REMARK  status: ('A' for Active; 'I' for Inactive)
REMARK    1  A    between atoms: C_2  and  C_3 
REMARK    2  A    between atoms: C_7  and  C_8 
REMARK       I    between atoms: C_8  and  N_9 
ROOT
HETATM    1  C   UNL     1      23.224  45.679  49.300  1.00  0.00     0.271 C 
HETATM    2  N   UNL     1      24.228  45.735  50.274  1.00  0.00    -0.347 N 
HETATM    3  C   UNL     1      25.356  46.657  50.196  1.00  0.00     0.128 C 
HETATM    4  C   UNL     1      25.814  47.057  51.591  1.00  0.00     0.055 C 
HETATM    5  C   UNL     1      26.174  45.826  52.449  1.00  0.00     0.100 C 
HETATM    6  N   UNL     1      27.414  45.205  51.888  1.00  0.00    -0.273 NA
HETATM    7  C   UNL     1      28.076  44.330  52.785  1.00  0.00     0.036 A 
HETATM    8  C   UNL     1      27.978  44.479  54.179  1.00  0.00     0.056 A 
HETATM    9  N   UNL     1      27.152  45.473  54.711  1.00  0.00    -0.324 N 
HETATM   10  C   UNL     1      26.365  46.277  53.925  1.00  0.00     0.245 C 
HETATM   11  O   UNL     1      25.779  47.236  54.426  1.00  0.00    -0.271 OA
HETATM   12  C   UNL     1      28.993  43.410  52.270  1.00  0.00     0.026 A 
HETATM   13  C   UNL     1      29.752  42.611  53.126  1.00  0.00     0.002 A 
HETATM   14  C   UNL     1      29.623  42.747  54.508  1.00  0.00     0.002 A 
HETATM   15  C   UNL     1      28.741  43.688  55.039  1.00  0.00     0.031 A 
HETATM   16  C   UNL     1      25.013  44.806  52.418  1.00  0.00     0.055 C 
HETATM   17  C   UNL     1      24.525  44.507  51.005  1.00  0.00     0.128 C 
HETATM   18  O   UNL     1      22.709  44.610  48.973  1.00  0.00    -0.266 OA
HETATM   19  H   UNL     1      28.096  45.934  51.662  1.00  0.00     0.129 HD
HETATM   20  H   UNL     1      27.187  45.696  55.696  1.00  0.00     0.169 HD
ENDROOT
BRANCH   1  21
HETATM   21  C   UNL     1      22.770  46.910  48.698  1.00  0.00     0.119 A 
HETATM   22  N   UNL     1      21.969  46.902  47.587  1.00  0.00    -0.273 N 
HETATM   23  N   UNL     1      21.647  48.123  47.128  1.00  0.00    -0.179 NA
HETATM   24  H   UNL     1      21.622  46.083  47.095  1.00  0.00     0.189 HD
HETATM   25  C   UNL     1      22.205  48.957  48.012  1.00  0.00     0.060 A 
HETATM   26  C   UNL     1      22.876  48.245  49.036  1.00  0.00     0.066 A 
BRANCH  25  27
HETATM   27  C   UNL     1      22.078  50.449  47.876  1.00  0.00     0.031 C 
HETATM   28  C   UNL     1      23.188  51.176  48.635  1.00  0.00     0.016 C 
HETATM   29  C   UNL     1      20.703  50.967  48.311  1.00  0.00     0.016 C 
ENDBRANCH  25  27
ENDBRANCH   1  21
TORSDOF 2
ENDMDL
MODEL 6
REMARK VINA RESULT:      -8.6      2.539      3.785
REMARK  2 active torsions:
REMARK  status: ('A' for Active; 'I' for Inactive)
REMARK    1  A    between atoms: C_2  and  C_3 
REMARK    2  A    between atoms: C_7  and  C_8 
REMARK       I    between atoms: C_8  and  N_9 
ROOT
HETATM    1  C   UNL     1      28.684  43.422  52.824  1.00  0.00     0.271 C 
HETATM    2  N   UNL     1      27.613  44.158  52.302  1.00  0.00    -0.347 N 
HETATM    3  C   UNL     1      26.560  44.723  53.139  1.00  0.00     0.128 C 
HETATM    4  C   UNL     1      26.022  46.007  52.524  1.00  0.00     0.055 C 
HETATM    5  C   UNL     1      25.514  45.782  51.084  1.00  0.00     0.100 C 
HETATM    6  N   UNL     1      24.283  44.934  51.144  1.00  0.00    -0.273 NA
HETATM    7  C   UNL     1      23.495  44.979  49.968  1.00  0.00     0.036 A 
HETATM    8  C   UNL     1      23.493  46.095  49.114  1.00  0.00     0.056 A 
HETATM    9  N   UNL     1      24.341  47.173  49.386  1.00  0.00    -0.324 N 
HETATM   10  C   UNL     1      25.239  47.162  50.423  1.00  0.00     0.245 C 
HETATM   11  O   UNL     1      25.848  48.191  50.715  1.00  0.00    -0.271 OA
HETATM   12  C   UNL     1      22.561  43.963  49.748  1.00  0.00     0.026 A 
HETATM   13  C   UNL     1      21.685  44.029  48.663  1.00  0.00     0.002 A 
HETATM   14  C   UNL     1      21.715  45.128  47.805  1.00  0.00     0.002 A 
HETATM   15  C   UNL     1      22.614  46.169  48.033  1.00  0.00     0.031 A 
HETATM   16  C   UNL     1      26.602  45.070  50.248  1.00  0.00     0.055 C 
HETATM   17  C   UNL     1      27.178  43.843  50.945  1.00  0.00     0.128 C 
HETATM   18  O   UNL     1      29.150  42.455  52.220  1.00  0.00    -0.266 OA
HETATM   19  H   UNL     1      23.671  45.263  51.896  1.00  0.00     0.129 HD
HETATM   20  H   UNL     1      24.244  48.042  48.878  1.00  0.00     0.169 HD
ENDROOT
BRANCH   1  21
HETATM   21  C   UNL     1      29.266  43.834  54.079  1.00  0.00     0.119 A 
HETATM   22  N   UNL     1      30.244  43.091  54.685  1.00  0.00    -0.273 N 
HETATM   23  N   UNL     1      30.671  43.589  55.857  1.00  0.00    -0.179 NA
HETATM   24  H   UNL     1      30.647  42.224  54.341  1.00  0.00     0.189 HD
HETATM   25  C   UNL     1      29.992  44.734  55.988  1.00  0.00     0.060 A 
HETATM   26  C   UNL     1      29.139  44.953  54.879  1.00  0.00     0.066 A 
BRANCH  25  27
HETATM   27  C   UNL     1      30.180  45.629  57.181  1.00  0.00     0.031 C 
HETATM   28  C   UNL     1      30.997  44.939  58.273  1.00  0.00     0.016 C 
HETATM   29  C   UNL     1      28.854  46.144  57.748  1.00  0.00     0.016 C 
ENDBRANCH  25  27
ENDBRANCH   1  21
TORSDOF 2
ENDMDL
MODEL 7
REMARK VINA RESULT:      -8.5      4.282      8.002
REMARK  2 active torsions:
REMARK  status: ('A' for Active; 'I' for Inactive)
REMARK    1  A    between atoms: C_2  and  C_3 
REMARK    2  A    between atoms: C_7  and  C_8 
REMARK       I    between atoms: C_8  and  N_9 
ROOT
HETATM    1  C   UNL     1      25.081  44.452  51.763  1.00  0.00     0.271 C 
HETATM    2  N   UNL     1      26.012  43.475  51.390  1.00  0.00    -0.347 N 
HETATM    3  C   UNL     1      27.385  43.793  51.010  1.00  0.00     0.128 C 
HETATM    4  C   UNL     1      28.320  42.655  51.390  1.00  0.00     0.055 C 
HETATM    5  C   UNL     1      27.877  41.317  50.763  1.00  0.00     0.100 C 
HETATM    6  N   UNL     1      28.082  41.397  49.283  1.00  0.00    -0.273 NA
HETATM    7  C   UNL     1      28.100  40.137  48.635  1.00  0.00     0.036 A 
HETATM    8  C   UNL     1      28.497  38.964  49.299  1.00  0.00     0.056 A 
HETATM    9  N   UNL     1      28.820  39.015  50.658  1.00  0.00    -0.324 N 
HETATM   10  C   UNL     1      28.698  40.162  51.403  1.00  0.00     0.245 C 
HETATM   11  O   UNL     1      29.143  40.195  52.550  1.00  0.00    -0.271 OA
HETATM   12  C   UNL     1      27.893  40.091  47.254  1.00  0.00     0.026 A 
HETATM   13  C   UNL     1      28.018  38.887  46.559  1.00  0.00     0.002 A 
HETATM   14  C   UNL     1      28.382  37.723  47.235  1.00  0.00     0.002 A 
HETATM   15  C   UNL     1      28.631  37.760  48.607  1.00  0.00     0.031 A 
HETATM   16  C   UNL     1      26.386  41.059  51.075  1.00  0.00     0.055 C 
HETATM   17  C   UNL     1      25.498  42.259  50.765  1.00  0.00     0.128 C 
HETATM   18  O   UNL     1      23.894  44.356  51.452  1.00  0.00    -0.266 OA
HETATM   19  H   UNL     1      28.990  41.823  49.081  1.00  0.00     0.129 HD
HETATM   20  H   UNL     1      29.253  38.223  51.113  1.00  0.00     0.169 HD
ENDROOT
BRANCH   1  21
HETATM   21  C   UNL     1      25.529  45.572  52.555  1.00  0.00     0.119 A 
HETATM   22  N   UNL     1      25.038  46.833  52.340  1.00  0.00    -0.273 N 
HETATM   23  N   UNL     1      25.565  47.775  53.139  1.00  0.00    -0.179 NA
HETATM   24  H   UNL     1      24.345  47.104  51.647  1.00  0.00     0.189 HD
HETATM   25  C   UNL     1      26.382  47.093  53.948  1.00  0.00     0.060 A 
HETATM   26  C   UNL     1      26.356  45.708  53.653  1.00  0.00     0.066 A 
BRANCH  25  27
HETATM   27  C   UNL     1      27.180  47.778  55.022  1.00  0.00     0.031 C 
HETATM   28  C   UNL     1      28.001  46.776  55.833  1.00  0.00     0.016 C 
HETATM   29  C   UNL     1      26.312  48.634  55.949  1.00  0.00     0.016 C 
ENDBRANCH  25  27
ENDBRANCH   1  21
TORSDOF 2
ENDMDL
MODEL 8
REMARK VINA RESULT:      -8.4      2.573      8.305
REMARK  2 active torsions:
REMARK  status: ('A' for Active; 'I' for Inactive)
REMARK    1  A    between atoms: C_2  and  C_3 
REMARK    2  A    between atoms: C_7  and  C_8 
REMARK       I    between atoms: C_8  and  N_9 
ROOT
HETATM    1  C   UNL     1      22.987  43.905  49.286  1.00  0.00     0.271 C 
HETATM    2  N   UNL     1      24.047  44.320  50.102  1.00  0.00    -0.347 N 
HETATM    3  C   UNL     1      25.076  45.251  49.650  1.00  0.00     0.128 C 
HETATM    4  C   UNL     1      25.590  46.084  50.815  1.00  0.00     0.055 C 
HETATM    5  C   UNL     1      26.121  45.198  51.961  1.00  0.00     0.100 C 
HETATM    6  N   UNL     1      27.371  44.521  51.495  1.00  0.00    -0.273 NA
HETATM    7  C   UNL     1      28.173  44.006  52.544  1.00  0.00     0.036 A 
HETATM    8  C   UNL     1      28.158  44.563  53.834  1.00  0.00     0.056 A 
HETATM    9  N   UNL     1      27.281  45.612  54.124  1.00  0.00    -0.324 N 
HETATM   10  C   UNL     1      26.371  46.085  53.213  1.00  0.00     0.245 C 
HETATM   11  O   UNL     1      25.734  47.109  53.461  1.00  0.00    -0.271 OA
HETATM   12  C   UNL     1      29.133  43.038  52.240  1.00  0.00     0.026 A 
HETATM   13  C   UNL     1      30.021  42.589  53.220  1.00  0.00     0.002 A 
HETATM   14  C   UNL     1      29.975  43.127  54.506  1.00  0.00     0.002 A 
HETATM   15  C   UNL     1      29.048  44.122  54.815  1.00  0.00     0.031 A 
HETATM   16  C   UNL     1      25.061  44.139  52.341  1.00  0.00     0.055 C 
HETATM   17  C   UNL     1      24.506  43.394  51.133  1.00  0.00     0.128 C 
HETATM   18  O   UNL     1      22.553  42.754  49.340  1.00  0.00    -0.266 OA
HETATM   19  H   UNL     1      27.966  45.192  51.001  1.00  0.00     0.129 HD
HETATM   20  H   UNL     1      27.364  46.125  54.991  1.00  0.00     0.169 HD
ENDROOT
BRANCH   1  21
HETATM   21  C   UNL     1      22.380  44.862  48.393  1.00  0.00     0.119 A 
HETATM   22  N   UNL     1      22.721  44.908  47.067  1.00  0.00    -0.273 N 
HETATM   23  N   UNL     1      22.090  45.866  46.367  1.00  0.00    -0.179 NA
HETATM   24  H   UNL     1      23.391  44.311  46.592  1.00  0.00     0.189 HD
HETATM   25  C   UNL     1      21.259  46.421  47.256  1.00  0.00     0.060 A 
HETATM   26  C   UNL     1      21.370  45.795  48.522  1.00  0.00     0.066 A 
BRANCH  25  27
HETATM   27  C   UNL     1      20.342  47.550  46.878  1.00  0.00     0.031 C 
HETATM   28  C   UNL     1      20.701  48.835  47.625  1.00  0.00     0.016 C 
HETATM   29  C   UNL     1      18.864  47.206  47.084  1.00  0.00     0.016 C 
ENDBRANCH  25  27
ENDBRANCH   1  21
TORSDOF 2
ENDMDL
MODEL 9
REMARK VINA RESULT:      -8.4      2.657      8.395
REMARK  2 active torsions:
REMARK  status: ('A' for Active; 'I' for Inactive)
REMARK    1  A    between atoms: C_2  and  C_3 
REMARK    2  A    between atoms: C_7  and  C_8 
REMARK       I    between atoms: C_8  and  N_9 
ROOT
HETATM    1  C   UNL     1      24.660  45.100  51.509  1.00  0.00     0.271 C 
HETATM    2  N   UNL     1      25.547  45.568  52.487  1.00  0.00    -0.347 N 
HETATM    3  C   UNL     1      26.588  46.551  52.205  1.00  0.00     0.128 C 
HETATM    4  C   UNL     1      26.859  47.406  53.435  1.00  0.00     0.055 C 
HETATM    5  C   UNL     1      27.237  46.545  54.658  1.00  0.00     0.100 C 
HETATM    6  N   UNL     1      28.580  45.935  54.410  1.00  0.00    -0.273 NA
HETATM    7  C   UNL     1      29.222  45.459  55.580  1.00  0.00     0.036 A 
HETATM    8  C   UNL     1      28.965  46.010  56.847  1.00  0.00     0.056 A 
HETATM    9  N   UNL     1      28.000  47.012  56.981  1.00  0.00    -0.324 N 
HETATM   10  C   UNL     1      27.230  47.441  55.929  1.00  0.00     0.245 C 
HETATM   11  O   UNL     1      26.509  48.430  56.062  1.00  0.00    -0.271 OA
HETATM   12  C   UNL     1      30.268  44.542  55.446  1.00  0.00     0.026 A 
HETATM   13  C   UNL     1      31.002  44.136  56.561  1.00  0.00     0.002 A 
HETATM   14  C   UNL     1      30.716  44.668  57.819  1.00  0.00     0.002 A 
HETATM   15  C   UNL     1      29.701  45.613  57.964  1.00  0.00     0.031 A 
HETATM   16  C   UNL     1      26.184  45.433  54.864  1.00  0.00     0.055 C 
HETATM   17  C   UNL     1      25.876  44.663  53.584  1.00  0.00     0.128 C 
HETATM   18  O   UNL     1      24.282  43.929  51.496  1.00  0.00    -0.266 OA
HETATM   19  H   UNL     1      29.213  46.637  54.017  1.00  0.00     0.129 HD
HETATM   20  H   UNL     1      27.911  47.526  57.847  1.00  0.00     0.169 HD
ENDROOT
BRANCH   1  21
HETATM   21  C   UNL     1      24.162  46.028  50.522  1.00  0.00     0.119 A 
HETATM   22  N   UNL     1      23.255  45.634  49.574  1.00  0.00    -0.273 N 
HETATM   23  N   UNL     1      22.902  46.601  48.711  1.00  0.00    -0.179 NA
HETATM   24  H   UNL     1      22.852  44.707  49.468  1.00  0.00     0.189 HD
HETATM   25  C   UNL     1      23.554  47.681  49.152  1.00  0.00     0.060 A 
HETATM   26  C   UNL     1      24.315  47.384  50.308  1.00  0.00     0.066 A 
BRANCH  25  27
HETATM   27  C   UNL     1      23.429  49.012  48.464  1.00  0.00     0.031 C 
HETATM   28  C   UNL     1      24.767  49.751  48.429  1.00  0.00     0.016 C 
HETATM   29  C   UNL     1      22.343  49.898  49.082  1.00  0.00     0.016 C 
ENDBRANCH  25  27
ENDBRANCH   1  21
TORSDOF 2
ENDMDL
MODEL 10
REMARK VINA RESULT:      -8.2      3.112      8.584
REMARK  2 active torsions:
REMARK  status: ('A' for Active; 'I' for Inactive)
REMARK    1  A    between atoms: C_2  and  C_3 
REMARK    2  A    between atoms: C_7  and  C_8 
REMARK       I    between atoms: C_8  and  N_9 
ROOT
HETATM    1  C   UNL     1      21.137  45.320  48.547  1.00  0.00     0.271 C 
HETATM    2  N   UNL     1      22.342  44.904  49.128  1.00  0.00    -0.347 N 
HETATM    3  C   UNL     1      23.533  45.745  49.168  1.00  0.00     0.128 C 
HETATM    4  C   UNL     1      24.358  45.442  50.411  1.00  0.00     0.055 C 
HETATM    5  C   UNL     1      24.741  43.950  50.492  1.00  0.00     0.100 C 
HETATM    6  N   UNL     1      25.717  43.652  49.398  1.00  0.00    -0.273 NA
HETATM    7  C   UNL     1      26.449  42.453  49.590  1.00  0.00     0.036 A 
HETATM    8  C   UNL     1      26.705  41.934  50.870  1.00  0.00     0.056 A 
HETATM    9  N   UNL     1      26.169  42.570  51.993  1.00  0.00    -0.324 N 
HETATM   10  C   UNL     1      25.335  43.655  51.899  1.00  0.00     0.245 C 
HETATM   11  O   UNL     1      25.019  44.274  52.915  1.00  0.00    -0.271 OA
HETATM   12  C   UNL     1      27.085  41.873  48.489  1.00  0.00     0.026 A 
HETATM   13  C   UNL     1      27.910  40.759  48.654  1.00  0.00     0.002 A 
HETATM   14  C   UNL     1      28.131  40.234  49.927  1.00  0.00     0.002 A 
HETATM   15  C   UNL     1      27.535  40.825  51.040  1.00  0.00     0.031 A 
HETATM   16  C   UNL     1      23.479  43.073  50.324  1.00  0.00     0.055 C 
HETATM   17  C   UNL     1      22.634  43.474  49.120  1.00  0.00     0.128 C 
HETATM   18  O   UNL     1      20.420  44.532  47.930  1.00  0.00    -0.266 OA
HETATM   19  H   UNL     1      26.418  44.395  49.347  1.00  0.00     0.129 HD
HETATM   20  H   UNL     1      26.466  42.306  52.923  1.00  0.00     0.169 HD
ENDROOT
BRANCH   1  21
HETATM   21  C   UNL     1      20.724  46.693  48.710  1.00  0.00     0.119 A 
HETATM   22  N   UNL     1      19.717  47.032  49.574  1.00  0.00    -0.273 N 
HETATM   23  N   UNL     1      19.430  48.344  49.601  1.00  0.00    -0.179 NA
HETATM   24  H   UNL     1      19.185  46.398  50.164  1.00  0.00     0.189 HD
HETATM   25  C   UNL     1      20.326  48.888  48.770  1.00  0.00     0.060 A 
HETATM   26  C   UNL     1      21.186  47.902  48.228  1.00  0.00     0.066 A 
BRANCH  25  27
HETATM   27  C   UNL     1      20.363  50.368  48.512  1.00  0.00     0.031 C 
HETATM   28  C   UNL     1      21.800  50.888  48.449  1.00  0.00     0.016 C 
HETATM   29  C   UNL     1      19.548  51.168  49.533  1.00  0.00     0.016 C 
ENDBRANCH  25  27
ENDBRANCH   1  21
TORSDOF 2
ENDMDL
