MODEL 1
REMARK VINA RESULT:      -8.8      0.000      0.000
REMARK  8 active torsions:
REMARK  status: ('A' for Active; 'I' for Inactive)
REMARK    1  A    between atoms: C_2  and  N_3 
REMARK    2  A    between atoms: C_2  and  C_36 
REMARK       I    between atoms: N_3  and  C_4 
REMARK    3  A    between atoms: C_4  and  C_5 
REMARK    4  A    between atoms: C_5  and  N_6 
REMARK       I    between atoms: N_12  and  C_13 
REMARK    5  A    between atoms: C_13  and  C_14 
REMARK    6  A    between atoms: C_15  and  O_16 
REMARK    7  A    between atoms: C_21  and  O_22 
REMARK    8  A    between atoms: N_27  and  C_28 
ROOT
HETATM    1  N   UNL     1      20.990  45.517  48.675  1.00  0.00    -0.325 N 
HETATM    2  C   UNL     1      21.996  44.584  48.799  1.00  0.00     0.250 C 
HETATM    3  O   UNL     1      21.839  43.373  48.814  1.00  0.00    -0.270 OA
HETATM    4  C   UNL     1      23.302  45.358  49.062  1.00  0.00     0.118 C 
HETATM    5  C   UNL     1      24.432  44.770  48.199  1.00  0.00     0.061 C 
HETATM    6  C   UNL     1      25.087  43.548  48.832  1.00  0.00     0.129 C 
HETATM    7  N   UNL     1      25.335  43.748  50.252  1.00  0.00    -0.348 N 
HETATM    8  C   UNL     1      26.622  44.097  50.680  1.00  0.00     0.259 C 
HETATM    9  O   UNL     1      27.540  44.361  49.909  1.00  0.00    -0.267 OA
HETATM   10  C   UNL     1      24.130  43.972  51.035  1.00  0.00     0.129 C 
HETATM   11  C   UNL     1      23.494  45.290  50.597  1.00  0.00     0.061 C 
HETATM   12  N   UNL     1      22.916  46.737  48.634  1.00  0.00    -0.346 N 
HETATM   13  C   UNL     1      21.469  46.858  48.527  1.00  0.00     0.254 C 
ENDROOT
BRANCH  12  14
HETATM   14  C   UNL     1      23.718  47.866  48.616  1.00  0.00     0.032 A 
HETATM   15  C   UNL     1      25.026  47.891  49.128  1.00  0.00     0.029 A 
HETATM   16  C   UNL     1      25.835  49.037  49.083  1.00  0.00     0.002 A 
HETATM   17  C   UNL     1      25.357  50.206  48.510  1.00  0.00     0.000 A 
HETATM   18  C   UNL     1      24.073  50.224  47.988  1.00  0.00     0.002 A 
HETATM   19  C   UNL     1      23.273  49.073  48.042  1.00  0.00     0.029 A 
ENDBRANCH  12  14
BRANCH   1  20
HETATM   20  C   UNL     1      19.576  45.230  48.839  1.00  0.00     0.230 C 
BRANCH  20  21
HETATM   21  C   UNL     1      18.616  46.313  48.351  1.00  0.00     0.236 C 
HETATM   22  N   UNL     1      18.113  47.121  49.345  1.00  0.00    -0.351 N 
HETATM   23  H   UNL     1      18.550  47.008  50.253  1.00  0.00     0.163 HD
HETATM   24  O   UNL     1      18.437  46.496  47.149  1.00  0.00    -0.272 OA
BRANCH  22  25
HETATM   25  C   UNL     1      17.492  48.419  49.108  1.00  0.00     0.113 C 
HETATM   26  C   UNL     1      16.413  48.435  48.022  1.00  0.00     0.037 C 
BRANCH  25  27
HETATM   27  C   UNL     1      18.555  49.491  48.942  1.00  0.00    -0.036 A 
HETATM   28  C   UNL     1      18.903  49.938  47.656  1.00  0.00     0.009 A 
HETATM   29  C   UNL     1      19.847  50.951  47.480  1.00  0.00     0.001 A 
HETATM   30  C   UNL     1      20.454  51.539  48.586  1.00  0.00     0.000 A 
HETATM   31  C   UNL     1      20.116  51.116  49.869  1.00  0.00     0.001 A 
HETATM   32  C   UNL     1      19.173  50.101  50.046  1.00  0.00     0.009 A 
ENDBRANCH  25  27
ENDBRANCH  22  25
ENDBRANCH  20  21
ENDBRANCH   1  20
BRANCH   8  33
HETATM   33  C   UNL     1      26.919  44.022  52.131  1.00  0.00     0.098 A 
HETATM   34  C   UNL     1      26.819  45.202  52.886  1.00  0.00     0.086 A 
HETATM   35  C   UNL     1      27.090  45.187  54.255  1.00  0.00     0.038 A 
HETATM   36  C   UNL     1      27.487  44.003  54.868  1.00  0.00     0.005 A 
HETATM   37  C   UNL     1      27.577  42.822  54.124  1.00  0.00     0.038 A 
HETATM   38  C   UNL     1      27.280  42.815  52.754  1.00  0.00     0.086 A 
BRANCH  34  39
HETATM   39  O   UNL     1      26.348  46.369  52.343  1.00  0.00    -0.355 OA
HETATM   40  C   UNL     1      25.741  47.192  53.335  1.00  0.00     0.210 C 
ENDBRANCH  34  39
BRANCH  38  41
HETATM   41  O   UNL     1      27.316  41.693  51.969  1.00  0.00    -0.355 OA
HETATM   42  C   UNL     1      28.512  40.921  51.969  1.00  0.00     0.210 C 
ENDBRANCH  38  41
ENDBRANCH   8  33
TORSDOF 8
ENDMDL
MODEL 2
REMARK VINA RESULT:      -8.7      0.156      2.161
REMARK  8 active torsions:
REMARK  status: ('A' for Active; 'I' for Inactive)
REMARK    1  A    between atoms: C_2  and  N_3 
REMARK    2  A    between atoms: C_2  and  C_36 
REMARK       I    between atoms: N_3  and  C_4 
REMARK    3  A    between atoms: C_4  and  C_5 
REMARK    4  A    between atoms: C_5  and  N_6 
REMARK       I    between atoms: N_12  and  C_13 
REMARK    5  A    between atoms: C_13  and  C_14 
REMARK    6  A    between atoms: C_15  and  O_16 
REMARK    7  A    between atoms: C_21  and  O_22 
REMARK    8  A    between atoms: N_27  and  C_28 
ROOT
HETATM    1  N   UNL     1      20.998  45.500  48.692  1.00  0.00    -0.325 N 
HETATM    2  C   UNL     1      21.995  44.556  48.801  1.00  0.00     0.250 C 
HETATM    3  O   UNL     1      21.827  43.347  48.802  1.00  0.00    -0.270 OA
HETATM    4  C   UNL     1      23.311  45.315  49.064  1.00  0.00     0.118 C 
HETATM    5  C   UNL     1      24.429  44.725  48.188  1.00  0.00     0.061 C 
HETATM    6  C   UNL     1      25.076  43.489  48.803  1.00  0.00     0.129 C 
HETATM    7  N   UNL     1      25.335  43.672  50.224  1.00  0.00    -0.348 N 
HETATM    8  C   UNL     1      26.627  44.003  50.648  1.00  0.00     0.259 C 
HETATM    9  O   UNL     1      27.544  44.267  49.874  1.00  0.00    -0.267 OA
HETATM   10  C   UNL     1      24.136  43.898  51.016  1.00  0.00     0.129 C 
HETATM   11  C   UNL     1      23.511  45.227  50.597  1.00  0.00     0.061 C 
HETATM   12  N   UNL     1      22.936  46.702  48.654  1.00  0.00    -0.346 N 
HETATM   13  C   UNL     1      21.489  46.838  48.557  1.00  0.00     0.254 C 
ENDROOT
BRANCH  12  14
HETATM   14  C   UNL     1      23.748  47.823  48.643  1.00  0.00     0.032 A 
HETATM   15  C   UNL     1      25.064  47.827  49.137  1.00  0.00     0.029 A 
HETATM   16  C   UNL     1      25.884  48.964  49.100  1.00  0.00     0.002 A 
HETATM   17  C   UNL     1      25.409  50.148  48.554  1.00  0.00     0.000 A 
HETATM   18  C   UNL     1      24.118  50.188  48.051  1.00  0.00     0.002 A 
HETATM   19  C   UNL     1      23.307  49.044  48.097  1.00  0.00     0.029 A 
ENDBRANCH  12  14
BRANCH   1  20
HETATM   20  C   UNL     1      19.582  45.226  48.862  1.00  0.00     0.230 C 
BRANCH  20  21
HETATM   21  C   UNL     1      18.630  46.308  48.360  1.00  0.00     0.236 C 
HETATM   22  N   UNL     1      18.107  47.112  49.349  1.00  0.00    -0.351 N 
HETATM   23  H   UNL     1      18.528  46.995  50.264  1.00  0.00     0.163 HD
HETATM   24  O   UNL     1      18.471  46.496  47.157  1.00  0.00    -0.272 OA
BRANCH  22  25
HETATM   25  C   UNL     1      17.487  48.409  49.106  1.00  0.00     0.113 C 
HETATM   26  C   UNL     1      16.398  48.419  48.029  1.00  0.00     0.037 C 
BRANCH  25  27
HETATM   27  C   UNL     1      18.553  49.477  48.919  1.00  0.00    -0.036 A 
HETATM   28  C   UNL     1      19.220  50.002  50.039  1.00  0.00     0.009 A 
HETATM   29  C   UNL     1      20.230  50.954  49.889  1.00  0.00     0.001 A 
HETATM   30  C   UNL     1      20.597  51.389  48.618  1.00  0.00     0.000 A 
HETATM   31  C   UNL     1      19.954  50.873  47.497  1.00  0.00     0.001 A 
HETATM   32  C   UNL     1      18.941  49.923  47.645  1.00  0.00     0.009 A 
ENDBRANCH  25  27
ENDBRANCH  22  25
ENDBRANCH  20  21
ENDBRANCH   1  20
BRANCH   8  33
HETATM   33  C   UNL     1      26.932  43.909  52.096  1.00  0.00     0.098 A 
HETATM   34  C   UNL     1      27.345  42.666  52.604  1.00  0.00     0.086 A 
HETATM   35  C   UNL     1      27.641  42.522  53.960  1.00  0.00     0.038 A 
HETATM   36  C   UNL     1      27.500  43.608  54.817  1.00  0.00     0.005 A 
HETATM   37  C   UNL     1      27.099  44.852  54.317  1.00  0.00     0.038 A 
HETATM   38  C   UNL     1      26.826  45.019  52.951  1.00  0.00     0.086 A 
BRANCH  34  39
HETATM   39  O   UNL     1      27.581  41.594  51.783  1.00  0.00    -0.355 OA
HETATM   40  C   UNL     1      28.705  40.840  52.230  1.00  0.00     0.210 C 
ENDBRANCH  34  39
BRANCH  38  41
HETATM   41  O   UNL     1      26.461  46.211  52.385  1.00  0.00    -0.355 OA
HETATM   42  C   UNL     1      25.714  47.124  53.183  1.00  0.00     0.210 C 
ENDBRANCH  38  41
ENDBRANCH   8  33
TORSDOF 8
ENDMDL
MODEL 3
REMARK VINA RESULT:      -8.6      4.319     10.316
REMARK  8 active torsions:
REMARK  status: ('A' for Active; 'I' for Inactive)
REMARK    1  A    between atoms: C_2  and  N_3 
REMARK    2  A    between atoms: C_2  and  C_36 
REMARK       I    between atoms: N_3  and  C_4 
REMARK    3  A    between atoms: C_4  and  C_5 
REMARK    4  A    between atoms: C_5  and  N_6 
REMARK       I    between atoms: N_12  and  C_13 
REMARK    5  A    between atoms: C_13  and  C_14 
REMARK    6  A    between atoms: C_15  and  O_16 
REMARK    7  A    between atoms: C_21  and  O_22 
REMARK    8  A    between atoms: N_27  and  C_28 
ROOT
HETATM    1  N   UNL     1      19.321  50.835  49.943  1.00  0.00    -0.325 N 
HETATM    2  C   UNL     1      18.747  49.659  49.512  1.00  0.00     0.250 C 
HETATM    3  O   UNL     1      19.211  48.543  49.680  1.00  0.00    -0.270 OA
HETATM    4  C   UNL     1      17.515  50.039  48.668  1.00  0.00     0.118 C 
HETATM    5  C   UNL     1      16.330  49.135  49.050  1.00  0.00     0.061 C 
HETATM    6  C   UNL     1      16.350  47.793  48.328  1.00  0.00     0.129 C 
HETATM    7  N   UNL     1      16.673  47.949  46.918  1.00  0.00    -0.348 N 
HETATM    8  C   UNL     1      15.640  47.930  45.972  1.00  0.00     0.259 C 
HETATM    9  O   UNL     1      14.450  47.905  46.274  1.00  0.00    -0.267 OA
HETATM   10  C   UNL     1      17.987  48.523  46.674  1.00  0.00     0.129 C 
HETATM   11  C   UNL     1      18.007  49.955  47.202  1.00  0.00     0.061 C 
HETATM   12  N   UNL     1      17.304  51.460  49.079  1.00  0.00    -0.346 N 
HETATM   13  C   UNL     1      18.485  51.983  49.753  1.00  0.00     0.254 C 
ENDROOT
BRANCH  12  14
HETATM   14  C   UNL     1      16.300  52.315  48.661  1.00  0.00     0.032 A 
HETATM   15  C   UNL     1      15.830  52.365  47.338  1.00  0.00     0.029 A 
HETATM   16  C   UNL     1      14.795  53.221  46.932  1.00  0.00     0.002 A 
HETATM   17  C   UNL     1      14.186  54.063  47.851  1.00  0.00     0.000 A 
HETATM   18  C   UNL     1      14.615  54.044  49.170  1.00  0.00     0.002 A 
HETATM   19  C   UNL     1      15.653  53.184  49.561  1.00  0.00     0.029 A 
ENDBRANCH  12  14
BRANCH   1  20
HETATM   20  C   UNL     1      20.694  50.964  50.397  1.00  0.00     0.230 C 
BRANCH  20  21
HETATM   21  C   UNL     1      21.767  50.546  49.394  1.00  0.00     0.236 C 
HETATM   22  N   UNL     1      22.350  49.327  49.656  1.00  0.00    -0.351 N 
HETATM   23  H   UNL     1      21.900  48.783  50.384  1.00  0.00     0.163 HD
HETATM   24  O   UNL     1      21.970  51.209  48.381  1.00  0.00    -0.272 OA
BRANCH  22  25
HETATM   25  C   UNL     1      23.110  48.556  48.679  1.00  0.00     0.113 C 
HETATM   26  C   UNL     1      22.722  47.078  48.572  1.00  0.00     0.037 C 
BRANCH  25  27
HETATM   27  C   UNL     1      24.600  48.795  48.860  1.00  0.00    -0.036 A 
HETATM   28  C   UNL     1      25.353  47.928  49.669  1.00  0.00     0.009 A 
HETATM   29  C   UNL     1      26.730  48.103  49.818  1.00  0.00     0.001 A 
HETATM   30  C   UNL     1      27.378  49.142  49.155  1.00  0.00     0.000 A 
HETATM   31  C   UNL     1      26.649  50.005  48.342  1.00  0.00     0.001 A 
HETATM   32  C   UNL     1      25.271  49.833  48.193  1.00  0.00     0.009 A 
ENDBRANCH  25  27
ENDBRANCH  22  25
ENDBRANCH  20  21
ENDBRANCH   1  20
BRANCH   8  33
HETATM   33  C   UNL     1      16.008  47.809  44.540  1.00  0.00     0.098 A 
HETATM   34  C   UNL     1      16.020  48.977  43.761  1.00  0.00     0.086 A 
HETATM   35  C   UNL     1      16.356  48.918  42.408  1.00  0.00     0.038 A 
HETATM   36  C   UNL     1      16.653  47.692  41.823  1.00  0.00     0.005 A 
HETATM   37  C   UNL     1      16.654  46.526  42.595  1.00  0.00     0.038 A 
HETATM   38  C   UNL     1      16.346  46.573  43.963  1.00  0.00     0.086 A 
BRANCH  34  39
HETATM   39  O   UNL     1      15.820  50.215  44.315  1.00  0.00    -0.355 OA
HETATM   40  C   UNL     1      16.787  51.152  43.847  1.00  0.00     0.210 C 
ENDBRANCH  34  39
BRANCH  38  41
HETATM   41  O   UNL     1      16.357  45.479  44.787  1.00  0.00    -0.355 OA
HETATM   42  C   UNL     1      17.595  44.801  44.973  1.00  0.00     0.210 C 
ENDBRANCH  38  41
ENDBRANCH   8  33
TORSDOF 8
ENDMDL
MODEL 4
REMARK VINA RESULT:      -8.5      5.208     10.290
REMARK  8 active torsions:
REMARK  status: ('A' for Active; 'I' for Inactive)
REMARK    1  A    between atoms: C_2  and  N_3 
REMARK    2  A    between atoms: C_2  and  C_36 
REMARK       I    between atoms: N_3  and  C_4 
REMARK    3  A    between atoms: C_4  and  C_5 
REMARK    4  A    between atoms: C_5  and  N_6 
REMARK       I    between atoms: N_12  and  C_13 
REMARK    5  A    between atoms: C_13  and  C_14 
REMARK    6  A    between atoms: C_15  and  O_16 
REMARK    7  A    between atoms: C_21  and  O_22 
REMARK    8  A    between atoms: N_27  and  C_28 
ROOT
HETATM    1  N   UNL     1      27.858  42.356  51.344  1.00  0.00    -0.325 N 
HETATM    2  C   UNL     1      27.976  41.057  50.902  1.00  0.00     0.250 C 
HETATM    3  O   UNL     1      28.806  40.250  51.291  1.00  0.00    -0.270 OA
HETATM    4  C   UNL     1      26.978  40.881  49.741  1.00  0.00     0.118 C 
HETATM    5  C   UNL     1      26.234  39.544  49.900  1.00  0.00     0.061 C 
HETATM    6  C   UNL     1      27.015  38.360  49.343  1.00  0.00     0.129 C 
HETATM    7  N   UNL     1      27.608  38.670  48.051  1.00  0.00    -0.348 N 
HETATM    8  C   UNL     1      26.978  38.224  46.883  1.00  0.00     0.259 C 
HETATM    9  O   UNL     1      25.878  37.678  46.877  1.00  0.00    -0.267 OA
HETATM   10  C   UNL     1      28.567  39.763  48.091  1.00  0.00     0.129 C 
HETATM   11  C   UNL     1      27.834  41.050  48.462  1.00  0.00     0.061 C 
HETATM   12  N   UNL     1      26.082  42.060  49.943  1.00  0.00    -0.346 N 
HETATM   13  C   UNL     1      26.700  43.030  50.837  1.00  0.00     0.254 C 
ENDROOT
BRANCH  12  14
HETATM   14  C   UNL     1      24.964  42.402  49.203  1.00  0.00     0.032 A 
HETATM   15  C   UNL     1      24.019  41.463  48.755  1.00  0.00     0.029 A 
HETATM   16  C   UNL     1      22.878  41.827  48.024  1.00  0.00     0.002 A 
HETATM   17  C   UNL     1      22.640  43.159  47.719  1.00  0.00     0.000 A 
HETATM   18  C   UNL     1      23.544  44.120  48.146  1.00  0.00     0.002 A 
HETATM   19  C   UNL     1      24.683  43.743  48.873  1.00  0.00     0.029 A 
ENDBRANCH  12  14
BRANCH   1  20
HETATM   20  C   UNL     1      28.869  43.060  52.114  1.00  0.00     0.230 C 
BRANCH  20  21
HETATM   21  C   UNL     1      28.497  43.388  53.557  1.00  0.00     0.236 C 
HETATM   22  N   UNL     1      29.029  44.566  54.030  1.00  0.00    -0.351 N 
HETATM   23  H   UNL     1      29.471  45.150  53.329  1.00  0.00     0.163 HD
HETATM   24  O   UNL     1      27.684  42.699  54.168  1.00  0.00    -0.272 OA
BRANCH  22  25
HETATM   25  C   UNL     1      28.539  45.269  55.211  1.00  0.00     0.113 C 
HETATM   26  C   UNL     1      28.034  46.692  54.958  1.00  0.00     0.037 C 
BRANCH  25  27
HETATM   27  C   UNL     1      29.546  45.161  56.345  1.00  0.00    -0.036 A 
HETATM   28  C   UNL     1      29.414  45.982  57.477  1.00  0.00     0.009 A 
HETATM   29  C   UNL     1      30.302  45.873  58.548  1.00  0.00     0.001 A 
HETATM   30  C   UNL     1      31.331  44.935  58.510  1.00  0.00     0.000 A 
HETATM   31  C   UNL     1      31.471  44.106  57.400  1.00  0.00     0.001 A 
HETATM   32  C   UNL     1      30.585  44.216  56.326  1.00  0.00     0.009 A 
ENDBRANCH  25  27
ENDBRANCH  22  25
ENDBRANCH  20  21
ENDBRANCH   1  20
BRANCH   8  33
HETATM   33  C   UNL     1      27.733  38.304  45.609  1.00  0.00     0.098 A 
HETATM   34  C   UNL     1      28.646  37.277  45.318  1.00  0.00     0.086 A 
HETATM   35  C   UNL     1      29.384  37.306  44.134  1.00  0.00     0.038 A 
HETATM   36  C   UNL     1      29.234  38.371  43.252  1.00  0.00     0.005 A 
HETATM   37  C   UNL     1      28.319  39.391  43.530  1.00  0.00     0.038 A 
HETATM   38  C   UNL     1      27.549  39.362  44.702  1.00  0.00     0.086 A 
BRANCH  34  39
HETATM   39  O   UNL     1      28.761  36.167  46.113  1.00  0.00    -0.355 OA
HETATM   40  C   UNL     1      28.381  34.987  45.410  1.00  0.00     0.210 C 
ENDBRANCH  34  39
BRANCH  38  41
HETATM   41  O   UNL     1      26.613  40.307  45.026  1.00  0.00    -0.355 OA
HETATM   42  C   UNL     1      25.440  40.382  44.222  1.00  0.00     0.210 C 
ENDBRANCH  38  41
ENDBRANCH   8  33
TORSDOF 8
ENDMDL
MODEL 5
REMARK VINA RESULT:      -8.5      5.407     10.136
REMARK  8 active torsions:
REMARK  status: ('A' for Active; 'I' for Inactive)
REMARK    1  A    between atoms: C_2  and  N_3 
REMARK    2  A    between atoms: C_2  and  C_36 
REMARK       I    between atoms: N_3  and  C_4 
REMARK    3  A    between atoms: C_4  and  C_5 
REMARK    4  A    between atoms: C_5  and  N_6 
REMARK       I    between atoms: N_12  and  C_13 
REMARK    5  A    between atoms: C_13  and  C_14 
REMARK    6  A    between atoms: C_15  and  O_16 
REMARK    7  A    between atoms: C_21  and  O_22 
REMARK    8  A    between atoms: N_27  and  C_28 
ROOT
HETATM    1  N   UNL     1      27.904  42.226  51.458  1.00  0.00    -0.325 N 
HETATM    2  C   UNL     1      27.998  40.941  50.969  1.00  0.00     0.250 C 
HETATM    3  O   UNL     1      28.837  40.117  51.301  1.00  0.00    -0.270 OA
HETATM    4  C   UNL     1      26.958  40.809  49.840  1.00  0.00     0.118 C 
HETATM    5  C   UNL     1      26.211  39.471  49.983  1.00  0.00     0.061 C 
HETATM    6  C   UNL     1      26.964  38.302  49.359  1.00  0.00     0.129 C 
HETATM    7  N   UNL     1      27.512  38.651  48.057  1.00  0.00    -0.348 N 
HETATM    8  C   UNL     1      26.837  38.247  46.898  1.00  0.00     0.259 C 
HETATM    9  O   UNL     1      25.734  37.708  46.915  1.00  0.00    -0.267 OA
HETATM   10  C   UNL     1      28.478  39.738  48.097  1.00  0.00     0.129 C 
HETATM   11  C   UNL     1      27.767  41.016  48.537  1.00  0.00     0.061 C 
HETATM   12  N   UNL     1      26.078  41.985  50.114  1.00  0.00    -0.346 N 
HETATM   13  C   UNL     1      26.734  42.922  51.016  1.00  0.00     0.254 C 
ENDROOT
BRANCH  12  14
HETATM   14  C   UNL     1      24.935  42.357  49.427  1.00  0.00     0.032 A 
HETATM   15  C   UNL     1      24.735  42.090  48.062  1.00  0.00     0.029 A 
HETATM   16  C   UNL     1      23.562  42.454  47.383  1.00  0.00     0.002 A 
HETATM   17  C   UNL     1      22.537  43.099  48.058  1.00  0.00     0.000 A 
HETATM   18  C   UNL     1      22.690  43.378  49.408  1.00  0.00     0.002 A 
HETATM   19  C   UNL     1      23.869  43.012  50.074  1.00  0.00     0.029 A 
ENDBRANCH  12  14
BRANCH   1  20
HETATM   20  C   UNL     1      28.947  42.898  52.213  1.00  0.00     0.230 C 
BRANCH  20  21
HETATM   21  C   UNL     1      28.586  43.290  53.643  1.00  0.00     0.236 C 
HETATM   22  N   UNL     1      29.111  44.494  54.056  1.00  0.00    -0.351 N 
HETATM   23  H   UNL     1      29.541  45.048  53.324  1.00  0.00     0.163 HD
HETATM   24  O   UNL     1      27.785  42.623  54.293  1.00  0.00    -0.272 OA
BRANCH  22  25
HETATM   25  C   UNL     1      28.626  45.247  55.207  1.00  0.00     0.113 C 
HETATM   26  C   UNL     1      28.154  46.671  54.901  1.00  0.00     0.037 C 
BRANCH  25  27
HETATM   27  C   UNL     1      29.619  45.156  56.354  1.00  0.00    -0.036 A 
HETATM   28  C   UNL     1      29.461  45.978  57.482  1.00  0.00     0.009 A 
HETATM   29  C   UNL     1      30.337  45.883  58.565  1.00  0.00     0.001 A 
HETATM   30  C   UNL     1      31.379  44.960  58.542  1.00  0.00     0.000 A 
HETATM   31  C   UNL     1      31.545  44.131  57.436  1.00  0.00     0.001 A 
HETATM   32  C   UNL     1      30.672  44.226  56.351  1.00  0.00     0.009 A 
ENDBRANCH  25  27
ENDBRANCH  22  25
ENDBRANCH  20  21
ENDBRANCH   1  20
BRANCH   8  33
HETATM   33  C   UNL     1      27.546  38.366  45.601  1.00  0.00     0.098 A 
HETATM   34  C   UNL     1      27.278  39.491  44.804  1.00  0.00     0.086 A 
HETATM   35  C   UNL     1      27.917  39.650  43.573  1.00  0.00     0.038 A 
HETATM   36  C   UNL     1      28.801  38.675  43.123  1.00  0.00     0.005 A 
HETATM   37  C   UNL     1      29.080  37.558  43.916  1.00  0.00     0.038 A 
HETATM   38  C   UNL     1      28.468  37.398  45.168  1.00  0.00     0.086 A 
BRANCH  34  39
HETATM   39  O   UNL     1      26.484  40.516  45.247  1.00  0.00    -0.355 OA
HETATM   40  C   UNL     1      25.345  40.687  44.407  1.00  0.00     0.210 C 
ENDBRANCH  34  39
BRANCH  38  41
HETATM   41  O   UNL     1      28.716  36.349  46.012  1.00  0.00    -0.355 OA
HETATM   42  C   UNL     1      28.344  35.045  45.577  1.00  0.00     0.210 C 
ENDBRANCH  38  41
ENDBRANCH   8  33
TORSDOF 8
ENDMDL
MODEL 6
REMARK VINA RESULT:      -8.4      4.248     10.483
REMARK  8 active torsions:
REMARK  status: ('A' for Active; 'I' for Inactive)
REMARK    1  A    between atoms: C_2  and  N_3 
REMARK    2  A    between atoms: C_2  and  C_36 
REMARK       I    between atoms: N_3  and  C_4 
REMARK    3  A    between atoms: C_4  and  C_5 
REMARK    4  A    between atoms: C_5  and  N_6 
REMARK       I    between atoms: N_12  and  C_13 
REMARK    5  A    between atoms: C_13  and  C_14 
REMARK    6  A    between atoms: C_15  and  O_16 
REMARK    7  A    between atoms: C_21  and  O_22 
REMARK    8  A    between atoms: N_27  and  C_28 
ROOT
HETATM    1  N   UNL     1      19.511  50.733  49.949  1.00  0.00    -0.325 N 
HETATM    2  C   UNL     1      19.018  49.579  49.381  1.00  0.00     0.250 C 
HETATM    3  O   UNL     1      19.563  48.487  49.412  1.00  0.00    -0.270 OA
HETATM    4  C   UNL     1      17.753  49.967  48.590  1.00  0.00     0.118 C 
HETATM    5  C   UNL     1      16.640  48.940  48.864  1.00  0.00     0.061 C 
HETATM    6  C   UNL     1      16.749  47.699  47.986  1.00  0.00     0.129 C 
HETATM    7  N   UNL     1      17.044  48.046  46.604  1.00  0.00    -0.348 N 
HETATM    8  C   UNL     1      16.005  48.065  45.665  1.00  0.00     0.259 C 
HETATM    9  O   UNL     1      14.824  47.918  45.965  1.00  0.00    -0.267 OA
HETATM   10  C   UNL     1      18.311  48.738  46.428  1.00  0.00     0.129 C 
HETATM   11  C   UNL     1      18.233  50.095  47.124  1.00  0.00     0.061 C 
HETATM   12  N   UNL     1      17.446  51.309  49.170  1.00  0.00    -0.346 N 
HETATM   13  C   UNL     1      18.594  51.832  49.899  1.00  0.00     0.254 C 
ENDROOT
BRANCH  12  14
HETATM   14  C   UNL     1      16.378  52.133  48.860  1.00  0.00     0.032 A 
HETATM   15  C   UNL     1      15.638  52.834  49.828  1.00  0.00     0.029 A 
HETATM   16  C   UNL     1      14.571  53.683  49.497  1.00  0.00     0.002 A 
HETATM   17  C   UNL     1      14.210  53.866  48.171  1.00  0.00     0.000 A 
HETATM   18  C   UNL     1      14.916  53.197  47.182  1.00  0.00     0.002 A 
HETATM   19  C   UNL     1      15.979  52.348  47.526  1.00  0.00     0.029 A 
ENDBRANCH  12  14
BRANCH   1  20
HETATM   20  C   UNL     1      20.877  50.906  50.411  1.00  0.00     0.230 C 
BRANCH  20  21
HETATM   21  C   UNL     1      21.969  50.488  49.429  1.00  0.00     0.236 C 
HETATM   22  N   UNL     1      22.537  49.263  49.694  1.00  0.00    -0.351 N 
HETATM   23  H   UNL     1      22.066  48.716  50.406  1.00  0.00     0.163 HD
HETATM   24  O   UNL     1      22.200  51.159  48.426  1.00  0.00    -0.272 OA
BRANCH  22  25
HETATM   25  C   UNL     1      23.312  48.494  48.727  1.00  0.00     0.113 C 
HETATM   26  C   UNL     1      22.956  47.008  48.641  1.00  0.00     0.037 C 
BRANCH  25  27
HETATM   27  C   UNL     1      24.797  48.766  48.905  1.00  0.00    -0.036 A 
HETATM   28  C   UNL     1      25.572  47.915  49.711  1.00  0.00     0.009 A 
HETATM   29  C   UNL     1      26.945  48.122  49.857  1.00  0.00     0.001 A 
HETATM   30  C   UNL     1      27.567  49.176  49.193  1.00  0.00     0.000 A 
HETATM   31  C   UNL     1      26.817  50.024  48.383  1.00  0.00     0.001 A 
HETATM   32  C   UNL     1      25.443  49.821  48.238  1.00  0.00     0.009 A 
ENDBRANCH  25  27
ENDBRANCH  22  25
ENDBRANCH  20  21
ENDBRANCH   1  20
BRANCH   8  33
HETATM   33  C   UNL     1      16.364  48.143  44.228  1.00  0.00     0.098 A 
HETATM   34  C   UNL     1      16.668  46.946  43.559  1.00  0.00     0.086 A 
HETATM   35  C   UNL     1      17.015  46.964  42.207  1.00  0.00     0.038 A 
HETATM   36  C   UNL     1      17.087  48.175  41.528  1.00  0.00     0.005 A 
HETATM   37  C   UNL     1      16.776  49.370  42.186  1.00  0.00     0.038 A 
HETATM   38  C   UNL     1      16.397  49.366  43.536  1.00  0.00     0.086 A 
BRANCH  34  39
HETATM   39  O   UNL     1      16.525  45.725  44.164  1.00  0.00    -0.355 OA
HETATM   40  C   UNL     1      17.784  45.076  44.320  1.00  0.00     0.210 C 
ENDBRANCH  34  39
BRANCH  38  41
HETATM   41  O   UNL     1      16.048  50.490  44.236  1.00  0.00    -0.355 OA
HETATM   42  C   UNL     1      16.786  51.681  43.989  1.00  0.00     0.210 C 
ENDBRANCH  38  41
ENDBRANCH   8  33
TORSDOF 8
ENDMDL
MODEL 7
REMARK VINA RESULT:      -8.4      3.391      9.139
REMARK  8 active torsions:
REMARK  status: ('A' for Active; 'I' for Inactive)
REMARK    1  A    between atoms: C_2  and  N_3 
REMARK    2  A    between atoms: C_2  and  C_36 
REMARK       I    between atoms: N_3  and  C_4 
REMARK    3  A    between atoms: C_4  and  C_5 
REMARK    4  A    between atoms: C_5  and  N_6 
REMARK       I    between atoms: N_12  and  C_13 
REMARK    5  A    between atoms: C_13  and  C_14 
REMARK    6  A    between atoms: C_15  and  O_16 
REMARK    7  A    between atoms: C_21  and  O_22 
REMARK    8  A    between atoms: N_27  and  C_28 
ROOT
HETATM    1  N   UNL     1      26.123  44.046  51.301  1.00  0.00    -0.325 N 
HETATM    2  C   UNL     1      25.304  43.062  50.791  1.00  0.00     0.250 C 
HETATM    3  O   UNL     1      25.388  41.871  51.045  1.00  0.00    -0.270 OA
HETATM    4  C   UNL     1      24.386  43.731  49.749  1.00  0.00     0.118 C 
HETATM    5  C   UNL     1      22.944  43.230  49.937  1.00  0.00     0.061 C 
HETATM    6  C   UNL     1      22.682  41.899  49.241  1.00  0.00     0.129 C 
HETATM    7  N   UNL     1      23.253  41.874  47.903  1.00  0.00    -0.348 N 
HETATM    8  C   UNL     1      22.422  42.098  46.799  1.00  0.00     0.259 C 
HETATM    9  O   UNL     1      21.246  42.434  46.898  1.00  0.00    -0.267 OA
HETATM   10  C   UNL     1      24.699  42.030  47.877  1.00  0.00     0.129 C 
HETATM   11  C   UNL     1      25.055  43.425  48.387  1.00  0.00     0.061 C 
HETATM   12  N   UNL     1      24.540  45.174  50.106  1.00  0.00    -0.346 N 
HETATM   13  C   UNL     1      25.701  45.372  50.963  1.00  0.00     0.254 C 
ENDROOT
BRANCH  12  14
HETATM   14  C   UNL     1      23.909  46.256  49.518  1.00  0.00     0.032 A 
HETATM   15  C   UNL     1      22.877  46.128  48.573  1.00  0.00     0.029 A 
HETATM   16  C   UNL     1      22.231  47.234  48.001  1.00  0.00     0.002 A 
HETATM   17  C   UNL     1      22.597  48.521  48.366  1.00  0.00     0.000 A 
HETATM   18  C   UNL     1      23.608  48.694  49.300  1.00  0.00     0.002 A 
HETATM   19  C   UNL     1      24.248  47.580  49.862  1.00  0.00     0.029 A 
ENDBRANCH  12  14
BRANCH   1  20
HETATM   20  C   UNL     1      27.385  43.800  51.976  1.00  0.00     0.230 C 
BRANCH  20  21
HETATM   21  C   UNL     1      27.402  44.081  53.476  1.00  0.00     0.236 C 
HETATM   22  N   UNL     1      28.426  44.901  53.892  1.00  0.00    -0.351 N 
HETATM   23  H   UNL     1      28.951  45.345  53.146  1.00  0.00     0.163 HD
HETATM   24  O   UNL     1      26.486  43.693  54.197  1.00  0.00    -0.272 OA
BRANCH  22  25
HETATM   25  C   UNL     1      28.446  45.600  55.172  1.00  0.00     0.113 C 
HETATM   26  C   UNL     1      28.386  47.127  55.081  1.00  0.00     0.037 C 
BRANCH  25  27
HETATM   27  C   UNL     1      29.577  45.075  56.042  1.00  0.00    -0.036 A 
HETATM   28  C   UNL     1      29.811  45.647  57.304  1.00  0.00     0.009 A 
HETATM   29  C   UNL     1      30.817  45.155  58.137  1.00  0.00     0.001 A 
HETATM   30  C   UNL     1      31.600  44.079  57.727  1.00  0.00     0.000 A 
HETATM   31  C   UNL     1      31.376  43.494  56.484  1.00  0.00     0.001 A 
HETATM   32  C   UNL     1      30.372  43.986  55.648  1.00  0.00     0.009 A 
ENDBRANCH  25  27
ENDBRANCH  22  25
ENDBRANCH  20  21
ENDBRANCH   1  20
BRANCH   8  33
HETATM   33  C   UNL     1      22.958  41.793  45.450  1.00  0.00     0.098 A 
HETATM   34  C   UNL     1      23.406  42.865  44.660  1.00  0.00     0.086 A 
HETATM   35  C   UNL     1      23.916  42.634  43.382  1.00  0.00     0.038 A 
HETATM   36  C   UNL     1      23.956  41.338  42.878  1.00  0.00     0.005 A 
HETATM   37  C   UNL     1      23.521  40.265  43.663  1.00  0.00     0.038 A 
HETATM   38  C   UNL     1      23.033  40.478  44.960  1.00  0.00     0.086 A 
BRANCH  34  39
HETATM   39  O   UNL     1      23.467  44.144  45.149  1.00  0.00    -0.355 OA
HETATM   40  C   UNL     1      22.408  44.946  44.630  1.00  0.00     0.210 C 
ENDBRANCH  34  39
BRANCH  38  41
HETATM   41  O   UNL     1      22.621  39.475  45.797  1.00  0.00    -0.355 OA
HETATM   42  C   UNL     1      23.597  38.539  46.242  1.00  0.00     0.210 C 
ENDBRANCH  38  41
ENDBRANCH   8  33
TORSDOF 8
ENDMDL
MODEL 8
REMARK VINA RESULT:      -8.3      4.495     11.514
REMARK  8 active torsions:
REMARK  status: ('A' for Active; 'I' for Inactive)
REMARK    1  A    between atoms: C_2  and  N_3 
REMARK    2  A    between atoms: C_2  and  C_36 
REMARK       I    between atoms: N_3  and  C_4 
REMARK    3  A    between atoms: C_4  and  C_5 
REMARK    4  A    between atoms: C_5  and  N_6 
REMARK       I    between atoms: N_12  and  C_13 
REMARK    5  A    between atoms: C_13  and  C_14 
REMARK    6  A    between atoms: C_15  and  O_16 
REMARK    7  A    between atoms: C_21  and  O_22 
REMARK    8  A    between atoms: N_27  and  C_28 
ROOT
HETATM    1  N   UNL     1      18.506  50.398  49.703  1.00  0.00    -0.325 N 
HETATM    2  C   UNL     1      18.152  49.797  48.515  1.00  0.00     0.250 C 
HETATM    3  O   UNL     1      18.703  48.823  48.023  1.00  0.00    -0.270 OA
HETATM    4  C   UNL     1      17.052  50.666  47.876  1.00  0.00     0.118 C 
HETATM    5  C   UNL     1      15.928  49.763  47.339  1.00  0.00     0.061 C 
HETATM    6  C   UNL     1      16.225  49.206  45.952  1.00  0.00     0.129 C 
HETATM    7  N   UNL     1      16.770  50.228  45.070  1.00  0.00    -0.348 N 
HETATM    8  C   UNL     1      15.928  50.854  44.143  1.00  0.00     0.259 C 
HETATM    9  O   UNL     1      14.714  50.673  44.107  1.00  0.00    -0.267 OA
HETATM   10  C   UNL     1      18.034  50.786  45.526  1.00  0.00     0.129 C 
HETATM   11  C   UNL     1      17.799  51.537  46.835  1.00  0.00     0.061 C 
HETATM   12  N   UNL     1      16.614  51.490  49.043  1.00  0.00    -0.346 N 
HETATM   13  C   UNL     1      17.593  51.419  50.120  1.00  0.00     0.254 C 
ENDROOT
BRANCH  12  14
HETATM   14  C   UNL     1      15.609  52.440  49.071  1.00  0.00     0.032 A 
HETATM   15  C   UNL     1      14.989  52.873  50.255  1.00  0.00     0.029 A 
HETATM   16  C   UNL     1      13.985  53.854  50.271  1.00  0.00     0.002 A 
HETATM   17  C   UNL     1      13.569  54.444  49.087  1.00  0.00     0.000 A 
HETATM   18  C   UNL     1      14.156  54.049  47.894  1.00  0.00     0.002 A 
HETATM   19  C   UNL     1      15.157  53.066  47.893  1.00  0.00     0.029 A 
ENDBRANCH  12  14
BRANCH   1  20
HETATM   20  C   UNL     1      19.756  50.165  50.404  1.00  0.00     0.230 C 
BRANCH  20  21
HETATM   21  C   UNL     1      20.998  50.040  49.525  1.00  0.00     0.236 C 
HETATM   22  N   UNL     1      21.508  48.765  49.435  1.00  0.00    -0.351 N 
HETATM   23  H   UNL     1      20.920  48.038  49.828  1.00  0.00     0.163 HD
HETATM   24  O   UNL     1      21.400  50.997  48.869  1.00  0.00    -0.272 OA
BRANCH  22  25
HETATM   25  C   UNL     1      22.434  48.326  48.398  1.00  0.00     0.113 C 
HETATM   26  C   UNL     1      22.069  47.005  47.715  1.00  0.00     0.037 C 
BRANCH  25  27
HETATM   27  C   UNL     1      23.865  48.385  48.908  1.00  0.00    -0.036 A 
HETATM   28  C   UNL     1      24.303  47.460  49.871  1.00  0.00     0.009 A 
HETATM   29  C   UNL     1      25.623  47.469  50.325  1.00  0.00     0.001 A 
HETATM   30  C   UNL     1      26.529  48.396  49.818  1.00  0.00     0.000 A 
HETATM   31  C   UNL     1      26.116  49.315  48.857  1.00  0.00     0.001 A 
HETATM   32  C   UNL     1      24.795  49.309  48.404  1.00  0.00     0.009 A 
ENDBRANCH  25  27
ENDBRANCH  22  25
ENDBRANCH  20  21
ENDBRANCH   1  20
BRANCH   8  33
HETATM   33  C   UNL     1      16.551  51.677  43.079  1.00  0.00     0.098 A 
HETATM   34  C   UNL     1      17.042  51.019  41.939  1.00  0.00     0.086 A 
HETATM   35  C   UNL     1      17.640  51.746  40.909  1.00  0.00     0.038 A 
HETATM   36  C   UNL     1      17.775  53.126  41.025  1.00  0.00     0.005 A 
HETATM   37  C   UNL     1      17.279  53.788  42.152  1.00  0.00     0.038 A 
HETATM   38  C   UNL     1      16.649  53.075  43.182  1.00  0.00     0.086 A 
BRANCH  34  39
HETATM   39  O   UNL     1      16.852  49.676  41.744  1.00  0.00    -0.355 OA
HETATM   40  C   UNL     1      18.096  48.982  41.683  1.00  0.00     0.210 C 
ENDBRANCH  34  39
BRANCH  38  41
HETATM   41  O   UNL     1      16.111  53.658  44.299  1.00  0.00    -0.355 OA
HETATM   42  C   UNL     1      14.915  54.414  44.142  1.00  0.00     0.210 C 
ENDBRANCH  38  41
ENDBRANCH   8  33
TORSDOF 8
ENDMDL
MODEL 9
REMARK VINA RESULT:      -8.3      2.951      9.666
REMARK  8 active torsions:
REMARK  status: ('A' for Active; 'I' for Inactive)
REMARK    1  A    between atoms: C_2  and  N_3 
REMARK    2  A    between atoms: C_2  and  C_36 
REMARK       I    between atoms: N_3  and  C_4 
REMARK    3  A    between atoms: C_4  and  C_5 
REMARK    4  A    between atoms: C_5  and  N_6 
REMARK       I    between atoms: N_12  and  C_13 
REMARK    5  A    between atoms: C_13  and  C_14 
REMARK    6  A    between atoms: C_15  and  O_16 
REMARK    7  A    between atoms: C_21  and  O_22 
REMARK    8  A    between atoms: N_27  and  C_28 
ROOT
HETATM    1  N   UNL     1      23.478  45.515  49.257  1.00  0.00    -0.325 N 
HETATM    2  C   UNL     1      22.294  44.942  48.846  1.00  0.00     0.250 C 
HETATM    3  O   UNL     1      22.059  43.744  48.821  1.00  0.00    -0.270 OA
HETATM    4  C   UNL     1      21.408  46.078  48.298  1.00  0.00     0.118 C 
HETATM    5  C   UNL     1      19.973  45.911  48.825  1.00  0.00     0.061 C 
HETATM    6  C   UNL     1      19.146  44.933  47.999  1.00  0.00     0.129 C 
HETATM    7  N   UNL     1      19.337  45.144  46.572  1.00  0.00    -0.348 N 
HETATM    8  C   UNL     1      18.376  45.863  45.850  1.00  0.00     0.259 C 
HETATM    9  O   UNL     1      17.426  46.434  46.378  1.00  0.00    -0.267 OA
HETATM   10  C   UNL     1      20.707  44.944  46.125  1.00  0.00     0.129 C 
HETATM   11  C   UNL     1      21.595  46.010  46.762  1.00  0.00     0.061 C 
HETATM   12  N   UNL     1      22.089  47.281  48.865  1.00  0.00    -0.346 N 
HETATM   13  C   UNL     1      23.426  46.943  49.336  1.00  0.00     0.254 C 
ENDROOT
BRANCH  12  14
HETATM   14  C   UNL     1      21.707  48.604  48.730  1.00  0.00     0.032 A 
HETATM   15  C   UNL     1      20.514  49.121  49.264  1.00  0.00     0.029 A 
HETATM   16  C   UNL     1      20.150  50.470  49.138  1.00  0.00     0.002 A 
HETATM   17  C   UNL     1      20.980  51.357  48.470  1.00  0.00     0.000 A 
HETATM   18  C   UNL     1      22.169  50.891  47.930  1.00  0.00     0.002 A 
HETATM   19  C   UNL     1      22.521  49.539  48.061  1.00  0.00     0.029 A 
ENDBRANCH  12  14
BRANCH   1  20
HETATM   20  C   UNL     1      24.723  44.790  49.440  1.00  0.00     0.230 C 
BRANCH  20  21
HETATM   21  C   UNL     1      25.026  44.338  50.866  1.00  0.00     0.236 C 
HETATM   22  N   UNL     1      26.105  44.965  51.448  1.00  0.00    -0.351 N 
HETATM   23  H   UNL     1      26.473  45.754  50.929  1.00  0.00     0.163 HD
HETATM   24  O   UNL     1      24.268  43.571  51.455  1.00  0.00    -0.272 OA
BRANCH  22  25
HETATM   25  C   UNL     1      26.365  44.983  52.882  1.00  0.00     0.113 C 
HETATM   26  C   UNL     1      26.163  46.340  53.563  1.00  0.00     0.037 C 
BRANCH  25  27
HETATM   27  C   UNL     1      27.704  44.331  53.185  1.00  0.00    -0.036 A 
HETATM   28  C   UNL     1      28.287  44.487  54.453  1.00  0.00     0.009 A 
HETATM   29  C   UNL     1      29.497  43.865  54.767  1.00  0.00     0.001 A 
HETATM   30  C   UNL     1      30.139  43.069  53.822  1.00  0.00     0.000 A 
HETATM   31  C   UNL     1      29.571  42.895  52.563  1.00  0.00     0.001 A 
HETATM   32  C   UNL     1      28.362  43.520  52.246  1.00  0.00     0.009 A 
ENDBRANCH  25  27
ENDBRANCH  22  25
ENDBRANCH  20  21
ENDBRANCH   1  20
BRANCH   8  33
HETATM   33  C   UNL     1      18.444  45.826  44.370  1.00  0.00     0.098 A 
HETATM   34  C   UNL     1      18.108  44.624  43.724  1.00  0.00     0.086 A 
HETATM   35  C   UNL     1      18.158  44.535  42.332  1.00  0.00     0.038 A 
HETATM   36  C   UNL     1      18.568  45.633  41.583  1.00  0.00     0.005 A 
HETATM   37  C   UNL     1      18.893  46.836  42.219  1.00  0.00     0.038 A 
HETATM   38  C   UNL     1      18.820  46.950  43.615  1.00  0.00     0.086 A 
BRANCH  34  39
HETATM   39  O   UNL     1      17.616  43.548  44.414  1.00  0.00    -0.355 OA
HETATM   40  C   UNL     1      17.347  42.454  43.541  1.00  0.00     0.210 C 
ENDBRANCH  34  39
BRANCH  38  41
HETATM   41  O   UNL     1      19.091  48.103  44.303  1.00  0.00    -0.355 OA
HETATM   42  C   UNL     1      18.220  49.212  44.110  1.00  0.00     0.210 C 
ENDBRANCH  38  41
ENDBRANCH   8  33
TORSDOF 8
ENDMDL
MODEL 10
REMARK VINA RESULT:      -8.2      2.914      9.432
REMARK  8 active torsions:
REMARK  status: ('A' for Active; 'I' for Inactive)
REMARK    1  A    between atoms: C_2  and  N_3 
REMARK    2  A    between atoms: C_2  and  C_36 
REMARK       I    between atoms: N_3  and  C_4 
REMARK    3  A    between atoms: C_4  and  C_5 
REMARK    4  A    between atoms: C_5  and  N_6 
REMARK       I    between atoms: N_12  and  C_13 
REMARK    5  A    between atoms: C_13  and  C_14 
REMARK    6  A    between atoms: C_15  and  O_16 
REMARK    7  A    between atoms: C_21  and  O_22 
REMARK    8  A    between atoms: N_27  and  C_28 
ROOT
HETATM    1  N   UNL     1      23.443  45.514  49.222  1.00  0.00    -0.325 N 
HETATM    2  C   UNL     1      22.257  44.947  48.809  1.00  0.00     0.250 C 
HETATM    3  O   UNL     1      22.019  43.749  48.776  1.00  0.00    -0.270 OA
HETATM    4  C   UNL     1      21.372  46.088  48.271  1.00  0.00     0.118 C 
HETATM    5  C   UNL     1      19.937  45.921  48.800  1.00  0.00     0.061 C 
HETATM    6  C   UNL     1      19.106  44.950  47.969  1.00  0.00     0.129 C 
HETATM    7  N   UNL     1      19.295  45.171  46.543  1.00  0.00    -0.348 N 
HETATM    8  C   UNL     1      18.334  45.897  45.829  1.00  0.00     0.259 C 
HETATM    9  O   UNL     1      17.386  46.466  46.362  1.00  0.00    -0.267 OA
HETATM   10  C   UNL     1      20.663  44.971  46.092  1.00  0.00     0.129 C 
HETATM   11  C   UNL     1      21.555  46.031  46.734  1.00  0.00     0.061 C 
HETATM   12  N   UNL     1      22.056  47.285  48.845  1.00  0.00    -0.346 N 
HETATM   13  C   UNL     1      23.393  46.942  49.311  1.00  0.00     0.254 C 
ENDROOT
BRANCH  12  14
HETATM   14  C   UNL     1      21.677  48.610  48.720  1.00  0.00     0.032 A 
HETATM   15  C   UNL     1      22.352  49.533  47.903  1.00  0.00     0.029 A 
HETATM   16  C   UNL     1      21.942  50.868  47.768  1.00  0.00     0.002 A 
HETATM   17  C   UNL     1      20.826  51.327  48.452  1.00  0.00     0.000 A 
HETATM   18  C   UNL     1      20.127  50.450  49.266  1.00  0.00     0.002 A 
HETATM   19  C   UNL     1      20.549  49.118  49.394  1.00  0.00     0.029 A 
ENDBRANCH  12  14
BRANCH   1  20
HETATM   20  C   UNL     1      24.687  44.785  49.397  1.00  0.00     0.230 C 
BRANCH  20  21
HETATM   21  C   UNL     1      24.997  44.332  50.821  1.00  0.00     0.236 C 
HETATM   22  N   UNL     1      26.056  44.986  51.410  1.00  0.00    -0.351 N 
HETATM   23  H   UNL     1      26.403  45.789  50.898  1.00  0.00     0.163 HD
HETATM   24  O   UNL     1      24.259  43.541  51.402  1.00  0.00    -0.272 OA
BRANCH  22  25
HETATM   25  C   UNL     1      26.310  45.002  52.846  1.00  0.00     0.113 C 
HETATM   26  C   UNL     1      26.100  46.356  53.529  1.00  0.00     0.037 C 
BRANCH  25  27
HETATM   27  C   UNL     1      27.651  44.355  53.152  1.00  0.00    -0.036 A 
HETATM   28  C   UNL     1      28.208  44.474  54.436  1.00  0.00     0.009 A 
HETATM   29  C   UNL     1      29.418  43.854  54.753  1.00  0.00     0.001 A 
HETATM   30  C   UNL     1      30.087  43.098  53.793  1.00  0.00     0.000 A 
HETATM   31  C   UNL     1      29.545  42.961  52.518  1.00  0.00     0.001 A 
HETATM   32  C   UNL     1      28.336  43.583  52.199  1.00  0.00     0.009 A 
ENDBRANCH  25  27
ENDBRANCH  22  25
ENDBRANCH  20  21
ENDBRANCH   1  20
BRANCH   8  33
HETATM   33  C   UNL     1      18.398  45.870  44.347  1.00  0.00     0.098 A 
HETATM   34  C   UNL     1      18.718  47.064  43.679  1.00  0.00     0.086 A 
HETATM   35  C   UNL     1      18.789  47.094  42.286  1.00  0.00     0.038 A 
HETATM   36  C   UNL     1      18.516  45.943  41.555  1.00  0.00     0.005 A 
HETATM   37  C   UNL     1      18.207  44.748  42.214  1.00  0.00     0.038 A 
HETATM   38  C   UNL     1      18.160  44.695  43.614  1.00  0.00     0.086 A 
BRANCH  34  39
HETATM   39  O   UNL     1      19.081  48.196  44.361  1.00  0.00    -0.355 OA
HETATM   40  C   UNL     1      18.169  49.263  44.110  1.00  0.00     0.210 C 
ENDBRANCH  34  39
BRANCH  38  41
HETATM   41  O   UNL     1      17.897  43.556  44.328  1.00  0.00    -0.355 OA
HETATM   42  C   UNL     1      18.668  42.396  44.035  1.00  0.00     0.210 C 
ENDBRANCH  38  41
ENDBRANCH   8  33
TORSDOF 8
ENDMDL
