MODEL 1
REMARK VINA RESULT:     -10.1      0.000      0.000
REMARK  6 active torsions:
REMARK  status: ('A' for Active; 'I' for Inactive)
REMARK    1  A    between atoms: C_4  and  C_5 
REMARK    2  A    between atoms: C_5  and  C_6 
REMARK    3  A    between atoms: C_6  and  C_7 
REMARK    4  A    between atoms: C_7  and  N_8 
REMARK    5  A    between atoms: C_11  and  O_12 
REMARK    6  A    between atoms: C_11  and  C_13 
ROOT
HETATM    1  N   UNL     1      26.617  45.705  53.092  1.00  0.00    -0.314 N 
HETATM    2  C   UNL     1      25.722  46.700  52.669  1.00  0.00     0.269 A 
HETATM    3  O   UNL     1      25.246  47.592  53.360  1.00  0.00    -0.269 OA
HETATM    4  C   UNL     1      25.395  46.421  51.170  1.00  0.00     0.198 A 
HETATM    5  C   UNL     1      26.161  45.149  50.913  1.00  0.00     0.017 A 
HETATM    6  C   UNL     1      26.851  44.773  52.071  1.00  0.00     0.047 A 
HETATM    7  C   UNL     1      26.198  44.350  49.777  1.00  0.00     0.013 A 
HETATM    8  C   UNL     1      26.958  43.178  49.813  1.00  0.00     0.001 A 
HETATM    9  C   UNL     1      27.658  42.815  50.975  1.00  0.00     0.002 A 
HETATM   10  C   UNL     1      27.605  43.614  52.120  1.00  0.00     0.030 A 
ENDROOT
BRANCH   4  11
HETATM   11  O   UNL     1      23.999  46.193  51.001  1.00  0.00    -0.371 OA
HETATM   12  H   UNL     1      23.658  46.104  51.909  1.00  0.00     0.212 HD
ENDBRANCH   4  11
BRANCH   4  13
HETATM   13  C   UNL     1      25.922  47.466  50.218  1.00  0.00     0.018 A 
HETATM   14  C   UNL     1      25.197  48.436  49.431  1.00  0.00     0.002 A 
HETATM   15  C   UNL     1      26.132  49.155  48.683  1.00  0.00     0.043 A 
HETATM   16  C   UNL     1      23.833  48.772  49.269  1.00  0.00     0.014 A 
HETATM   17  C   UNL     1      25.779  50.172  47.786  1.00  0.00     0.030 A 
HETATM   18  N   UNL     1      27.375  48.671  49.006  1.00  0.00    -0.365 N 
HETATM   19  C   UNL     1      24.423  50.471  47.642  1.00  0.00     0.002 A 
HETATM   20  C   UNL     1      23.462  49.783  48.373  1.00  0.00     0.001 A 
HETATM   21  H   UNL     1      28.242  49.013  48.616  1.00  0.00     0.165 HD
HETATM   22  C   UNL     1      27.265  47.662  49.917  1.00  0.00     0.100 A 
ENDBRANCH   4  13
BRANCH   1  23
HETATM   23  C   UNL     1      27.077  45.577  54.455  1.00  0.00     0.133 C 
BRANCH  23  24
HETATM   24  C   UNL     1      28.378  46.342  54.689  1.00  0.00     0.025 C 
BRANCH  24  25
HETATM   25  C   UNL     1      28.748  46.363  56.171  1.00  0.00     0.040 C 
BRANCH  25  26
HETATM   26  C   UNL     1      29.797  45.327  56.486  1.00  0.00    -0.058 A 
HETATM   27  C   UNL     1      30.062  44.287  55.585  1.00  0.00     0.007 A 
HETATM   28  C   UNL     1      31.008  43.309  55.894  1.00  0.00     0.001 A 
HETATM   29  C   UNL     1      31.696  43.360  57.106  1.00  0.00     0.000 A 
HETATM   30  C   UNL     1      31.437  44.388  58.009  1.00  0.00     0.001 A 
HETATM   31  C   UNL     1      30.490  45.367  57.703  1.00  0.00     0.007 A 
ENDBRANCH  25  26
ENDBRANCH  24  25
ENDBRANCH  23  24
ENDBRANCH   1  23
TORSDOF 6
ENDMDL
MODEL 2
REMARK VINA RESULT:      -9.8      2.103      3.585
REMARK  6 active torsions:
REMARK  status: ('A' for Active; 'I' for Inactive)
REMARK    1  A    between atoms: C_4  and  C_5 
REMARK    2  A    between atoms: C_5  and  C_6 
REMARK    3  A    between atoms: C_6  and  C_7 
REMARK    4  A    between atoms: C_7  and  N_8 
REMARK    5  A    between atoms: C_11  and  O_12 
REMARK    6  A    between atoms: C_11  and  C_13 
ROOT
HETATM    1  N   UNL     1      27.134  44.064  51.819  1.00  0.00    -0.314 N 
HETATM    2  C   UNL     1      26.896  44.278  50.453  1.00  0.00     0.269 A 
HETATM    3  O   UNL     1      27.269  43.566  49.529  1.00  0.00    -0.269 OA
HETATM    4  C   UNL     1      26.124  45.627  50.323  1.00  0.00     0.198 A 
HETATM    5  C   UNL     1      26.065  46.094  51.755  1.00  0.00     0.017 A 
HETATM    6  C   UNL     1      26.676  45.147  52.584  1.00  0.00     0.047 A 
HETATM    7  C   UNL     1      25.576  47.283  52.280  1.00  0.00     0.013 A 
HETATM    8  C   UNL     1      25.687  47.497  53.657  1.00  0.00     0.001 A 
HETATM    9  C   UNL     1      26.290  46.536  54.483  1.00  0.00     0.002 A 
HETATM   10  C   UNL     1      26.794  45.347  53.948  1.00  0.00     0.030 A 
ENDROOT
BRANCH   4  11
HETATM   11  O   UNL     1      26.868  46.552  49.538  1.00  0.00    -0.371 OA
HETATM   12  H   UNL     1      27.708  46.093  49.356  1.00  0.00     0.212 HD
ENDBRANCH   4  11
BRANCH   4  13
HETATM   13  C   UNL     1      24.702  45.481  49.837  1.00  0.00     0.018 A 
HETATM   14  C   UNL     1      23.816  46.481  49.289  1.00  0.00     0.002 A 
HETATM   15  C   UNL     1      22.594  45.858  49.021  1.00  0.00     0.043 A 
HETATM   16  C   UNL     1      23.923  47.860  48.998  1.00  0.00     0.014 A 
HETATM   17  C   UNL     1      21.486  46.536  48.497  1.00  0.00     0.030 A 
HETATM   18  N   UNL     1      22.723  44.536  49.366  1.00  0.00    -0.365 N 
HETATM   19  C   UNL     1      21.623  47.900  48.232  1.00  0.00     0.002 A 
HETATM   20  C   UNL     1      22.824  48.554  48.477  1.00  0.00     0.001 A 
HETATM   21  H   UNL     1      21.991  43.845  49.273  1.00  0.00     0.165 HD
HETATM   22  C   UNL     1      23.973  44.297  49.857  1.00  0.00     0.100 A 
ENDBRANCH   4  13
BRANCH   1  23
HETATM   23  C   UNL     1      27.911  42.958  52.327  1.00  0.00     0.133 C 
BRANCH  23  24
HETATM   24  C   UNL     1      29.331  43.385  52.695  1.00  0.00     0.025 C 
BRANCH  24  25
HETATM   25  C   UNL     1      29.856  42.587  53.888  1.00  0.00     0.040 C 
BRANCH  25  26
HETATM   26  C   UNL     1      30.171  43.491  55.052  1.00  0.00    -0.058 A 
HETATM   27  C   UNL     1      31.048  43.071  56.061  1.00  0.00     0.007 A 
HETATM   28  C   UNL     1      31.311  43.895  57.157  1.00  0.00     0.001 A 
HETATM   29  C   UNL     1      30.699  45.143  57.254  1.00  0.00     0.000 A 
HETATM   30  C   UNL     1      29.823  45.569  56.258  1.00  0.00     0.001 A 
HETATM   31  C   UNL     1      29.558  44.746  55.162  1.00  0.00     0.007 A 
ENDBRANCH  25  26
ENDBRANCH  24  25
ENDBRANCH  23  24
ENDBRANCH   1  23
TORSDOF 6
ENDMDL
MODEL 3
REMARK VINA RESULT:      -9.6      2.927      5.166
REMARK  6 active torsions:
REMARK  status: ('A' for Active; 'I' for Inactive)
REMARK    1  A    between atoms: C_4  and  C_5 
REMARK    2  A    between atoms: C_5  and  C_6 
REMARK    3  A    between atoms: C_6  and  C_7 
REMARK    4  A    between atoms: C_7  and  N_8 
REMARK    5  A    between atoms: C_11  and  O_12 
REMARK    6  A    between atoms: C_11  and  C_13 
ROOT
HETATM    1  N   UNL     1      26.934  43.251  52.975  1.00  0.00    -0.314 N 
HETATM    2  C   UNL     1      26.941  42.519  51.777  1.00  0.00     0.269 A 
HETATM    3  O   UNL     1      27.368  41.383  51.621  1.00  0.00    -0.269 OA
HETATM    4  C   UNL     1      26.362  43.447  50.665  1.00  0.00     0.198 A 
HETATM    5  C   UNL     1      26.135  44.734  51.416  1.00  0.00     0.017 A 
HETATM    6  C   UNL     1      26.491  44.564  52.758  1.00  0.00     0.047 A 
HETATM    7  C   UNL     1      25.711  45.971  50.947  1.00  0.00     0.013 A 
HETATM    8  C   UNL     1      25.629  47.032  51.853  1.00  0.00     0.001 A 
HETATM    9  C   UNL     1      25.977  46.850  53.201  1.00  0.00     0.002 A 
HETATM   10  C   UNL     1      26.416  45.607  53.665  1.00  0.00     0.030 A 
ENDROOT
BRANCH   4  11
HETATM   11  O   UNL     1      27.325  43.647  49.634  1.00  0.00    -0.371 OA
HETATM   12  H   UNL     1      27.722  42.768  49.502  1.00  0.00     0.212 HD
ENDBRANCH   4  11
BRANCH   4  13
HETATM   13  C   UNL     1      25.027  43.000  50.119  1.00  0.00     0.018 A 
HETATM   14  C   UNL     1      24.739  42.021  49.098  1.00  0.00     0.002 A 
HETATM   15  C   UNL     1      23.352  41.990  48.925  1.00  0.00     0.043 A 
HETATM   16  C   UNL     1      25.516  41.160  48.291  1.00  0.00     0.014 A 
HETATM   17  C   UNL     1      22.714  41.163  47.992  1.00  0.00     0.030 A 
HETATM   18  N   UNL     1      22.809  42.888  49.810  1.00  0.00    -0.365 N 
HETATM   19  C   UNL     1      23.512  40.333  47.204  1.00  0.00     0.002 A 
HETATM   20  C   UNL     1      24.895  40.328  47.350  1.00  0.00     0.001 A 
HETATM   21  H   UNL     1      21.820  43.070  49.906  1.00  0.00     0.165 HD
HETATM   22  C   UNL     1      23.796  43.500  50.526  1.00  0.00     0.100 A 
ENDBRANCH   4  13
BRANCH   1  23
HETATM   23  C   UNL     1      27.486  42.754  54.213  1.00  0.00     0.133 C 
BRANCH  23  24
HETATM   24  C   UNL     1      28.978  42.452  54.087  1.00  0.00     0.025 C 
BRANCH  24  25
HETATM   25  C   UNL     1      29.803  43.738  54.090  1.00  0.00     0.040 C 
BRANCH  25  26
HETATM   26  C   UNL     1      30.234  44.106  55.488  1.00  0.00    -0.058 A 
HETATM   27  C   UNL     1      29.766  45.281  56.090  1.00  0.00     0.007 A 
HETATM   28  C   UNL     1      30.194  45.638  57.369  1.00  0.00     0.001 A 
HETATM   29  C   UNL     1      31.094  44.826  58.056  1.00  0.00     0.000 A 
HETATM   30  C   UNL     1      31.568  43.657  57.465  1.00  0.00     0.001 A 
HETATM   31  C   UNL     1      31.143  43.298  56.185  1.00  0.00     0.007 A 
ENDBRANCH  25  26
ENDBRANCH  24  25
ENDBRANCH  23  24
ENDBRANCH   1  23
TORSDOF 6
ENDMDL
MODEL 4
REMARK VINA RESULT:      -9.5      1.983      3.042
REMARK  6 active torsions:
REMARK  status: ('A' for Active; 'I' for Inactive)
REMARK    1  A    between atoms: C_4  and  C_5 
REMARK    2  A    between atoms: C_5  and  C_6 
REMARK    3  A    between atoms: C_6  and  C_7 
REMARK    4  A    between atoms: C_7  and  N_8 
REMARK    5  A    between atoms: C_11  and  O_12 
REMARK    6  A    between atoms: C_11  and  C_13 
ROOT
HETATM    1  N   UNL     1      26.530  43.122  52.394  1.00  0.00    -0.314 N 
HETATM    2  C   UNL     1      25.225  43.627  52.499  1.00  0.00     0.269 A 
HETATM    3  O   UNL     1      24.704  44.095  53.503  1.00  0.00    -0.269 OA
HETATM    4  C   UNL     1      24.538  43.423  51.114  1.00  0.00     0.198 A 
HETATM    5  C   UNL     1      25.608  42.702  50.335  1.00  0.00     0.017 A 
HETATM    6  C   UNL     1      26.747  42.547  51.133  1.00  0.00     0.047 A 
HETATM    7  C   UNL     1      25.565  42.168  49.053  1.00  0.00     0.013 A 
HETATM    8  C   UNL     1      26.692  41.494  48.576  1.00  0.00     0.001 A 
HETATM    9  C   UNL     1      27.835  41.354  49.379  1.00  0.00     0.002 A 
HETATM   10  C   UNL     1      27.869  41.881  50.673  1.00  0.00     0.030 A 
ENDROOT
BRANCH   4  11
HETATM   11  O   UNL     1      23.389  42.593  51.247  1.00  0.00    -0.371 OA
HETATM   12  H   UNL     1      23.359  42.088  50.414  1.00  0.00     0.212 HD
ENDBRANCH   4  11
BRANCH   4  13
HETATM   13  C   UNL     1      24.233  44.706  50.380  1.00  0.00     0.018 A 
HETATM   14  C   UNL     1      25.045  45.891  50.233  1.00  0.00     0.002 A 
HETATM   15  C   UNL     1      24.306  46.819  49.494  1.00  0.00     0.043 A 
HETATM   16  C   UNL     1      26.336  46.277  50.661  1.00  0.00     0.014 A 
HETATM   17  C   UNL     1      24.780  48.098  49.176  1.00  0.00     0.030 A 
HETATM   18  N   UNL     1      23.106  46.231  49.181  1.00  0.00    -0.365 N 
HETATM   19  C   UNL     1      26.054  48.451  49.624  1.00  0.00     0.002 A 
HETATM   20  C   UNL     1      26.824  47.554  50.355  1.00  0.00     0.001 A 
HETATM   21  H   UNL     1      22.374  46.674  48.644  1.00  0.00     0.165 HD
HETATM   22  C   UNL     1      23.047  44.973  49.705  1.00  0.00     0.100 A 
ENDBRANCH   4  13
BRANCH   1  23
HETATM   23  C   UNL     1      27.446  43.049  53.509  1.00  0.00     0.133 C 
BRANCH  23  24
HETATM   24  C   UNL     1      28.629  43.999  53.333  1.00  0.00     0.025 C 
BRANCH  24  25
HETATM   25  C   UNL     1      29.915  43.388  53.890  1.00  0.00     0.040 C 
BRANCH  25  26
HETATM   26  C   UNL     1      30.217  43.918  55.268  1.00  0.00    -0.058 A 
HETATM   27  C   UNL     1      29.640  45.117  55.711  1.00  0.00     0.007 A 
HETATM   28  C   UNL     1      29.949  45.624  56.974  1.00  0.00     0.001 A 
HETATM   29  C   UNL     1      30.838  44.942  57.803  1.00  0.00     0.000 A 
HETATM   30  C   UNL     1      31.419  43.752  57.371  1.00  0.00     0.001 A 
HETATM   31  C   UNL     1      31.113  43.243  56.108  1.00  0.00     0.007 A 
ENDBRANCH  25  26
ENDBRANCH  24  25
ENDBRANCH  23  24
ENDBRANCH   1  23
TORSDOF 6
ENDMDL
MODEL 5
REMARK VINA RESULT:      -9.5      2.724      8.850
REMARK  6 active torsions:
REMARK  status: ('A' for Active; 'I' for Inactive)
REMARK    1  A    between atoms: C_4  and  C_5 
REMARK    2  A    between atoms: C_5  and  C_6 
REMARK    3  A    between atoms: C_6  and  C_7 
REMARK    4  A    between atoms: C_7  and  N_8 
REMARK    5  A    between atoms: C_11  and  O_12 
REMARK    6  A    between atoms: C_11  and  C_13 
ROOT
HETATM    1  N   UNL     1      24.708  48.274  49.160  1.00  0.00    -0.314 N 
HETATM    2  C   UNL     1      25.979  47.975  49.676  1.00  0.00     0.269 A 
HETATM    3  O   UNL     1      26.934  48.739  49.747  1.00  0.00    -0.269 OA
HETATM    4  C   UNL     1      25.970  46.471  50.086  1.00  0.00     0.198 A 
HETATM    5  C   UNL     1      24.593  46.036  49.655  1.00  0.00     0.017 A 
HETATM    6  C   UNL     1      23.903  47.127  49.116  1.00  0.00     0.047 A 
HETATM    7  C   UNL     1      24.015  44.772  49.674  1.00  0.00     0.013 A 
HETATM    8  C   UNL     1      22.723  44.625  49.164  1.00  0.00     0.001 A 
HETATM    9  C   UNL     1      22.032  45.728  48.636  1.00  0.00     0.002 A 
HETATM   10  C   UNL     1      22.623  46.994  48.605  1.00  0.00     0.030 A 
ENDROOT
BRANCH   4  11
HETATM   11  O   UNL     1      26.959  45.752  49.356  1.00  0.00    -0.371 OA
HETATM   12  H   UNL     1      27.518  45.346  50.043  1.00  0.00     0.212 HD
ENDBRANCH   4  11
BRANCH   4  13
HETATM   13  C   UNL     1      26.074  46.234  51.573  1.00  0.00     0.018 A 
HETATM   14  C   UNL     1      26.642  45.111  52.282  1.00  0.00     0.002 A 
HETATM   15  C   UNL     1      26.466  45.346  53.649  1.00  0.00     0.043 A 
HETATM   16  C   UNL     1      27.282  43.910  51.903  1.00  0.00     0.014 A 
HETATM   17  C   UNL     1      26.882  44.448  54.641  1.00  0.00     0.030 A 
HETATM   18  N   UNL     1      25.842  46.561  53.779  1.00  0.00    -0.365 N 
HETATM   19  C   UNL     1      27.500  43.265  54.231  1.00  0.00     0.002 A 
HETATM   20  C   UNL     1      27.700  42.998  52.881  1.00  0.00     0.001 A 
HETATM   21  H   UNL     1      25.595  46.986  54.662  1.00  0.00     0.165 HD
HETATM   22  C   UNL     1      25.599  47.100  52.550  1.00  0.00     0.100 A 
ENDBRANCH   4  13
BRANCH   1  23
HETATM   23  C   UNL     1      24.364  49.554  48.588  1.00  0.00     0.133 C 
BRANCH  23  24
HETATM   24  C   UNL     1      23.161  50.183  49.288  1.00  0.00     0.025 C 
BRANCH  24  25
HETATM   25  C   UNL     1      22.223  50.849  48.282  1.00  0.00     0.040 C 
BRANCH  25  26
HETATM   26  C   UNL     1      20.829  50.983  48.842  1.00  0.00    -0.058 A 
HETATM   27  C   UNL     1      20.003  52.044  48.447  1.00  0.00     0.007 A 
HETATM   28  C   UNL     1      18.726  52.186  48.993  1.00  0.00     0.001 A 
HETATM   29  C   UNL     1      18.266  51.271  49.940  1.00  0.00     0.000 A 
HETATM   30  C   UNL     1      19.081  50.216  50.341  1.00  0.00     0.001 A 
HETATM   31  C   UNL     1      20.359  50.072  49.797  1.00  0.00     0.007 A 
ENDBRANCH  25  26
ENDBRANCH  24  25
ENDBRANCH  23  24
ENDBRANCH   1  23
TORSDOF 6
ENDMDL
MODEL 6
REMARK VINA RESULT:      -9.1      2.476      7.698
REMARK  6 active torsions:
REMARK  status: ('A' for Active; 'I' for Inactive)
REMARK    1  A    between atoms: C_4  and  C_5 
REMARK    2  A    between atoms: C_5  and  C_6 
REMARK    3  A    between atoms: C_6  and  C_7 
REMARK    4  A    between atoms: C_7  and  N_8 
REMARK    5  A    between atoms: C_11  and  O_12 
REMARK    6  A    between atoms: C_11  and  C_13 
ROOT
HETATM    1  N   UNL     1      27.148  43.214  51.683  1.00  0.00    -0.314 N 
HETATM    2  C   UNL     1      26.918  43.111  53.064  1.00  0.00     0.269 A 
HETATM    3  O   UNL     1      26.990  42.092  53.739  1.00  0.00    -0.269 OA
HETATM    4  C   UNL     1      26.491  44.523  53.569  1.00  0.00     0.198 A 
HETATM    5  C   UNL     1      26.463  45.319  52.289  1.00  0.00     0.017 A 
HETATM    6  C   UNL     1      26.849  44.504  51.220  1.00  0.00     0.047 A 
HETATM    7  C   UNL     1      26.068  46.633  52.070  1.00  0.00     0.013 A 
HETATM    8  C   UNL     1      26.089  47.124  50.762  1.00  0.00     0.001 A 
HETATM    9  C   UNL     1      26.490  46.303  49.696  1.00  0.00     0.002 A 
HETATM   10  C   UNL     1      26.872  44.977  49.919  1.00  0.00     0.030 A 
ENDROOT
BRANCH   4  11
HETATM   11  O   UNL     1      25.188  44.473  54.140  1.00  0.00    -0.371 OA
HETATM   12  H   UNL     1      25.346  44.286  55.083  1.00  0.00     0.212 HD
ENDBRANCH   4  11
BRANCH   4  13
HETATM   13  C   UNL     1      27.492  45.180  54.488  1.00  0.00     0.018 A 
HETATM   14  C   UNL     1      28.775  44.694  54.939  1.00  0.00     0.002 A 
HETATM   15  C   UNL     1      29.307  45.654  55.805  1.00  0.00     0.043 A 
HETATM   16  C   UNL     1      29.540  43.529  54.707  1.00  0.00     0.014 A 
HETATM   17  C   UNL     1      30.541  45.504  56.451  1.00  0.00     0.030 A 
HETATM   18  N   UNL     1      28.409  46.690  55.870  1.00  0.00    -0.365 N 
HETATM   19  C   UNL     1      31.265  44.336  56.209  1.00  0.00     0.002 A 
HETATM   20  C   UNL     1      30.775  43.361  55.348  1.00  0.00     0.001 A 
HETATM   21  H   UNL     1      28.538  47.527  56.421  1.00  0.00     0.165 HD
HETATM   22  C   UNL     1      27.321  46.420  55.092  1.00  0.00     0.100 A 
ENDBRANCH   4  13
BRANCH   1  23
HETATM   23  C   UNL     1      27.471  42.084  50.844  1.00  0.00     0.133 C 
BRANCH  23  24
HETATM   24  C   UNL     1      26.293  41.121  50.712  1.00  0.00     0.025 C 
BRANCH  24  25
HETATM   25  C   UNL     1      25.681  41.186  49.313  1.00  0.00     0.040 C 
BRANCH  25  26
HETATM   26  C   UNL     1      24.641  42.274  49.223  1.00  0.00    -0.058 A 
HETATM   27  C   UNL     1      24.416  42.943  48.012  1.00  0.00     0.007 A 
HETATM   28  C   UNL     1      23.478  43.974  47.938  1.00  0.00     0.001 A 
HETATM   29  C   UNL     1      22.761  44.348  49.074  1.00  0.00     0.000 A 
HETATM   30  C   UNL     1      22.981  43.692  50.283  1.00  0.00     0.001 A 
HETATM   31  C   UNL     1      23.919  42.661  50.359  1.00  0.00     0.007 A 
ENDBRANCH  25  26
ENDBRANCH  24  25
ENDBRANCH  23  24
ENDBRANCH   1  23
TORSDOF 6
ENDMDL
MODEL 7
REMARK VINA RESULT:      -9.0     16.706     18.758
REMARK  6 active torsions:
REMARK  status: ('A' for Active; 'I' for Inactive)
REMARK    1  A    between atoms: C_4  and  C_5 
REMARK    2  A    between atoms: C_5  and  C_6 
REMARK    3  A    between atoms: C_6  and  C_7 
REMARK    4  A    between atoms: C_7  and  N_8 
REMARK    5  A    between atoms: C_11  and  O_12 
REMARK    6  A    between atoms: C_11  and  C_13 
ROOT
HETATM    1  N   UNL     1      39.350  46.509  65.231  1.00  0.00    -0.314 N 
HETATM    2  C   UNL     1      40.157  45.825  64.309  1.00  0.00     0.269 A 
HETATM    3  O   UNL     1      41.235  46.199  63.868  1.00  0.00    -0.269 OA
HETATM    4  C   UNL     1      39.395  44.527  63.901  1.00  0.00     0.198 A 
HETATM    5  C   UNL     1      38.099  44.672  64.657  1.00  0.00     0.017 A 
HETATM    6  C   UNL     1      38.125  45.850  65.412  1.00  0.00     0.047 A 
HETATM    7  C   UNL     1      36.965  43.871  64.636  1.00  0.00     0.013 A 
HETATM    8  C   UNL     1      35.863  44.259  65.402  1.00  0.00     0.001 A 
HETATM    9  C   UNL     1      35.901  45.436  66.166  1.00  0.00     0.002 A 
HETATM   10  C   UNL     1      37.039  46.246  66.174  1.00  0.00     0.030 A 
ENDROOT
BRANCH   4  11
HETATM   11  O   UNL     1      39.143  44.519  62.499  1.00  0.00    -0.371 OA
HETATM   12  H   UNL     1      40.014  44.345  62.100  1.00  0.00     0.212 HD
ENDBRANCH   4  11
BRANCH   4  13
HETATM   13  C   UNL     1      40.051  43.251  64.370  1.00  0.00     0.018 A 
HETATM   14  C   UNL     1      39.926  41.912  63.845  1.00  0.00     0.002 A 
HETATM   15  C   UNL     1      40.706  41.072  64.645  1.00  0.00     0.043 A 
HETATM   16  C   UNL     1      39.221  41.321  62.772  1.00  0.00     0.014 A 
HETATM   17  C   UNL     1      40.805  39.690  64.437  1.00  0.00     0.030 A 
HETATM   18  N   UNL     1      41.300  41.855  65.603  1.00  0.00    -0.365 N 
HETATM   19  C   UNL     1      40.087  39.138  63.375  1.00  0.00     0.002 A 
HETATM   20  C   UNL     1      39.306  39.941  62.552  1.00  0.00     0.001 A 
HETATM   21  H   UNL     1      41.925  41.509  66.318  1.00  0.00     0.165 HD
HETATM   22  C   UNL     1      40.916  43.155  65.454  1.00  0.00     0.100 A 
ENDBRANCH   4  13
BRANCH   1  23
HETATM   23  C   UNL     1      39.681  47.809  65.766  1.00  0.00     0.133 C 
BRANCH  23  24
HETATM   24  C   UNL     1      39.306  48.931  64.800  1.00  0.00     0.025 C 
BRANCH  24  25
HETATM   25  C   UNL     1      37.843  49.340  64.970  1.00  0.00     0.040 C 
BRANCH  25  26
HETATM   26  C   UNL     1      37.659  50.215  66.184  1.00  0.00    -0.058 A 
HETATM   27  C   UNL     1      37.208  49.667  67.393  1.00  0.00     0.007 A 
HETATM   28  C   UNL     1      37.004  50.484  68.506  1.00  0.00     0.001 A 
HETATM   29  C   UNL     1      37.246  51.854  68.420  1.00  0.00     0.000 A 
HETATM   30  C   UNL     1      37.691  52.408  67.223  1.00  0.00     0.001 A 
HETATM   31  C   UNL     1      37.895  51.594  66.108  1.00  0.00     0.007 A 
ENDBRANCH  25  26
ENDBRANCH  24  25
ENDBRANCH  23  24
ENDBRANCH   1  23
TORSDOF 6
ENDMDL
MODEL 8
REMARK VINA RESULT:      -8.8      8.202     11.749
REMARK  6 active torsions:
REMARK  status: ('A' for Active; 'I' for Inactive)
REMARK    1  A    between atoms: C_4  and  C_5 
REMARK    2  A    between atoms: C_5  and  C_6 
REMARK    3  A    between atoms: C_6  and  C_7 
REMARK    4  A    between atoms: C_7  and  N_8 
REMARK    5  A    between atoms: C_11  and  O_12 
REMARK    6  A    between atoms: C_11  and  C_13 
ROOT
HETATM    1  N   UNL     1      19.480  50.050  49.498  1.00  0.00    -0.314 N 
HETATM    2  C   UNL     1      18.969  48.755  49.321  1.00  0.00     0.269 A 
HETATM    3  O   UNL     1      17.910  48.324  49.760  1.00  0.00    -0.269 OA
HETATM    4  C   UNL     1      20.030  47.945  48.515  1.00  0.00     0.198 A 
HETATM    5  C   UNL     1      21.147  48.946  48.372  1.00  0.00     0.017 A 
HETATM    6  C   UNL     1      20.775  50.155  48.970  1.00  0.00     0.047 A 
HETATM    7  C   UNL     1      22.413  48.790  47.821  1.00  0.00     0.013 A 
HETATM    8  C   UNL     1      23.292  49.875  47.858  1.00  0.00     0.001 A 
HETATM    9  C   UNL     1      22.906  51.089  48.449  1.00  0.00     0.002 A 
HETATM   10  C   UNL     1      21.637  51.237  49.015  1.00  0.00     0.030 A 
ENDROOT
BRANCH   4  11
HETATM   11  O   UNL     1      20.474  46.821  49.269  1.00  0.00    -0.371 OA
HETATM   12  H   UNL     1      20.181  47.011  50.178  1.00  0.00     0.212 HD
ENDBRANCH   4  11
BRANCH   4  13
HETATM   13  C   UNL     1      19.588  47.560  47.124  1.00  0.00     0.018 A 
HETATM   14  C   UNL     1      19.067  48.395  46.066  1.00  0.00     0.002 A 
HETATM   15  C   UNL     1      18.772  47.564  44.982  1.00  0.00     0.043 A 
HETATM   16  C   UNL     1      18.807  49.776  45.920  1.00  0.00     0.014 A 
HETATM   17  C   UNL     1      18.227  48.035  43.781  1.00  0.00     0.030 A 
HETATM   18  N   UNL     1      19.112  46.283  45.343  1.00  0.00    -0.365 N 
HETATM   19  C   UNL     1      17.972  49.403  43.674  1.00  0.00     0.002 A 
HETATM   20  C   UNL     1      18.259  50.264  44.727  1.00  0.00     0.001 A 
HETATM   21  H   UNL     1      19.009  45.474  44.746  1.00  0.00     0.165 HD
HETATM   22  C   UNL     1      19.596  46.266  46.618  1.00  0.00     0.100 A 
ENDBRANCH   4  13
BRANCH   1  23
HETATM   23  C   UNL     1      18.818  51.065  50.283  1.00  0.00     0.133 C 
BRANCH  23  24
HETATM   24  C   UNL     1      18.015  52.025  49.408  1.00  0.00     0.025 C 
BRANCH  24  25
HETATM   25  C   UNL     1      16.516  51.749  49.516  1.00  0.00     0.040 C 
BRANCH  25  26
HETATM   26  C   UNL     1      15.957  51.254  48.206  1.00  0.00    -0.058 A 
HETATM   27  C   UNL     1      15.665  52.154  47.173  1.00  0.00     0.007 A 
HETATM   28  C   UNL     1      15.114  51.698  45.974  1.00  0.00     0.001 A 
HETATM   29  C   UNL     1      14.848  50.341  45.799  1.00  0.00     0.000 A 
HETATM   30  C   UNL     1      15.132  49.439  46.822  1.00  0.00     0.001 A 
HETATM   31  C   UNL     1      15.682  49.892  48.022  1.00  0.00     0.007 A 
ENDBRANCH  25  26
ENDBRANCH  24  25
ENDBRANCH  23  24
ENDBRANCH   1  23
TORSDOF 6
ENDMDL
MODEL 9
REMARK VINA RESULT:      -8.8     11.864     12.797
REMARK  6 active torsions:
REMARK  status: ('A' for Active; 'I' for Inactive)
REMARK    1  A    between atoms: C_4  and  C_5 
REMARK    2  A    between atoms: C_5  and  C_6 
REMARK    3  A    between atoms: C_6  and  C_7 
REMARK    4  A    between atoms: C_7  and  N_8 
REMARK    5  A    between atoms: C_11  and  O_12 
REMARK    6  A    between atoms: C_11  and  C_13 
ROOT
HETATM    1  N   UNL     1      30.039  51.027  40.904  1.00  0.00    -0.314 N 
HETATM    2  C   UNL     1      28.686  51.274  41.183  1.00  0.00     0.269 A 
HETATM    3  O   UNL     1      28.206  52.328  41.582  1.00  0.00    -0.269 OA
HETATM    4  C   UNL     1      27.914  49.940  40.952  1.00  0.00     0.198 A 
HETATM    5  C   UNL     1      29.028  48.988  40.600  1.00  0.00     0.017 A 
HETATM    6  C   UNL     1      30.248  49.675  40.593  1.00  0.00     0.047 A 
HETATM    7  C   UNL     1      28.986  47.619  40.368  1.00  0.00     0.013 A 
HETATM    8  C   UNL     1      30.186  46.953  40.107  1.00  0.00     0.001 A 
HETATM    9  C   UNL     1      31.404  47.651  40.090  1.00  0.00     0.002 A 
HETATM   10  C   UNL     1      31.443  49.026  40.338  1.00  0.00     0.030 A 
ENDROOT
BRANCH   4  11
HETATM   11  O   UNL     1      27.276  49.520  42.154  1.00  0.00    -0.371 OA
HETATM   12  H   UNL     1      27.705  50.048  42.851  1.00  0.00     0.212 HD
ENDBRANCH   4  11
BRANCH   4  13
HETATM   13  C   UNL     1      26.961  49.971  39.781  1.00  0.00     0.018 A 
HETATM   14  C   UNL     1      25.795  49.157  39.529  1.00  0.00     0.002 A 
HETATM   15  C   UNL     1      25.269  49.548  38.295  1.00  0.00     0.043 A 
HETATM   16  C   UNL     1      25.134  48.117  40.221  1.00  0.00     0.014 A 
HETATM   17  C   UNL     1      24.138  48.952  37.720  1.00  0.00     0.030 A 
HETATM   18  N   UNL     1      26.055  50.566  37.817  1.00  0.00    -0.365 N 
HETATM   19  C   UNL     1      23.517  47.920  38.424  1.00  0.00     0.002 A 
HETATM   20  C   UNL     1      24.005  47.508  39.659  1.00  0.00     0.001 A 
HETATM   21  H   UNL     1      25.903  51.044  36.940  1.00  0.00     0.165 HD
HETATM   22  C   UNL     1      27.070  50.827  38.691  1.00  0.00     0.100 A 
ENDBRANCH   4  13
BRANCH   1  23
HETATM   23  C   UNL     1      31.083  52.006  41.098  1.00  0.00     0.133 C 
BRANCH  23  24
HETATM   24  C   UNL     1      31.334  52.280  42.579  1.00  0.00     0.025 C 
BRANCH  24  25
HETATM   25  C   UNL     1      32.055  51.108  43.243  1.00  0.00     0.040 C 
BRANCH  25  26
HETATM   26  C   UNL     1      33.551  51.285  43.185  1.00  0.00    -0.058 A 
HETATM   27  C   UNL     1      34.205  52.116  44.106  1.00  0.00     0.007 A 
HETATM   28  C   UNL     1      35.585  52.307  44.029  1.00  0.00     0.001 A 
HETATM   29  C   UNL     1      36.323  51.673  43.030  1.00  0.00     0.000 A 
HETATM   30  C   UNL     1      35.682  50.848  42.109  1.00  0.00     0.001 A 
HETATM   31  C   UNL     1      34.302  50.656  42.183  1.00  0.00     0.007 A 
ENDBRANCH  25  26
ENDBRANCH  24  25
ENDBRANCH  23  24
ENDBRANCH   1  23
TORSDOF 6
ENDMDL
MODEL 10
REMARK VINA RESULT:      -8.8     12.034     14.842
REMARK  6 active torsions:
REMARK  status: ('A' for Active; 'I' for Inactive)
REMARK    1  A    between atoms: C_4  and  C_5 
REMARK    2  A    between atoms: C_5  and  C_6 
REMARK    3  A    between atoms: C_6  and  C_7 
REMARK    4  A    between atoms: C_7  and  N_8 
REMARK    5  A    between atoms: C_11  and  O_12 
REMARK    6  A    between atoms: C_11  and  C_13 
ROOT
HETATM    1  N   UNL     1      31.937  52.198  41.264  1.00  0.00    -0.314 N 
HETATM    2  C   UNL     1      32.970  52.445  40.346  1.00  0.00     0.269 A 
HETATM    3  O   UNL     1      33.211  53.508  39.789  1.00  0.00    -0.269 OA
HETATM    4  C   UNL     1      33.718  51.095  40.119  1.00  0.00     0.198 A 
HETATM    5  C   UNL     1      32.909  50.142  40.959  1.00  0.00     0.017 A 
HETATM    6  C   UNL     1      31.878  50.838  41.600  1.00  0.00     0.047 A 
HETATM    7  C   UNL     1      33.026  48.764  41.100  1.00  0.00     0.013 A 
HETATM    8  C   UNL     1      32.105  48.099  41.913  1.00  0.00     0.001 A 
HETATM    9  C   UNL     1      31.081  48.807  42.562  1.00  0.00     0.002 A 
HETATM   10  C   UNL     1      30.959  50.190  42.406  1.00  0.00     0.030 A 
ENDROOT
BRANCH   4  11
HETATM   11  O   UNL     1      33.651  50.715  38.748  1.00  0.00    -0.371 OA
HETATM   12  H   UNL     1      33.564  51.559  38.269  1.00  0.00     0.212 HD
ENDBRANCH   4  11
BRANCH   4  13
HETATM   13  C   UNL     1      35.132  51.075  40.647  1.00  0.00     0.018 A 
HETATM   14  C   UNL     1      35.634  51.502  41.933  1.00  0.00     0.002 A 
HETATM   15  C   UNL     1      37.018  51.313  41.927  1.00  0.00     0.043 A 
HETATM   16  C   UNL     1      35.053  52.040  43.104  1.00  0.00     0.014 A 
HETATM   17  C   UNL     1      37.842  51.641  43.012  1.00  0.00     0.030 A 
HETATM   18  N   UNL     1      37.354  50.777  40.709  1.00  0.00    -0.365 N 
HETATM   19  C   UNL     1      37.237  52.181  44.149  1.00  0.00     0.002 A 
HETATM   20  C   UNL     1      35.862  52.377  44.197  1.00  0.00     0.001 A 
HETATM   21  H   UNL     1      38.295  50.533  40.430  1.00  0.00     0.165 HD
HETATM   22  C   UNL     1      36.240  50.633  39.935  1.00  0.00     0.100 A 
ENDBRANCH   4  13
BRANCH   1  23
HETATM   23  C   UNL     1      30.965  53.193  41.651  1.00  0.00     0.133 C 
BRANCH  23  24
HETATM   24  C   UNL     1      29.957  53.464  40.537  1.00  0.00     0.025 C 
BRANCH  24  25
HETATM   25  C   UNL     1      28.579  52.905  40.890  1.00  0.00     0.040 C 
BRANCH  25  26
HETATM   26  C   UNL     1      28.430  51.481  40.417  1.00  0.00    -0.058 A 
HETATM   27  C   UNL     1      27.667  50.565  41.152  1.00  0.00     0.007 A 
HETATM   28  C   UNL     1      27.559  49.238  40.732  1.00  0.00     0.001 A 
HETATM   29  C   UNL     1      28.216  48.816  39.577  1.00  0.00     0.000 A 
HETATM   30  C   UNL     1      28.980  49.719  38.842  1.00  0.00     0.001 A 
HETATM   31  C   UNL     1      29.090  51.046  39.260  1.00  0.00     0.007 A 
ENDBRANCH  25  26
ENDBRANCH  24  25
ENDBRANCH  23  24
ENDBRANCH   1  23
TORSDOF 6
ENDMDL
