MODEL 1
REMARK VINA RESULT:     -10.1      0.000      0.000
REMARK  2 active torsions:
REMARK  status: ('A' for Active; 'I' for Inactive)
REMARK    1  A    between atoms: C_15  and  C_16 
REMARK    2  A    between atoms: C_19  and  O_20 
ROOT
HETATM    1  C   UNL     1      30.834  45.624  58.516  1.00  0.00     0.048 C 
HETATM    2  C   UNL     1      30.403  45.066  57.191  1.00  0.00    -0.061 A 
HETATM    3  C   UNL     1      29.356  45.663  56.466  1.00  0.00     0.021 A 
HETATM    4  C   UNL     1      28.955  45.114  55.230  1.00  0.00    -0.000 A 
HETATM    5  C   UNL     1      29.629  43.980  54.755  1.00  0.00     0.043 A 
HETATM    6  N   UNL     1      29.075  43.646  53.539  1.00  0.00    -0.353 N 
HETATM    7  H   UNL     1      29.374  42.884  52.945  1.00  0.00     0.166 HD
HETATM    8  C   UNL     1      28.037  44.484  53.271  1.00  0.00     0.066 A 
HETATM    9  C   UNL     1      27.963  45.443  54.262  1.00  0.00    -0.017 A 
HETATM   10  C   UNL     1      26.966  46.568  54.192  1.00  0.00     0.043 C 
HETATM   11  C   UNL     1      26.291  46.662  52.779  1.00  0.00     0.018 C 
HETATM   12  C   UNL     1      25.876  45.259  52.292  1.00  0.00     0.065 C 
HETATM   13  C   UNL     1      27.173  44.507  52.142  1.00  0.00     0.082 C 
HETATM   14  N   UNL     1      27.490  44.082  50.964  1.00  0.00    -0.203 NA
HETATM   15  C   UNL     1      25.302  44.957  50.902  1.00  0.00     0.121 C 
HETATM   16  N   UNL     1      26.486  44.496  50.140  1.00  0.00    -0.207 NA
HETATM   17  C   UNL     1      30.673  43.371  55.458  1.00  0.00     0.031 A 
HETATM   18  C   UNL     1      31.043  43.930  56.683  1.00  0.00     0.009 A 
HETATM   19  H   UNL     1      26.833  45.255  49.547  1.00  0.00     0.149 HD
ENDROOT
BRANCH  15  20
HETATM   20  C   UNL     1      24.392  45.913  50.163  1.00  0.00    -0.038 A 
HETATM   21  C   UNL     1      23.443  45.470  49.234  1.00  0.00     0.011 A 
HETATM   22  C   UNL     1      22.713  46.380  48.459  1.00  0.00     0.037 A 
HETATM   23  C   UNL     1      22.941  47.753  48.560  1.00  0.00     0.068 A 
HETATM   24  C   UNL     1      23.884  48.213  49.474  1.00  0.00     0.037 A 
HETATM   25  C   UNL     1      24.604  47.303  50.256  1.00  0.00     0.011 A 
BRANCH  23  26
HETATM   26  O   UNL     1      22.200  48.532  47.716  1.00  0.00    -0.356 OA
HETATM   27  C   UNL     1      22.468  49.930  47.747  1.00  0.00     0.210 C 
ENDBRANCH  23  26
ENDBRANCH  15  20
TORSDOF 2
ENDMDL
MODEL 2
REMARK VINA RESULT:     -10.0      3.006      8.703
REMARK  2 active torsions:
REMARK  status: ('A' for Active; 'I' for Inactive)
REMARK    1  A    between atoms: C_15  and  C_16 
REMARK    2  A    between atoms: C_19  and  O_20 
ROOT
HETATM    1  C   UNL     1      22.336  50.412  47.551  1.00  0.00     0.048 C 
HETATM    2  C   UNL     1      22.563  49.048  48.135  1.00  0.00    -0.061 A 
HETATM    3  C   UNL     1      23.644  48.810  49.004  1.00  0.00     0.021 A 
HETATM    4  C   UNL     1      23.849  47.518  49.531  1.00  0.00    -0.000 A 
HETATM    5  C   UNL     1      22.952  46.502  49.172  1.00  0.00     0.043 A 
HETATM    6  N   UNL     1      23.348  45.351  49.818  1.00  0.00    -0.353 N 
HETATM    7  H   UNL     1      22.877  44.457  49.770  1.00  0.00     0.166 HD
HETATM    8  C   UNL     1      24.496  45.593  50.508  1.00  0.00     0.066 A 
HETATM    9  C   UNL     1      24.811  46.933  50.405  1.00  0.00    -0.017 A 
HETATM   10  C   UNL     1      25.983  47.523  51.142  1.00  0.00     0.043 C 
HETATM   11  C   UNL     1      26.559  46.529  52.211  1.00  0.00     0.018 C 
HETATM   12  C   UNL     1      26.682  45.114  51.612  1.00  0.00     0.065 C 
HETATM   13  C   UNL     1      25.265  44.703  51.306  1.00  0.00     0.082 C 
HETATM   14  N   UNL     1      24.793  43.668  51.918  1.00  0.00    -0.203 NA
HETATM   15  C   UNL     1      27.090  43.867  52.406  1.00  0.00     0.121 C 
HETATM   16  N   UNL     1      25.790  43.239  52.742  1.00  0.00    -0.207 NA
HETATM   17  C   UNL     1      21.872  46.716  48.312  1.00  0.00     0.031 A 
HETATM   18  C   UNL     1      21.697  48.003  47.798  1.00  0.00     0.009 A 
HETATM   19  H   UNL     1      25.541  43.457  53.711  1.00  0.00     0.149 HD
ENDROOT
BRANCH  15  20
HETATM   20  C   UNL     1      28.099  43.903  53.533  1.00  0.00    -0.038 A 
HETATM   21  C   UNL     1      28.041  44.861  54.553  1.00  0.00     0.011 A 
HETATM   22  C   UNL     1      29.066  44.964  55.503  1.00  0.00     0.037 A 
HETATM   23  C   UNL     1      30.192  44.142  55.436  1.00  0.00     0.068 A 
HETATM   24  C   UNL     1      30.270  43.188  54.427  1.00  0.00     0.037 A 
HETATM   25  C   UNL     1      29.241  43.079  53.485  1.00  0.00     0.011 A 
BRANCH  23  26
HETATM   26  O   UNL     1      31.141  44.374  56.392  1.00  0.00    -0.356 OA
HETATM   27  C   UNL     1      31.573  43.242  57.141  1.00  0.00     0.210 C 
ENDBRANCH  23  26
ENDBRANCH  15  20
TORSDOF 2
ENDMDL
MODEL 3
REMARK VINA RESULT:      -9.6      1.889      2.753
REMARK  2 active torsions:
REMARK  status: ('A' for Active; 'I' for Inactive)
REMARK    1  A    between atoms: C_15  and  C_16 
REMARK    2  A    between atoms: C_19  and  O_20 
ROOT
HETATM    1  C   UNL     1      32.140  42.939  57.342  1.00  0.00     0.048 C 
HETATM    2  C   UNL     1      31.099  43.968  57.010  1.00  0.00    -0.061 A 
HETATM    3  C   UNL     1      30.340  43.868  55.830  1.00  0.00     0.021 A 
HETATM    4  C   UNL     1      29.377  44.853  55.529  1.00  0.00    -0.000 A 
HETATM    5  C   UNL     1      29.201  45.910  56.432  1.00  0.00     0.043 A 
HETATM    6  N   UNL     1      28.207  46.723  55.932  1.00  0.00    -0.353 N 
HETATM    7  H   UNL     1      27.844  47.554  56.381  1.00  0.00     0.166 HD
HETATM    8  C   UNL     1      27.808  46.253  54.719  1.00  0.00     0.066 A 
HETATM    9  C   UNL     1      28.464  45.067  54.456  1.00  0.00    -0.017 A 
HETATM   10  C   UNL     1      28.160  44.259  53.223  1.00  0.00     0.043 C 
HETATM   11  C   UNL     1      26.863  44.765  52.499  1.00  0.00     0.018 C 
HETATM   12  C   UNL     1      26.870  46.304  52.407  1.00  0.00     0.065 C 
HETATM   13  C   UNL     1      26.821  46.773  53.838  1.00  0.00     0.082 C 
HETATM   14  N   UNL     1      25.800  47.475  54.207  1.00  0.00    -0.203 NA
HETATM   15  C   UNL     1      25.705  47.147  51.874  1.00  0.00     0.121 C 
HETATM   16  N   UNL     1      24.999  47.567  53.108  1.00  0.00    -0.207 NA
HETATM   17  C   UNL     1      29.942  46.030  57.611  1.00  0.00     0.031 A 
HETATM   18  C   UNL     1      30.895  45.044  57.880  1.00  0.00     0.009 A 
HETATM   19  H   UNL     1      24.171  46.981  53.250  1.00  0.00     0.149 HD
ENDROOT
BRANCH  15  20
HETATM   20  C   UNL     1      24.809  46.691  50.743  1.00  0.00    -0.038 A 
HETATM   21  C   UNL     1      24.166  47.596  49.892  1.00  0.00     0.011 A 
HETATM   22  C   UNL     1      23.231  47.156  48.945  1.00  0.00     0.037 A 
HETATM   23  C   UNL     1      22.884  45.807  48.853  1.00  0.00     0.068 A 
HETATM   24  C   UNL     1      23.509  44.893  49.694  1.00  0.00     0.037 A 
HETATM   25  C   UNL     1      24.450  45.332  50.631  1.00  0.00     0.011 A 
BRANCH  23  26
HETATM   26  O   UNL     1      21.926  45.513  47.924  1.00  0.00    -0.356 OA
HETATM   27  C   UNL     1      20.595  45.907  48.242  1.00  0.00     0.210 C 
ENDBRANCH  23  26
ENDBRANCH  15  20
TORSDOF 2
ENDMDL
MODEL 4
REMARK VINA RESULT:      -9.5      3.059      4.232
REMARK  2 active torsions:
REMARK  status: ('A' for Active; 'I' for Inactive)
REMARK    1  A    between atoms: C_15  and  C_16 
REMARK    2  A    between atoms: C_19  and  O_20 
ROOT
HETATM    1  C   UNL     1      32.143  43.385  57.074  1.00  0.00     0.048 C 
HETATM    2  C   UNL     1      30.948  44.009  56.415  1.00  0.00    -0.061 A 
HETATM    3  C   UNL     1      30.318  43.381  55.325  1.00  0.00     0.021 A 
HETATM    4  C   UNL     1      29.206  43.991  54.709  1.00  0.00    -0.000 A 
HETATM    5  C   UNL     1      28.753  45.217  55.217  1.00  0.00     0.043 A 
HETATM    6  N   UNL     1      27.660  45.598  54.469  1.00  0.00    -0.353 N 
HETATM    7  H   UNL     1      27.107  46.431  54.619  1.00  0.00     0.166 HD
HETATM    8  C   UNL     1      27.458  44.694  53.473  1.00  0.00     0.066 A 
HETATM    9  C   UNL     1      28.354  43.654  53.618  1.00  0.00    -0.017 A 
HETATM   10  C   UNL     1      28.314  42.452  52.713  1.00  0.00     0.043 C 
HETATM   11  C   UNL     1      27.003  42.414  51.852  1.00  0.00     0.018 C 
HETATM   12  C   UNL     1      26.712  43.808  51.262  1.00  0.00     0.065 C 
HETATM   13  C   UNL     1      26.459  44.686  52.462  1.00  0.00     0.082 C 
HETATM   14  N   UNL     1      25.294  45.234  52.571  1.00  0.00    -0.203 NA
HETATM   15  C   UNL     1      25.447  44.170  50.473  1.00  0.00     0.121 C 
HETATM   16  N   UNL     1      24.578  44.800  51.496  1.00  0.00    -0.207 NA
HETATM   17  C   UNL     1      29.362  45.859  56.299  1.00  0.00     0.031 A 
HETATM   18  C   UNL     1      30.468  45.237  56.884  1.00  0.00     0.009 A 
HETATM   19  H   UNL     1      23.875  44.127  51.813  1.00  0.00     0.149 HD
ENDROOT
BRANCH  15  20
HETATM   20  C   UNL     1      24.751  43.199  49.545  1.00  0.00    -0.038 A 
HETATM   21  C   UNL     1      23.369  42.984  49.594  1.00  0.00     0.011 A 
HETATM   22  C   UNL     1      22.769  41.978  48.825  1.00  0.00     0.037 A 
HETATM   23  C   UNL     1      23.537  41.135  48.021  1.00  0.00     0.068 A 
HETATM   24  C   UNL     1      24.913  41.330  47.963  1.00  0.00     0.037 A 
HETATM   25  C   UNL     1      25.509  42.342  48.723  1.00  0.00     0.011 A 
BRANCH  23  26
HETATM   26  O   UNL     1      22.839  40.164  47.358  1.00  0.00    -0.356 OA
HETATM   27  C   UNL     1      23.607  39.258  46.573  1.00  0.00     0.210 C 
ENDBRANCH  23  26
ENDBRANCH  15  20
TORSDOF 2
ENDMDL
MODEL 5
REMARK VINA RESULT:      -9.3      6.316      9.594
REMARK  2 active torsions:
REMARK  status: ('A' for Active; 'I' for Inactive)
REMARK    1  A    between atoms: C_15  and  C_16 
REMARK    2  A    between atoms: C_19  and  O_20 
ROOT
HETATM    1  C   UNL     1      27.206  49.780  48.636  1.00  0.00     0.048 C 
HETATM    2  C   UNL     1      25.831  49.236  48.893  1.00  0.00    -0.061 A 
HETATM    3  C   UNL     1      24.692  50.037  48.692  1.00  0.00     0.021 A 
HETATM    4  C   UNL     1      23.410  49.512  48.954  1.00  0.00    -0.000 A 
HETATM    5  C   UNL     1      23.311  48.188  49.404  1.00  0.00     0.043 A 
HETATM    6  N   UNL     1      21.973  47.905  49.571  1.00  0.00    -0.353 N 
HETATM    7  H   UNL     1      21.592  47.015  49.864  1.00  0.00     0.166 HD
HETATM    8  C   UNL     1      21.240  49.021  49.310  1.00  0.00     0.066 A 
HETATM    9  C   UNL     1      22.082  50.022  48.869  1.00  0.00    -0.017 A 
HETATM   10  C   UNL     1      21.548  51.354  48.415  1.00  0.00     0.043 C 
HETATM   11  C   UNL     1      19.990  51.324  48.231  1.00  0.00     0.018 C 
HETATM   12  C   UNL     1      19.324  50.617  49.428  1.00  0.00     0.065 C 
HETATM   13  C   UNL     1      19.830  49.198  49.363  1.00  0.00     0.082 C 
HETATM   14  N   UNL     1      18.962  48.257  49.192  1.00  0.00    -0.203 NA
HETATM   15  C   UNL     1      17.828  50.296  49.525  1.00  0.00     0.121 C 
HETATM   16  N   UNL     1      17.755  48.882  49.089  1.00  0.00    -0.207 NA
HETATM   17  C   UNL     1      24.428  47.374  49.610  1.00  0.00     0.031 A 
HETATM   18  C   UNL     1      25.687  47.922  49.351  1.00  0.00     0.009 A 
HETATM   19  H   UNL     1      17.438  48.835  48.116  1.00  0.00     0.149 HD
ENDROOT
BRANCH  15  20
HETATM   20  C   UNL     1      16.755  51.201  48.959  1.00  0.00    -0.038 A 
HETATM   21  C   UNL     1      16.369  51.148  47.615  1.00  0.00     0.011 A 
HETATM   22  C   UNL     1      15.478  52.091  47.083  1.00  0.00     0.037 A 
HETATM   23  C   UNL     1      14.984  53.133  47.869  1.00  0.00     0.068 A 
HETATM   24  C   UNL     1      15.359  53.205  49.205  1.00  0.00     0.037 A 
HETATM   25  C   UNL     1      16.240  52.257  49.738  1.00  0.00     0.011 A 
BRANCH  23  26
HETATM   26  O   UNL     1      14.162  54.013  47.220  1.00  0.00    -0.356 OA
HETATM   27  C   UNL     1      13.781  55.175  47.949  1.00  0.00     0.210 C 
ENDBRANCH  23  26
ENDBRANCH  15  20
TORSDOF 2
ENDMDL
MODEL 6
REMARK VINA RESULT:      -9.1      4.709      7.516
REMARK  2 active torsions:
REMARK  status: ('A' for Active; 'I' for Inactive)
REMARK    1  A    between atoms: C_15  and  C_16 
REMARK    2  A    between atoms: C_19  and  O_20 
ROOT
HETATM    1  C   UNL     1      27.819  38.505  45.508  1.00  0.00     0.048 C 
HETATM    2  C   UNL     1      28.136  38.723  46.959  1.00  0.00    -0.061 A 
HETATM    3  C   UNL     1      27.783  39.925  47.600  1.00  0.00     0.021 A 
HETATM    4  C   UNL     1      28.103  40.116  48.960  1.00  0.00    -0.000 A 
HETATM    5  C   UNL     1      28.764  39.084  49.640  1.00  0.00     0.043 A 
HETATM    6  N   UNL     1      28.949  39.496  50.942  1.00  0.00    -0.353 N 
HETATM    7  H   UNL     1      29.378  38.949  51.677  1.00  0.00     0.166 HD
HETATM    8  C   UNL     1      28.494  40.770  51.080  1.00  0.00     0.066 A 
HETATM    9  C   UNL     1      27.911  41.173  49.895  1.00  0.00    -0.017 A 
HETATM   10  C   UNL     1      27.232  42.511  49.770  1.00  0.00     0.043 C 
HETATM   11  C   UNL     1      27.026  43.193  51.167  1.00  0.00     0.018 C 
HETATM   12  C   UNL     1      28.310  43.079  52.012  1.00  0.00     0.065 C 
HETATM   13  C   UNL     1      28.490  41.599  52.236  1.00  0.00     0.082 C 
HETATM   14  N   UNL     1      28.460  41.166  53.453  1.00  0.00    -0.203 NA
HETATM   15  C   UNL     1      28.430  43.523  53.475  1.00  0.00     0.121 C 
HETATM   16  N   UNL     1      28.232  42.262  54.229  1.00  0.00    -0.207 NA
HETATM   17  C   UNL     1      29.123  37.881  49.025  1.00  0.00     0.031 A 
HETATM   18  C   UNL     1      28.802  37.722  47.675  1.00  0.00     0.009 A 
HETATM   19  H   UNL     1      27.274  42.222  54.590  1.00  0.00     0.149 HD
ENDROOT
BRANCH  15  20
HETATM   20  C   UNL     1      27.703  44.727  54.031  1.00  0.00    -0.038 A 
HETATM   21  C   UNL     1      26.383  45.029  53.676  1.00  0.00     0.011 A 
HETATM   22  C   UNL     1      25.781  46.225  54.090  1.00  0.00     0.037 A 
HETATM   23  C   UNL     1      26.494  47.168  54.832  1.00  0.00     0.068 A 
HETATM   24  C   UNL     1      27.808  46.888  55.190  1.00  0.00     0.037 A 
HETATM   25  C   UNL     1      28.404  45.689  54.786  1.00  0.00     0.011 A 
BRANCH  23  26
HETATM   26  O   UNL     1      25.810  48.312  55.133  1.00  0.00    -0.356 OA
HETATM   27  C   UNL     1      26.152  48.950  56.359  1.00  0.00     0.210 C 
ENDBRANCH  23  26
ENDBRANCH  15  20
TORSDOF 2
ENDMDL
MODEL 7
REMARK VINA RESULT:      -9.1      4.543      6.046
REMARK  2 active torsions:
REMARK  status: ('A' for Active; 'I' for Inactive)
REMARK    1  A    between atoms: C_15  and  C_16 
REMARK    2  A    between atoms: C_19  and  O_20 
ROOT
HETATM    1  C   UNL     1      31.743  44.980  58.199  1.00  0.00     0.048 C 
HETATM    2  C   UNL     1      30.638  44.994  57.183  1.00  0.00    -0.061 A 
HETATM    3  C   UNL     1      30.591  44.029  56.160  1.00  0.00     0.021 A 
HETATM    4  C   UNL     1      29.553  44.069  55.206  1.00  0.00    -0.000 A 
HETATM    5  C   UNL     1      28.585  45.077  55.316  1.00  0.00     0.043 A 
HETATM    6  N   UNL     1      27.680  44.898  54.292  1.00  0.00    -0.353 N 
HETATM    7  H   UNL     1      26.856  45.460  54.130  1.00  0.00     0.166 HD
HETATM    8  C   UNL     1      28.086  43.861  53.509  1.00  0.00     0.066 A 
HETATM    9  C   UNL     1      29.207  43.284  54.068  1.00  0.00    -0.017 A 
HETATM   10  C   UNL     1      29.835  42.051  53.474  1.00  0.00     0.043 C 
HETATM   11  C   UNL     1      28.910  41.390  52.392  1.00  0.00     0.018 C 
HETATM   12  C   UNL     1      28.333  42.468  51.453  1.00  0.00     0.065 C 
HETATM   13  C   UNL     1      27.472  43.329  52.342  1.00  0.00     0.082 C 
HETATM   14  N   UNL     1      26.208  43.389  52.081  1.00  0.00    -0.203 NA
HETATM   15  C   UNL     1      27.292  42.199  50.359  1.00  0.00     0.121 C 
HETATM   16  N   UNL     1      26.013  42.570  51.009  1.00  0.00    -0.207 NA
HETATM   17  C   UNL     1      28.612  46.044  56.324  1.00  0.00     0.031 A 
HETATM   18  C   UNL     1      29.656  45.987  57.251  1.00  0.00     0.009 A 
HETATM   19  H   UNL     1      25.525  41.725  51.320  1.00  0.00     0.149 HD
ENDROOT
BRANCH  15  20
HETATM   20  C   UNL     1      27.258  40.918  49.553  1.00  0.00    -0.038 A 
HETATM   21  C   UNL     1      26.521  39.801  49.962  1.00  0.00     0.011 A 
HETATM   22  C   UNL     1      26.619  38.582  49.277  1.00  0.00     0.037 A 
HETATM   23  C   UNL     1      27.487  38.437  48.193  1.00  0.00     0.068 A 
HETATM   24  C   UNL     1      28.231  39.535  47.775  1.00  0.00     0.037 A 
HETATM   25  C   UNL     1      28.123  40.754  48.453  1.00  0.00     0.011 A 
BRANCH  23  26
HETATM   26  O   UNL     1      27.526  37.187  47.641  1.00  0.00    -0.356 OA
HETATM   27  C   UNL     1      28.330  37.037  46.475  1.00  0.00     0.210 C 
ENDBRANCH  23  26
ENDBRANCH  15  20
TORSDOF 2
ENDMDL
MODEL 8
REMARK VINA RESULT:      -8.9      3.268      8.905
REMARK  2 active torsions:
REMARK  status: ('A' for Active; 'I' for Inactive)
REMARK    1  A    between atoms: C_15  and  C_16 
REMARK    2  A    between atoms: C_19  and  O_20 
ROOT
HETATM    1  C   UNL     1      22.263  43.206  45.797  1.00  0.00     0.048 C 
HETATM    2  C   UNL     1      22.629  44.160  46.897  1.00  0.00    -0.061 A 
HETATM    3  C   UNL     1      23.579  43.804  47.871  1.00  0.00     0.021 A 
HETATM    4  C   UNL     1      23.898  44.708  48.905  1.00  0.00    -0.000 A 
HETATM    5  C   UNL     1      23.254  45.953  48.923  1.00  0.00     0.043 A 
HETATM    6  N   UNL     1      23.739  46.656  50.004  1.00  0.00    -0.353 N 
HETATM    7  H   UNL     1      23.476  47.599  50.259  1.00  0.00     0.166 HD
HETATM    8  C   UNL     1      24.606  45.872  50.700  1.00  0.00     0.066 A 
HETATM    9  C   UNL     1      24.778  44.680  50.025  1.00  0.00    -0.017 A 
HETATM   10  C   UNL     1      25.755  43.640  50.505  1.00  0.00     0.043 C 
HETATM   11  C   UNL     1      26.703  44.203  51.621  1.00  0.00     0.018 C 
HETATM   12  C   UNL     1      25.891  45.006  52.657  1.00  0.00     0.065 C 
HETATM   13  C   UNL     1      25.334  46.174  51.883  1.00  0.00     0.082 C 
HETATM   14  N   UNL     1      25.691  47.362  52.245  1.00  0.00    -0.203 NA
HETATM   15  C   UNL     1      26.506  45.803  53.814  1.00  0.00     0.121 C 
HETATM   16  N   UNL     1      26.553  47.187  53.286  1.00  0.00    -0.207 NA
HETATM   17  C   UNL     1      22.307  46.329  47.965  1.00  0.00     0.031 A 
HETATM   18  C   UNL     1      22.004  45.410  46.958  1.00  0.00     0.009 A 
HETATM   19  H   UNL     1      27.503  47.405  52.973  1.00  0.00     0.149 HD
ENDROOT
BRANCH  15  20
HETATM   20  C   UNL     1      27.746  45.353  54.555  1.00  0.00    -0.038 A 
HETATM   21  C   UNL     1      28.439  46.197  55.430  1.00  0.00     0.011 A 
HETATM   22  C   UNL     1      29.662  45.807  55.991  1.00  0.00     0.037 A 
HETATM   23  C   UNL     1      30.245  44.583  55.660  1.00  0.00     0.068 A 
HETATM   24  C   UNL     1      29.575  43.732  54.788  1.00  0.00     0.037 A 
HETATM   25  C   UNL     1      28.348  44.118  54.238  1.00  0.00     0.011 A 
BRANCH  23  26
HETATM   26  O   UNL     1      31.461  44.341  56.237  1.00  0.00    -0.356 OA
HETATM   27  C   UNL     1      31.461  43.487  57.376  1.00  0.00     0.210 C 
ENDBRANCH  23  26
ENDBRANCH  15  20
TORSDOF 2
ENDMDL
MODEL 9
REMARK VINA RESULT:      -8.7     16.413     17.879
REMARK  2 active torsions:
REMARK  status: ('A' for Active; 'I' for Inactive)
REMARK    1  A    between atoms: C_15  and  C_16 
REMARK    2  A    between atoms: C_19  and  O_20 
ROOT
HETATM    1  C   UNL     1      41.522  38.113  64.933  1.00  0.00     0.048 C 
HETATM    2  C   UNL     1      40.659  39.164  64.298  1.00  0.00    -0.061 A 
HETATM    3  C   UNL     1      40.424  40.390  64.947  1.00  0.00     0.021 A 
HETATM    4  C   UNL     1      39.598  41.358  64.341  1.00  0.00    -0.000 A 
HETATM    5  C   UNL     1      39.038  41.066  63.090  1.00  0.00     0.043 A 
HETATM    6  N   UNL     1      38.294  42.160  62.702  1.00  0.00    -0.353 N 
HETATM    7  H   UNL     1      37.791  42.250  61.829  1.00  0.00     0.166 HD
HETATM    8  C   UNL     1      38.312  43.092  63.693  1.00  0.00     0.066 A 
HETATM    9  C   UNL     1      39.153  42.663  64.701  1.00  0.00    -0.017 A 
HETATM   10  C   UNL     1      39.449  43.528  65.897  1.00  0.00     0.043 C 
HETATM   11  C   UNL     1      38.949  45.001  65.689  1.00  0.00     0.018 C 
HETATM   12  C   UNL     1      37.527  45.003  65.094  1.00  0.00     0.065 C 
HETATM   13  C   UNL     1      37.680  44.364  63.737  1.00  0.00     0.082 C 
HETATM   14  N   UNL     1      37.384  45.076  62.700  1.00  0.00    -0.203 NA
HETATM   15  C   UNL     1      36.776  46.262  64.644  1.00  0.00     0.121 C 
HETATM   16  N   UNL     1      37.017  46.297  63.182  1.00  0.00    -0.207 NA
HETATM   17  C   UNL     1      39.258  39.856  62.426  1.00  0.00     0.031 A 
HETATM   18  C   UNL     1      40.073  38.911  63.054  1.00  0.00     0.009 A 
HETATM   19  H   UNL     1      37.754  46.975  62.970  1.00  0.00     0.149 HD
ENDROOT
BRANCH  15  20
HETATM   20  C   UNL     1      36.906  47.593  65.351  1.00  0.00    -0.038 A 
HETATM   21  C   UNL     1      37.671  48.642  64.828  1.00  0.00     0.011 A 
HETATM   22  C   UNL     1      37.893  49.811  65.568  1.00  0.00     0.037 A 
HETATM   23  C   UNL     1      37.392  49.946  66.864  1.00  0.00     0.068 A 
HETATM   24  C   UNL     1      36.634  48.912  67.402  1.00  0.00     0.037 A 
HETATM   25  C   UNL     1      36.403  47.750  66.658  1.00  0.00     0.011 A 
BRANCH  23  26
HETATM   26  O   UNL     1      37.718  51.112  67.497  1.00  0.00    -0.356 OA
HETATM   27  C   UNL     1      37.768  52.280  66.683  1.00  0.00     0.210 C 
ENDBRANCH  23  26
ENDBRANCH  15  20
TORSDOF 2
ENDMDL
MODEL 10
REMARK VINA RESULT:      -8.7      3.559      8.715
REMARK  2 active torsions:
REMARK  status: ('A' for Active; 'I' for Inactive)
REMARK    1  A    between atoms: C_15  and  C_16 
REMARK    2  A    between atoms: C_19  and  O_20 
ROOT
HETATM    1  C   UNL     1      21.125  44.570  47.780  1.00  0.00     0.048 C 
HETATM    2  C   UNL     1      22.421  43.896  48.123  1.00  0.00    -0.061 A 
HETATM    3  C   UNL     1      23.144  44.270  49.271  1.00  0.00     0.021 A 
HETATM    4  C   UNL     1      24.368  43.635  49.567  1.00  0.00    -0.000 A 
HETATM    5  C   UNL     1      24.825  42.633  48.701  1.00  0.00     0.043 A 
HETATM    6  N   UNL     1      26.017  42.159  49.205  1.00  0.00    -0.353 N 
HETATM    7  H   UNL     1      26.570  41.413  48.805  1.00  0.00     0.166 HD
HETATM    8  C   UNL     1      26.354  42.875  50.312  1.00  0.00     0.066 A 
HETATM    9  C   UNL     1      25.335  43.759  50.606  1.00  0.00    -0.017 A 
HETATM   10  C   UNL     1      25.379  44.627  51.835  1.00  0.00     0.043 C 
HETATM   11  C   UNL     1      26.516  44.183  52.821  1.00  0.00     0.018 C 
HETATM   12  C   UNL     1      27.820  43.912  52.045  1.00  0.00     0.065 C 
HETATM   13  C   UNL     1      27.496  42.744  51.148  1.00  0.00     0.082 C 
HETATM   14  N   UNL     1      28.166  41.653  51.317  1.00  0.00    -0.203 NA
HETATM   15  C   UNL     1      29.100  43.342  52.669  1.00  0.00     0.121 C 
HETATM   16  N   UNL     1      29.016  41.896  52.354  1.00  0.00    -0.207 NA
HETATM   17  C   UNL     1      24.124  42.245  47.555  1.00  0.00     0.031 A 
HETATM   18  C   UNL     1      22.919  42.896  47.281  1.00  0.00     0.009 A 
HETATM   19  H   UNL     1      28.693  41.381  53.178  1.00  0.00     0.149 HD
ENDROOT
BRANCH  15  20
HETATM   20  C   UNL     1      29.544  43.669  54.078  1.00  0.00    -0.038 A 
HETATM   21  C   UNL     1      29.107  44.817  54.749  1.00  0.00     0.011 A 
HETATM   22  C   UNL     1      29.643  45.173  55.994  1.00  0.00     0.037 A 
HETATM   23  C   UNL     1      30.657  44.415  56.581  1.00  0.00     0.068 A 
HETATM   24  C   UNL     1      31.108  43.273  55.928  1.00  0.00     0.037 A 
HETATM   25  C   UNL     1      30.564  42.913  54.690  1.00  0.00     0.011 A 
BRANCH  23  26
HETATM   26  O   UNL     1      31.127  44.893  57.772  1.00  0.00    -0.356 OA
HETATM   27  C   UNL     1      30.374  45.941  58.374  1.00  0.00     0.210 C 
ENDBRANCH  23  26
ENDBRANCH  15  20
TORSDOF 2
ENDMDL
