MODEL 1
REMARK VINA RESULT:      -9.4      0.000      0.000
REMARK  6 active torsions:
REMARK  status: ('A' for Active; 'I' for Inactive)
REMARK    1  A    between atoms: O_2  and  C_3 
REMARK    2  A    between atoms: C_6  and  C_7 
REMARK    3  A    between atoms: C_12  and  C_13 
REMARK       I    between atoms: C_13  and  N_14 
REMARK    4  A    between atoms: N_14  and  C_15 
REMARK    5  A    between atoms: C_15  and  C_16 
REMARK    6  A    between atoms: C_24  and  C_25 
ROOT
HETATM    1  C   UNL     1      25.912  44.330  53.721  1.00  0.00     0.118 C 
HETATM    2  N   UNL     1      25.707  45.745  53.435  1.00  0.00    -0.366 N 
HETATM    3  C   UNL     1      25.533  46.224  52.186  1.00  0.00     0.123 A 
HETATM    4  N   UNL     1      25.538  45.404  51.093  1.00  0.00    -0.240 N 
HETATM    5  N   UNL     1      25.299  46.037  49.930  1.00  0.00    -0.165 NA
HETATM    6  C   UNL     1      25.196  47.336  50.294  1.00  0.00     0.148 A 
HETATM    7  C   UNL     1      25.329  47.489  51.702  1.00  0.00     0.088 A 
HETATM    8  C   UNL     1      25.736  43.970  51.156  1.00  0.00     0.221 C 
HETATM    9  C   UNL     1      25.401  43.449  52.565  1.00  0.00     0.066 C 
HETATM   10  H   UNL     1      25.786  46.371  54.236  1.00  0.00     0.161 HD
ENDROOT
BRANCH   6  11
HETATM   11  C   UNL     1      24.980  48.410  49.311  1.00  0.00     0.272 C 
HETATM   12  N   UNL     1      23.662  48.562  48.958  1.00  0.00    -0.351 N 
HETATM   13  H   UNL     1      22.998  47.966  49.444  1.00  0.00     0.163 HD
HETATM   14  O   UNL     1      25.898  49.083  48.851  1.00  0.00    -0.266 OA
BRANCH  12  15
HETATM   15  C   UNL     1      23.204  49.532  48.000  1.00  0.00     0.161 C 
BRANCH  15  16
HETATM   16  C   UNL     1      21.956  50.222  48.483  1.00  0.00    -0.041 A 
HETATM   17  C   UNL     1      20.940  50.560  47.577  1.00  0.00     0.009 A 
HETATM   18  C   UNL     1      19.783  51.202  48.018  1.00  0.00     0.001 A 
HETATM   19  C   UNL     1      19.633  51.523  49.366  1.00  0.00     0.000 A 
HETATM   20  C   UNL     1      20.643  51.205  50.274  1.00  0.00     0.001 A 
HETATM   21  C   UNL     1      21.800  50.561  49.834  1.00  0.00     0.009 A 
ENDBRANCH  15  16
ENDBRANCH  12  15
ENDBRANCH   6  11
BRANCH   8  22
HETATM   22  C   UNL     1      27.124  43.617  50.672  1.00  0.00     0.409 C 
HETATM   23  F   UNL     1      27.545  42.397  51.050  1.00  0.00    -0.169 F 
HETATM   24  F   UNL     1      27.172  43.658  49.315  1.00  0.00    -0.169 F 
HETATM   25  F   UNL     1      28.046  44.510  51.105  1.00  0.00    -0.169 F 
ENDBRANCH   8  22
BRANCH   1  26
HETATM   26  C   UNL     1      27.327  44.019  54.173  1.00  0.00    -0.035 A 
HETATM   27  C   UNL     1      28.091  45.035  54.772  1.00  0.00     0.012 A 
HETATM   28  C   UNL     1      29.397  44.790  55.207  1.00  0.00     0.037 A 
HETATM   29  C   UNL     1      29.968  43.527  55.066  1.00  0.00     0.068 A 
HETATM   30  C   UNL     1      29.232  42.515  54.454  1.00  0.00     0.037 A 
HETATM   31  C   UNL     1      27.928  42.763  54.007  1.00  0.00     0.012 A 
BRANCH  29  32
HETATM   32  O   UNL     1      31.242  43.413  55.550  1.00  0.00    -0.356 OA
HETATM   33  C   UNL     1      31.381  43.390  56.966  1.00  0.00     0.210 C 
ENDBRANCH  29  32
ENDBRANCH   1  26
TORSDOF 6
ENDMDL
MODEL 2
REMARK VINA RESULT:      -9.0      7.145     10.175
REMARK  6 active torsions:
REMARK  status: ('A' for Active; 'I' for Inactive)
REMARK    1  A    between atoms: O_2  and  C_3 
REMARK    2  A    between atoms: C_6  and  C_7 
REMARK    3  A    between atoms: C_12  and  C_13 
REMARK       I    between atoms: C_13  and  N_14 
REMARK    4  A    between atoms: N_14  and  C_15 
REMARK    5  A    between atoms: C_15  and  C_16 
REMARK    6  A    between atoms: C_24  and  C_25 
ROOT
HETATM    1  C   UNL     1      20.261  49.547  49.955  1.00  0.00     0.118 C 
HETATM    2  N   UNL     1      19.604  50.788  50.348  1.00  0.00    -0.366 N 
HETATM    3  C   UNL     1      18.491  51.252  49.744  1.00  0.00     0.123 A 
HETATM    4  N   UNL     1      17.900  50.582  48.709  1.00  0.00    -0.240 N 
HETATM    5  N   UNL     1      16.771  51.157  48.257  1.00  0.00    -0.165 NA
HETATM    6  C   UNL     1      16.670  52.283  49.002  1.00  0.00     0.148 A 
HETATM    7  C   UNL     1      17.727  52.371  49.949  1.00  0.00     0.088 A 
HETATM    8  C   UNL     1      18.398  49.338  48.159  1.00  0.00     0.221 C 
HETATM    9  C   UNL     1      19.296  48.624  49.186  1.00  0.00     0.066 C 
HETATM   10  H   UNL     1      20.087  51.334  51.061  1.00  0.00     0.161 HD
ENDROOT
BRANCH   6  11
HETATM   11  C   UNL     1      15.586  53.258  48.804  1.00  0.00     0.272 C 
HETATM   12  N   UNL     1      15.632  54.304  49.692  1.00  0.00    -0.351 N 
HETATM   13  H   UNL     1      16.421  54.311  50.332  1.00  0.00     0.163 HD
HETATM   14  O   UNL     1      14.725  53.127  47.939  1.00  0.00    -0.266 OA
BRANCH  12  15
HETATM   15  C   UNL     1      14.669  55.372  49.711  1.00  0.00     0.161 C 
BRANCH  15  16
HETATM   16  C   UNL     1      14.882  56.272  50.899  1.00  0.00    -0.041 A 
HETATM   17  C   UNL     1      14.890  55.738  52.196  1.00  0.00     0.009 A 
HETATM   18  C   UNL     1      15.083  56.567  53.302  1.00  0.00     0.001 A 
HETATM   19  C   UNL     1      15.259  57.938  53.124  1.00  0.00     0.000 A 
HETATM   20  C   UNL     1      15.239  58.482  51.840  1.00  0.00     0.001 A 
HETATM   21  C   UNL     1      15.047  57.654  50.733  1.00  0.00     0.009 A 
ENDBRANCH  15  16
ENDBRANCH  12  15
ENDBRANCH   6  11
BRANCH   8  22
HETATM   22  C   UNL     1      19.055  49.590  46.821  1.00  0.00     0.409 C 
HETATM   23  F   UNL     1      19.672  50.781  46.726  1.00  0.00    -0.169 F 
HETATM   24  F   UNL     1      19.985  48.633  46.569  1.00  0.00    -0.169 F 
HETATM   25  F   UNL     1      18.162  49.519  45.805  1.00  0.00    -0.169 F 
ENDBRANCH   8  22
BRANCH   1  26
HETATM   26  C   UNL     1      21.595  49.778  49.266  1.00  0.00    -0.035 A 
HETATM   27  C   UNL     1      22.391  48.670  48.931  1.00  0.00     0.012 A 
HETATM   28  C   UNL     1      23.623  48.838  48.292  1.00  0.00     0.037 A 
HETATM   29  C   UNL     1      24.086  50.111  47.964  1.00  0.00     0.068 A 
HETATM   30  C   UNL     1      23.319  51.220  48.310  1.00  0.00     0.037 A 
HETATM   31  C   UNL     1      22.090  51.054  48.960  1.00  0.00     0.012 A 
BRANCH  29  32
HETATM   32  O   UNL     1      25.294  50.137  47.324  1.00  0.00    -0.356 OA
HETATM   33  C   UNL     1      26.436  49.820  48.113  1.00  0.00     0.210 C 
ENDBRANCH  29  32
ENDBRANCH   1  26
TORSDOF 6
ENDMDL
MODEL 3
REMARK VINA RESULT:      -8.9     12.523     15.684
REMARK  6 active torsions:
REMARK  status: ('A' for Active; 'I' for Inactive)
REMARK    1  A    between atoms: O_2  and  C_3 
REMARK    2  A    between atoms: C_6  and  C_7 
REMARK    3  A    between atoms: C_12  and  C_13 
REMARK       I    between atoms: C_13  and  N_14 
REMARK    4  A    between atoms: N_14  and  C_15 
REMARK    5  A    between atoms: C_15  and  C_16 
REMARK    6  A    between atoms: C_24  and  C_25 
ROOT
HETATM    1  C   UNL     1      31.769  48.835  41.308  1.00  0.00     0.118 C 
HETATM    2  N   UNL     1      33.136  49.125  40.893  1.00  0.00    -0.366 N 
HETATM    3  C   UNL     1      33.913  50.039  41.510  1.00  0.00     0.123 A 
HETATM    4  N   UNL     1      33.463  50.762  42.579  1.00  0.00    -0.240 N 
HETATM    5  N   UNL     1      34.382  51.590  43.107  1.00  0.00    -0.165 NA
HETATM    6  C   UNL     1      35.454  51.431  42.297  1.00  0.00     0.148 A 
HETATM    7  C   UNL     1      35.198  50.459  41.289  1.00  0.00     0.088 A 
HETATM    8  C   UNL     1      32.134  50.635  43.142  1.00  0.00     0.221 C 
HETATM    9  C   UNL     1      31.525  49.273  42.765  1.00  0.00     0.066 C 
HETATM   10  H   UNL     1      33.448  48.651  40.046  1.00  0.00     0.161 HD
ENDROOT
BRANCH   6  11
HETATM   11  C   UNL     1      36.696  52.199  42.479  1.00  0.00     0.272 C 
HETATM   12  N   UNL     1      36.560  53.242  43.363  1.00  0.00    -0.351 N 
HETATM   13  H   UNL     1      35.656  53.327  43.816  1.00  0.00     0.163 HD
HETATM   14  O   UNL     1      37.735  51.932  41.883  1.00  0.00    -0.266 OA
BRANCH  12  15
HETATM   15  C   UNL     1      37.629  54.147  43.690  1.00  0.00     0.161 C 
BRANCH  15  16
HETATM   16  C   UNL     1      38.163  53.876  45.071  1.00  0.00    -0.041 A 
HETATM   17  C   UNL     1      37.794  54.699  46.145  1.00  0.00     0.009 A 
HETATM   18  C   UNL     1      38.289  54.455  47.426  1.00  0.00     0.001 A 
HETATM   19  C   UNL     1      39.165  53.393  47.646  1.00  0.00     0.000 A 
HETATM   20  C   UNL     1      39.550  52.577  46.584  1.00  0.00     0.001 A 
HETATM   21  C   UNL     1      39.055  52.819  45.301  1.00  0.00     0.009 A 
ENDBRANCH  15  16
ENDBRANCH  12  15
ENDBRANCH   6  11
BRANCH   8  22
HETATM   22  C   UNL     1      31.291  51.828  42.753  1.00  0.00     0.409 C 
HETATM   23  F   UNL     1      30.026  51.521  42.415  1.00  0.00    -0.169 F 
HETATM   24  F   UNL     1      31.230  52.714  43.781  1.00  0.00    -0.169 F 
HETATM   25  F   UNL     1      31.832  52.503  41.710  1.00  0.00    -0.169 F 
ENDBRANCH   8  22
BRANCH   1  26
HETATM   26  C   UNL     1      30.733  49.335  40.317  1.00  0.00    -0.035 A 
HETATM   27  C   UNL     1      29.406  48.886  40.432  1.00  0.00     0.012 A 
HETATM   28  C   UNL     1      28.420  49.325  39.543  1.00  0.00     0.037 A 
HETATM   29  C   UNL     1      28.729  50.227  38.527  1.00  0.00     0.068 A 
HETATM   30  C   UNL     1      30.044  50.665  38.387  1.00  0.00     0.037 A 
HETATM   31  C   UNL     1      31.035  50.216  39.269  1.00  0.00     0.012 A 
BRANCH  29  32
HETATM   32  O   UNL     1      27.673  50.593  37.740  1.00  0.00    -0.356 OA
HETATM   33  C   UNL     1      26.391  50.123  38.143  1.00  0.00     0.210 C 
ENDBRANCH  29  32
ENDBRANCH   1  26
TORSDOF 6
ENDMDL
MODEL 4
REMARK VINA RESULT:      -8.8      2.416      3.060
REMARK  6 active torsions:
REMARK  status: ('A' for Active; 'I' for Inactive)
REMARK    1  A    between atoms: O_2  and  C_3 
REMARK    2  A    between atoms: C_6  and  C_7 
REMARK    3  A    between atoms: C_12  and  C_13 
REMARK       I    between atoms: C_13  and  N_14 
REMARK    4  A    between atoms: N_14  and  C_15 
REMARK    5  A    between atoms: C_15  and  C_16 
REMARK    6  A    between atoms: C_24  and  C_25 
ROOT
HETATM    1  C   UNL     1      26.584  42.312  51.403  1.00  0.00     0.118 C 
HETATM    2  N   UNL     1      25.130  42.410  51.460  1.00  0.00    -0.366 N 
HETATM    3  C   UNL     1      24.413  43.191  50.626  1.00  0.00     0.123 A 
HETATM    4  N   UNL     1      25.011  43.952  49.661  1.00  0.00    -0.240 N 
HETATM    5  N   UNL     1      24.147  44.630  48.884  1.00  0.00    -0.165 NA
HETATM    6  C   UNL     1      22.940  44.333  49.420  1.00  0.00     0.148 A 
HETATM    7  C   UNL     1      23.069  43.427  50.509  1.00  0.00     0.088 A 
HETATM    8  C   UNL     1      26.442  44.007  49.442  1.00  0.00     0.221 C 
HETATM    9  C   UNL     1      27.117  42.754  50.027  1.00  0.00     0.066 C 
HETATM   10  H   UNL     1      24.686  41.911  52.231  1.00  0.00     0.161 HD
ENDROOT
BRANCH   6  11
HETATM   11  C   UNL     1      21.690  44.911  48.903  1.00  0.00     0.272 C 
HETATM   12  N   UNL     1      21.660  46.282  48.971  1.00  0.00    -0.351 N 
HETATM   13  H   UNL     1      22.505  46.730  49.312  1.00  0.00     0.163 HD
HETATM   14  O   UNL     1      20.768  44.223  48.473  1.00  0.00    -0.266 OA
BRANCH  12  15
HETATM   15  C   UNL     1      20.537  47.074  48.544  1.00  0.00     0.161 C 
BRANCH  15  16
HETATM   16  C   UNL     1      20.867  48.542  48.576  1.00  0.00    -0.041 A 
HETATM   17  C   UNL     1      20.049  49.434  49.284  1.00  0.00     0.009 A 
HETATM   18  C   UNL     1      20.348  50.797  49.314  1.00  0.00     0.001 A 
HETATM   19  C   UNL     1      21.461  51.283  48.630  1.00  0.00     0.000 A 
HETATM   20  C   UNL     1      22.273  50.407  47.911  1.00  0.00     0.001 A 
HETATM   21  C   UNL     1      21.977  49.044  47.881  1.00  0.00     0.009 A 
ENDBRANCH  15  16
ENDBRANCH  12  15
ENDBRANCH   6  11
BRANCH   8  22
HETATM   22  C   UNL     1      26.994  45.316  49.960  1.00  0.00     0.409 C 
HETATM   23  F   UNL     1      26.363  45.787  51.050  1.00  0.00    -0.169 F 
HETATM   24  F   UNL     1      28.306  45.175  50.283  1.00  0.00    -0.169 F 
HETATM   25  F   UNL     1      26.945  46.287  49.016  1.00  0.00    -0.169 F 
ENDBRANCH   8  22
BRANCH   1  26
HETATM   26  C   UNL     1      27.266  42.973  52.587  1.00  0.00    -0.035 A 
HETATM   27  C   UNL     1      28.659  42.847  52.728  1.00  0.00     0.012 A 
HETATM   28  C   UNL     1      29.328  43.444  53.801  1.00  0.00     0.037 A 
HETATM   29  C   UNL     1      28.629  44.187  54.751  1.00  0.00     0.068 A 
HETATM   30  C   UNL     1      27.245  44.302  54.636  1.00  0.00     0.037 A 
HETATM   31  C   UNL     1      26.573  43.694  53.569  1.00  0.00     0.012 A 
BRANCH  29  32
HETATM   32  O   UNL     1      29.402  44.735  55.737  1.00  0.00    -0.356 OA
HETATM   33  C   UNL     1      30.708  44.192  55.893  1.00  0.00     0.210 C 
ENDBRANCH  29  32
ENDBRANCH   1  26
TORSDOF 6
ENDMDL
MODEL 5
REMARK VINA RESULT:      -8.6     17.975     19.433
REMARK  6 active torsions:
REMARK  status: ('A' for Active; 'I' for Inactive)
REMARK    1  A    between atoms: O_2  and  C_3 
REMARK    2  A    between atoms: C_6  and  C_7 
REMARK    3  A    between atoms: C_12  and  C_13 
REMARK       I    between atoms: C_13  and  N_14 
REMARK    4  A    between atoms: N_14  and  C_15 
REMARK    5  A    between atoms: C_15  and  C_16 
REMARK    6  A    between atoms: C_24  and  C_25 
ROOT
HETATM    1  C   UNL     1      37.395  42.943  63.134  1.00  0.00     0.118 C 
HETATM    2  N   UNL     1      36.472  43.307  64.203  1.00  0.00    -0.366 N 
HETATM    3  C   UNL     1      36.663  44.373  65.006  1.00  0.00     0.123 A 
HETATM    4  N   UNL     1      37.748  45.193  64.870  1.00  0.00    -0.240 N 
HETATM    5  N   UNL     1      37.757  46.237  65.717  1.00  0.00    -0.165 NA
HETATM    6  C   UNL     1      36.651  46.041  66.472  1.00  0.00     0.148 A 
HETATM    7  C   UNL     1      35.937  44.886  66.049  1.00  0.00     0.088 A 
HETATM    8  C   UNL     1      38.788  45.002  63.880  1.00  0.00     0.221 C 
HETATM    9  C   UNL     1      38.263  44.145  62.715  1.00  0.00     0.066 C 
HETATM   10  H   UNL     1      35.707  42.653  64.364  1.00  0.00     0.161 HD
ENDROOT
BRANCH   6  11
HETATM   11  C   UNL     1      36.290  46.938  67.582  1.00  0.00     0.272 C 
HETATM   12  N   UNL     1      37.039  48.089  67.611  1.00  0.00    -0.351 N 
HETATM   13  H   UNL     1      37.702  48.209  66.851  1.00  0.00     0.163 HD
HETATM   14  O   UNL     1      35.418  46.664  68.400  1.00  0.00    -0.266 OA
BRANCH  12  15
HETATM   15  C   UNL     1      36.885  49.110  68.612  1.00  0.00     0.161 C 
BRANCH  15  16
HETATM   16  C   UNL     1      37.150  50.476  68.036  1.00  0.00    -0.041 A 
HETATM   17  C   UNL     1      37.618  50.610  66.721  1.00  0.00     0.009 A 
HETATM   18  C   UNL     1      37.870  51.872  66.184  1.00  0.00     0.001 A 
HETATM   19  C   UNL     1      37.665  53.014  66.958  1.00  0.00     0.000 A 
HETATM   20  C   UNL     1      37.213  52.892  68.271  1.00  0.00     0.001 A 
HETATM   21  C   UNL     1      36.960  51.630  68.810  1.00  0.00     0.009 A 
ENDBRANCH  15  16
ENDBRANCH  12  15
ENDBRANCH   6  11
BRANCH   8  22
HETATM   22  C   UNL     1      40.038  44.465  64.538  1.00  0.00     0.409 C 
HETATM   23  F   UNL     1      40.787  43.681  63.742  1.00  0.00    -0.169 F 
HETATM   24  F   UNL     1      40.827  45.490  64.953  1.00  0.00    -0.169 F 
HETATM   25  F   UNL     1      39.747  43.745  65.649  1.00  0.00    -0.169 F 
ENDBRANCH   8  22
BRANCH   1  26
HETATM   26  C   UNL     1      38.176  41.676  63.436  1.00  0.00    -0.035 A 
HETATM   27  C   UNL     1      38.936  41.084  62.413  1.00  0.00     0.012 A 
HETATM   28  C   UNL     1      39.674  39.920  62.649  1.00  0.00     0.037 A 
HETATM   29  C   UNL     1      39.679  39.324  63.909  1.00  0.00     0.068 A 
HETATM   30  C   UNL     1      38.912  39.887  64.927  1.00  0.00     0.037 A 
HETATM   31  C   UNL     1      38.164  41.046  64.689  1.00  0.00     0.012 A 
BRANCH  29  32
HETATM   32  O   UNL     1      40.456  38.204  64.014  1.00  0.00    -0.356 OA
HETATM   33  C   UNL     1      41.754  38.383  64.569  1.00  0.00     0.210 C 
ENDBRANCH  29  32
ENDBRANCH   1  26
TORSDOF 6
ENDMDL
MODEL 6
REMARK VINA RESULT:      -8.4     12.130     15.426
REMARK  6 active torsions:
REMARK  status: ('A' for Active; 'I' for Inactive)
REMARK    1  A    between atoms: O_2  and  C_3 
REMARK    2  A    between atoms: C_6  and  C_7 
REMARK    3  A    between atoms: C_12  and  C_13 
REMARK       I    between atoms: C_13  and  N_14 
REMARK    4  A    between atoms: N_14  and  C_15 
REMARK    5  A    between atoms: C_15  and  C_16 
REMARK    6  A    between atoms: C_24  and  C_25 
ROOT
HETATM    1  C   UNL     1      29.915  52.276  41.805  1.00  0.00     0.118 C 
HETATM    2  N   UNL     1      30.935  51.805  42.735  1.00  0.00    -0.366 N 
HETATM    3  C   UNL     1      32.241  51.718  42.410  1.00  0.00     0.123 A 
HETATM    4  N   UNL     1      32.700  52.070  41.172  1.00  0.00    -0.240 N 
HETATM    5  N   UNL     1      34.034  51.972  41.033  1.00  0.00    -0.165 NA
HETATM    6  C   UNL     1      34.440  51.475  42.225  1.00  0.00     0.148 A 
HETATM    7  C   UNL     1      33.343  51.312  43.116  1.00  0.00     0.088 A 
HETATM    8  C   UNL     1      31.853  52.551  40.100  1.00  0.00     0.221 C 
HETATM    9  C   UNL     1      30.539  53.113  40.672  1.00  0.00     0.066 C 
HETATM   10  H   UNL     1      30.588  51.463  43.631  1.00  0.00     0.161 HD
ENDROOT
BRANCH   6  11
HETATM   11  C   UNL     1      35.850  51.158  42.503  1.00  0.00     0.272 C 
HETATM   12  N   UNL     1      36.347  51.821  43.599  1.00  0.00    -0.351 N 
HETATM   13  H   UNL     1      35.685  52.398  44.108  1.00  0.00     0.163 HD
HETATM   14  O   UNL     1      36.507  50.389  41.808  1.00  0.00    -0.266 OA
BRANCH  12  15
HETATM   15  C   UNL     1      37.704  51.689  44.057  1.00  0.00     0.161 C 
BRANCH  15  16
HETATM   16  C   UNL     1      38.039  52.754  45.066  1.00  0.00    -0.041 A 
HETATM   17  C   UNL     1      37.386  53.994  45.028  1.00  0.00     0.009 A 
HETATM   18  C   UNL     1      37.695  54.986  45.959  1.00  0.00     0.001 A 
HETATM   19  C   UNL     1      38.668  54.754  46.930  1.00  0.00     0.000 A 
HETATM   20  C   UNL     1      39.334  53.530  46.969  1.00  0.00     0.001 A 
HETATM   21  C   UNL     1      39.025  52.536  46.039  1.00  0.00     0.009 A 
ENDBRANCH  15  16
ENDBRANCH  12  15
ENDBRANCH   6  11
BRANCH   8  22
HETATM   22  C   UNL     1      31.671  51.470  39.059  1.00  0.00     0.409 C 
HETATM   23  F   UNL     1      31.622  50.224  39.562  1.00  0.00    -0.169 F 
HETATM   24  F   UNL     1      30.519  51.673  38.370  1.00  0.00    -0.169 F 
HETATM   25  F   UNL     1      32.665  51.492  38.138  1.00  0.00    -0.169 F 
ENDBRANCH   8  22
BRANCH   1  26
HETATM   26  C   UNL     1      28.990  51.168  41.334  1.00  0.00    -0.035 A 
HETATM   27  C   UNL     1      27.954  51.480  40.438  1.00  0.00     0.012 A 
HETATM   28  C   UNL     1      27.082  50.489  39.976  1.00  0.00     0.037 A 
HETATM   29  C   UNL     1      27.227  49.166  40.388  1.00  0.00     0.068 A 
HETATM   30  C   UNL     1      28.235  48.845  41.294  1.00  0.00     0.037 A 
HETATM   31  C   UNL     1      29.101  49.839  41.766  1.00  0.00     0.012 A 
BRANCH  29  32
HETATM   32  O   UNL     1      26.324  48.292  39.848  1.00  0.00    -0.356 OA
HETATM   33  C   UNL     1      25.469  47.617  40.765  1.00  0.00     0.210 C 
ENDBRANCH  29  32
ENDBRANCH   1  26
TORSDOF 6
ENDMDL
MODEL 7
REMARK VINA RESULT:      -8.2      5.124     11.710
REMARK  6 active torsions:
REMARK  status: ('A' for Active; 'I' for Inactive)
REMARK    1  A    between atoms: O_2  and  C_3 
REMARK    2  A    between atoms: C_6  and  C_7 
REMARK    3  A    between atoms: C_12  and  C_13 
REMARK       I    between atoms: C_13  and  N_14 
REMARK    4  A    between atoms: N_14  and  C_15 
REMARK    5  A    between atoms: C_15  and  C_16 
REMARK    6  A    between atoms: C_24  and  C_25 
ROOT
HETATM    1  C   UNL     1      17.135  49.809  49.106  1.00  0.00     0.118 C 
HETATM    2  N   UNL     1      17.704  48.511  48.764  1.00  0.00    -0.366 N 
HETATM    3  C   UNL     1      19.030  48.265  48.773  1.00  0.00     0.123 A 
HETATM    4  N   UNL     1      19.939  49.229  49.108  1.00  0.00    -0.240 N 
HETATM    5  N   UNL     1      21.214  48.801  49.117  1.00  0.00    -0.165 NA
HETATM    6  C   UNL     1      21.119  47.515  48.709  1.00  0.00     0.148 A 
HETATM    7  C   UNL     1      19.763  47.142  48.492  1.00  0.00     0.088 A 
HETATM    8  C   UNL     1      19.585  50.586  49.470  1.00  0.00     0.221 C 
HETATM    9  C   UNL     1      18.122  50.646  49.943  1.00  0.00     0.066 C 
HETATM   10  H   UNL     1      17.038  47.814  48.432  1.00  0.00     0.161 HD
ENDROOT
BRANCH   6  11
HETATM   11  C   UNL     1      22.303  46.661  48.523  1.00  0.00     0.272 C 
HETATM   12  N   UNL     1      23.163  46.691  49.594  1.00  0.00    -0.351 N 
HETATM   13  H   UNL     1      22.863  47.243  50.391  1.00  0.00     0.163 HD
HETATM   14  O   UNL     1      22.497  46.008  47.503  1.00  0.00    -0.266 OA
BRANCH  12  15
HETATM   15  C   UNL     1      24.398  45.955  49.640  1.00  0.00     0.161 C 
BRANCH  15  16
HETATM   16  C   UNL     1      24.962  45.933  51.035  1.00  0.00    -0.041 A 
HETATM   17  C   UNL     1      24.819  44.791  51.836  1.00  0.00     0.009 A 
HETATM   18  C   UNL     1      25.337  44.766  53.131  1.00  0.00     0.001 A 
HETATM   19  C   UNL     1      25.994  45.884  53.643  1.00  0.00     0.000 A 
HETATM   20  C   UNL     1      26.130  47.029  52.860  1.00  0.00     0.001 A 
HETATM   21  C   UNL     1      25.614  47.056  51.564  1.00  0.00     0.009 A 
ENDBRANCH  15  16
ENDBRANCH  12  15
ENDBRANCH   6  11
BRANCH   8  22
HETATM   22  C   UNL     1      19.915  51.528  48.334  1.00  0.00     0.409 C 
HETATM   23  F   UNL     1      19.695  51.013  47.111  1.00  0.00    -0.169 F 
HETATM   24  F   UNL     1      19.172  52.661  48.434  1.00  0.00    -0.169 F 
HETATM   25  F   UNL     1      21.209  51.925  48.375  1.00  0.00    -0.169 F 
ENDBRANCH   8  22
BRANCH   1  26
HETATM   26  C   UNL     1      16.554  50.534  47.905  1.00  0.00    -0.035 A 
HETATM   27  C   UNL     1      15.875  51.748  48.104  1.00  0.00     0.012 A 
HETATM   28  C   UNL     1      15.329  52.451  47.026  1.00  0.00     0.037 A 
HETATM   29  C   UNL     1      15.455  51.966  45.725  1.00  0.00     0.068 A 
HETATM   30  C   UNL     1      16.106  50.753  45.514  1.00  0.00     0.037 A 
HETATM   31  C   UNL     1      16.643  50.043  46.595  1.00  0.00     0.012 A 
BRANCH  29  32
HETATM   32  O   UNL     1      14.896  52.757  44.759  1.00  0.00    -0.356 OA
HETATM   33  C   UNL     1      14.982  54.163  44.964  1.00  0.00     0.210 C 
ENDBRANCH  29  32
ENDBRANCH   1  26
TORSDOF 6
ENDMDL
MODEL 8
REMARK VINA RESULT:      -8.2     13.502     15.845
REMARK  6 active torsions:
REMARK  status: ('A' for Active; 'I' for Inactive)
REMARK    1  A    between atoms: O_2  and  C_3 
REMARK    2  A    between atoms: C_6  and  C_7 
REMARK    3  A    between atoms: C_12  and  C_13 
REMARK       I    between atoms: C_13  and  N_14 
REMARK    4  A    between atoms: N_14  and  C_15 
REMARK    5  A    between atoms: C_15  and  C_16 
REMARK    6  A    between atoms: C_24  and  C_25 
ROOT
HETATM    1  C   UNL     1      32.071  49.318  42.401  1.00  0.00     0.118 C 
HETATM    2  N   UNL     1      33.353  49.385  41.709  1.00  0.00    -0.366 N 
HETATM    3  C   UNL     1      33.827  50.517  41.151  1.00  0.00     0.123 A 
HETATM    4  N   UNL     1      33.128  51.691  41.197  1.00  0.00    -0.240 N 
HETATM    5  N   UNL     1      33.768  52.733  40.638  1.00  0.00    -0.165 NA
HETATM    6  C   UNL     1      34.907  52.183  40.157  1.00  0.00     0.148 A 
HETATM    7  C   UNL     1      34.981  50.797  40.468  1.00  0.00     0.088 A 
HETATM    8  C   UNL     1      31.831  51.838  41.826  1.00  0.00     0.221 C 
HETATM    9  C   UNL     1      31.610  50.716  42.856  1.00  0.00     0.066 C 
HETATM   10  H   UNL     1      33.839  48.495  41.598  1.00  0.00     0.161 HD
ENDROOT
BRANCH   6  11
HETATM   11  C   UNL     1      35.902  52.969  39.409  1.00  0.00     0.272 C 
HETATM   12  N   UNL     1      36.093  54.228  39.923  1.00  0.00    -0.351 N 
HETATM   13  H   UNL     1      35.578  54.446  40.771  1.00  0.00     0.163 HD
HETATM   14  O   UNL     1      36.481  52.535  38.418  1.00  0.00    -0.266 OA
BRANCH  12  15
HETATM   15  C   UNL     1      37.000  55.188  39.354  1.00  0.00     0.161 C 
BRANCH  15  16
HETATM   16  C   UNL     1      36.270  56.433  38.926  1.00  0.00    -0.041 A 
HETATM   17  C   UNL     1      35.007  56.730  39.458  1.00  0.00     0.009 A 
HETATM   18  C   UNL     1      34.325  57.881  39.063  1.00  0.00     0.001 A 
HETATM   19  C   UNL     1      34.892  58.741  38.124  1.00  0.00     0.000 A 
HETATM   20  C   UNL     1      36.140  58.448  37.576  1.00  0.00     0.001 A 
HETATM   21  C   UNL     1      36.825  57.298  37.972  1.00  0.00     0.009 A 
ENDBRANCH  15  16
ENDBRANCH  12  15
ENDBRANCH   6  11
BRANCH   8  22
HETATM   22  C   UNL     1      30.753  51.941  40.772  1.00  0.00     0.409 C 
HETATM   23  F   UNL     1      29.529  51.580  41.198  1.00  0.00    -0.169 F 
HETATM   24  F   UNL     1      30.661  53.219  40.319  1.00  0.00    -0.169 F 
HETATM   25  F   UNL     1      31.040  51.181  39.688  1.00  0.00    -0.169 F 
ENDBRANCH   8  22
BRANCH   1  26
HETATM   26  C   UNL     1      31.026  48.529  41.632  1.00  0.00    -0.035 A 
HETATM   27  C   UNL     1      31.426  47.774  40.516  1.00  0.00     0.012 A 
HETATM   28  C   UNL     1      30.497  47.029  39.783  1.00  0.00     0.037 A 
HETATM   29  C   UNL     1      29.152  47.011  40.149  1.00  0.00     0.068 A 
HETATM   30  C   UNL     1      28.737  47.771  41.240  1.00  0.00     0.037 A 
HETATM   31  C   UNL     1      29.664  48.527  41.968  1.00  0.00     0.012 A 
BRANCH  29  32
HETATM   32  O   UNL     1      28.352  46.228  39.364  1.00  0.00    -0.356 OA
HETATM   33  C   UNL     1      28.536  46.345  37.958  1.00  0.00     0.210 C 
ENDBRANCH  29  32
ENDBRANCH   1  26
TORSDOF 6
ENDMDL
MODEL 9
REMARK VINA RESULT:      -8.1     12.026     13.098
REMARK  6 active torsions:
REMARK  status: ('A' for Active; 'I' for Inactive)
REMARK    1  A    between atoms: O_2  and  C_3 
REMARK    2  A    between atoms: C_6  and  C_7 
REMARK    3  A    between atoms: C_12  and  C_13 
REMARK       I    between atoms: C_13  and  N_14 
REMARK    4  A    between atoms: N_14  and  C_15 
REMARK    5  A    between atoms: C_15  and  C_16 
REMARK    6  A    between atoms: C_24  and  C_25 
ROOT
HETATM    1  C   UNL     1      30.332  50.623  38.548  1.00  0.00     0.118 C 
HETATM    2  N   UNL     1      29.646  49.344  38.693  1.00  0.00    -0.366 N 
HETATM    3  C   UNL     1      28.372  49.239  39.122  1.00  0.00     0.123 A 
HETATM    4  N   UNL     1      27.631  50.339  39.455  1.00  0.00    -0.240 N 
HETATM    5  N   UNL     1      26.365  50.059  39.813  1.00  0.00    -0.165 NA
HETATM    6  C   UNL     1      26.314  48.708  39.765  1.00  0.00     0.148 A 
HETATM    7  C   UNL     1      27.553  48.161  39.328  1.00  0.00     0.088 A 
HETATM    8  C   UNL     1      28.126  51.699  39.392  1.00  0.00     0.221 C 
HETATM    9  C   UNL     1      29.326  51.784  38.433  1.00  0.00     0.066 C 
HETATM   10  H   UNL     1      30.220  48.517  38.528  1.00  0.00     0.161 HD
ENDROOT
BRANCH   6  11
HETATM   11  C   UNL     1      25.106  47.955  40.136  1.00  0.00     0.272 C 
HETATM   12  N   UNL     1      23.947  48.668  39.948  1.00  0.00    -0.351 N 
HETATM   13  H   UNL     1      24.052  49.590  39.535  1.00  0.00     0.163 HD
HETATM   14  O   UNL     1      25.146  46.813  40.583  1.00  0.00    -0.266 OA
BRANCH  12  15
HETATM   15  C   UNL     1      22.640  48.153  40.257  1.00  0.00     0.161 C 
BRANCH  15  16
HETATM   16  C   UNL     1      21.649  49.271  40.445  1.00  0.00    -0.041 A 
HETATM   17  C   UNL     1      20.372  49.004  40.960  1.00  0.00     0.009 A 
HETATM   18  C   UNL     1      19.449  50.035  41.133  1.00  0.00     0.001 A 
HETATM   19  C   UNL     1      19.787  51.341  40.783  1.00  0.00     0.000 A 
HETATM   20  C   UNL     1      21.048  51.616  40.257  1.00  0.00     0.001 A 
HETATM   21  C   UNL     1      21.974  50.586  40.085  1.00  0.00     0.009 A 
ENDBRANCH  15  16
ENDBRANCH  12  15
ENDBRANCH   6  11
BRANCH   8  22
HETATM   22  C   UNL     1      28.401  52.214  40.786  1.00  0.00     0.409 C 
HETATM   23  F   UNL     1      28.880  51.285  41.633  1.00  0.00    -0.169 F 
HETATM   24  F   UNL     1      29.307  53.225  40.742  1.00  0.00    -0.169 F 
HETATM   25  F   UNL     1      27.287  52.737  41.354  1.00  0.00    -0.169 F 
ENDBRANCH   8  22
BRANCH   1  26
HETATM   26  C   UNL     1      31.419  50.831  39.587  1.00  0.00    -0.035 A 
HETATM   27  C   UNL     1      32.231  51.975  39.506  1.00  0.00     0.012 A 
HETATM   28  C   UNL     1      33.240  52.207  40.446  1.00  0.00     0.037 A 
HETATM   29  C   UNL     1      33.458  51.311  41.492  1.00  0.00     0.068 A 
HETATM   30  C   UNL     1      32.676  50.162  41.573  1.00  0.00     0.037 A 
HETATM   31  C   UNL     1      31.673  49.922  40.625  1.00  0.00     0.012 A 
BRANCH  29  32
HETATM   32  O   UNL     1      34.460  51.664  42.353  1.00  0.00    -0.356 OA
HETATM   33  C   UNL     1      35.655  50.894  42.283  1.00  0.00     0.210 C 
ENDBRANCH  29  32
ENDBRANCH   1  26
TORSDOF 6
ENDMDL
MODEL 10
REMARK VINA RESULT:      -7.9      5.446      9.402
REMARK  6 active torsions:
REMARK  status: ('A' for Active; 'I' for Inactive)
REMARK    1  A    between atoms: O_2  and  C_3 
REMARK    2  A    between atoms: C_6  and  C_7 
REMARK    3  A    between atoms: C_12  and  C_13 
REMARK       I    between atoms: C_13  and  N_14 
REMARK    4  A    between atoms: N_14  and  C_15 
REMARK    5  A    between atoms: C_15  and  C_16 
REMARK    6  A    between atoms: C_24  and  C_25 
ROOT
HETATM    1  C   UNL     1      26.840  40.679  46.594  1.00  0.00     0.118 C 
HETATM    2  N   UNL     1      25.933  41.521  47.365  1.00  0.00    -0.366 N 
HETATM    3  C   UNL     1      26.191  41.914  48.629  1.00  0.00     0.123 A 
HETATM    4  N   UNL     1      27.335  41.544  49.279  1.00  0.00    -0.240 N 
HETATM    5  N   UNL     1      27.459  42.065  50.512  1.00  0.00    -0.165 NA
HETATM    6  C   UNL     1      26.306  42.755  50.681  1.00  0.00     0.148 A 
HETATM    7  C   UNL     1      25.492  42.689  49.516  1.00  0.00     0.088 A 
HETATM    8  C   UNL     1      28.361  40.702  48.698  1.00  0.00     0.221 C 
HETATM    9  C   UNL     1      28.271  40.738  47.162  1.00  0.00     0.066 C 
HETATM   10  H   UNL     1      25.041  41.731  46.917  1.00  0.00     0.161 HD
ENDROOT
BRANCH   6  11
HETATM   11  C   UNL     1      25.990  43.458  51.934  1.00  0.00     0.272 C 
HETATM   12  N   UNL     1      27.091  43.674  52.725  1.00  0.00    -0.351 N 
HETATM   13  H   UNL     1      27.983  43.378  52.339  1.00  0.00     0.163 HD
HETATM   14  O   UNL     1      24.849  43.796  52.236  1.00  0.00    -0.266 OA
BRANCH  12  15
HETATM   15  C   UNL     1      27.032  44.324  54.007  1.00  0.00     0.161 C 
BRANCH  15  16
HETATM   16  C   UNL     1      28.384  44.335  54.670  1.00  0.00    -0.041 A 
HETATM   17  C   UNL     1      29.287  43.285  54.451  1.00  0.00     0.009 A 
HETATM   18  C   UNL     1      30.539  43.289  55.066  1.00  0.00     0.001 A 
HETATM   19  C   UNL     1      30.897  44.335  55.914  1.00  0.00     0.000 A 
HETATM   20  C   UNL     1      30.002  45.377  56.151  1.00  0.00     0.001 A 
HETATM   21  C   UNL     1      28.749  45.376  55.536  1.00  0.00     0.009 A 
ENDBRANCH  15  16
ENDBRANCH  12  15
ENDBRANCH   6  11
BRANCH   8  22
HETATM   22  C   UNL     1      28.294  39.315  49.297  1.00  0.00     0.409 C 
HETATM   23  F   UNL     1      27.044  38.880  49.539  1.00  0.00    -0.169 F 
HETATM   24  F   UNL     1      28.880  38.417  48.464  1.00  0.00    -0.169 F 
HETATM   25  F   UNL     1      28.976  39.243  50.465  1.00  0.00    -0.169 F 
ENDBRANCH   8  22
BRANCH   1  26
HETATM   26  C   UNL     1      26.303  39.275  46.381  1.00  0.00    -0.035 A 
HETATM   27  C   UNL     1      24.997  38.973  46.801  1.00  0.00     0.012 A 
HETATM   28  C   UNL     1      24.462  37.694  46.620  1.00  0.00     0.037 A 
HETATM   29  C   UNL     1      25.211  36.690  46.008  1.00  0.00     0.068 A 
HETATM   30  C   UNL     1      26.515  36.967  45.607  1.00  0.00     0.037 A 
HETATM   31  C   UNL     1      27.056  38.245  45.799  1.00  0.00     0.012 A 
BRANCH  29  32
HETATM   32  O   UNL     1      24.566  35.492  45.872  1.00  0.00    -0.356 OA
HETATM   33  C   UNL     1      23.448  35.274  46.726  1.00  0.00     0.210 C 
ENDBRANCH  29  32
ENDBRANCH   1  26
TORSDOF 6
ENDMDL
