MODEL 1
REMARK VINA RESULT:      -7.9      0.000      0.000
REMARK  5 active torsions:
REMARK  status: ('A' for Active; 'I' for Inactive)
REMARK    1  A    between atoms: C_8  and  N_9 
REMARK       I    between atoms: N_9  and  C_10 
REMARK       I    between atoms: C_10  and  N_11 
REMARK    2  A    between atoms: N_11  and  C_12 
REMARK    3  A    between atoms: C_13  and  O_14 
REMARK    4  A    between atoms: O_14  and  C_15 
REMARK    5  A    between atoms: C_15  and  C_16 
ROOT
HETATM    1  N   UNL     1      27.750  43.648  52.381  1.00  0.00    -0.305 N 
HETATM    2  C   UNL     1      28.055  43.521  53.724  1.00  0.00     0.325 C 
HETATM    3  N   UNL     1      29.322  44.020  53.974  1.00  0.00    -0.306 N 
HETATM    4  O   UNL     1      27.314  43.045  54.573  1.00  0.00    -0.247 OA
HETATM    5  H   UNL     1      28.259  44.356  51.876  1.00  0.00     0.171 HD
HETATM    6  H   UNL     1      29.929  44.143  53.175  1.00  0.00     0.171 HD
ENDROOT
BRANCH   3   7
HETATM    7  C   UNL     1      29.957  44.182  55.225  1.00  0.00     0.069 A 
HETATM    8  C   UNL     1      29.828  45.432  55.857  1.00  0.00     0.095 A 
HETATM    9  C   UNL     1      30.385  45.664  57.116  1.00  0.00     0.039 A 
HETATM   10  C   UNL     1      31.111  44.653  57.742  1.00  0.00     0.003 A 
HETATM   11  C   UNL     1      31.264  43.417  57.116  1.00  0.00     0.002 A 
HETATM   12  C   UNL     1      30.684  43.179  55.865  1.00  0.00     0.032 A 
BRANCH   8  13
HETATM   13  O   UNL     1      29.097  46.405  55.217  1.00  0.00    -0.340 OA
BRANCH  13  14
HETATM   14  C   UNL     1      27.834  46.631  55.872  1.00  0.00     0.293 C 
BRANCH  14  15
HETATM   15  C   UNL     1      26.751  46.872  54.833  1.00  0.00     0.408 C 
HETATM   16  F   UNL     1      25.867  45.849  54.799  1.00  0.00    -0.169 F 
HETATM   17  F   UNL     1      26.062  48.007  55.084  1.00  0.00    -0.169 F 
HETATM   18  F   UNL     1      27.290  46.988  53.598  1.00  0.00    -0.169 F 
ENDBRANCH  14  15
ENDBRANCH  13  14
ENDBRANCH   8  13
ENDBRANCH   3   7
BRANCH   1  19
HETATM   19  C   UNL     1      26.642  43.124  51.735  1.00  0.00     0.086 A 
HETATM   20  C   UNL     1      26.634  41.844  51.210  1.00  0.00     0.052 A 
HETATM   21  C   UNL     1      27.656  40.773  51.153  1.00  0.00     0.072 C 
HETATM   22  N   UNL     1      25.392  41.673  50.667  1.00  0.00    -0.280 N 
HETATM   23  H   UNL     1      25.026  40.859  50.185  1.00  0.00     0.189 HD
HETATM   24  N   UNL     1      24.586  42.726  50.817  1.00  0.00    -0.177 NA
HETATM   25  C   UNL     1      25.332  43.626  51.475  1.00  0.00     0.079 A 
HETATM   26  C   UNL     1      24.701  44.914  51.858  1.00  0.00     0.075 C 
ENDBRANCH   1  19
TORSDOF 5
ENDMDL
MODEL 2
REMARK VINA RESULT:      -7.7      0.185      1.698
REMARK  5 active torsions:
REMARK  status: ('A' for Active; 'I' for Inactive)
REMARK    1  A    between atoms: C_8  and  N_9 
REMARK       I    between atoms: N_9  and  C_10 
REMARK       I    between atoms: C_10  and  N_11 
REMARK    2  A    between atoms: N_11  and  C_12 
REMARK    3  A    between atoms: C_13  and  O_14 
REMARK    4  A    between atoms: O_14  and  C_15 
REMARK    5  A    between atoms: C_15  and  C_16 
ROOT
HETATM    1  N   UNL     1      27.686  43.717  52.325  1.00  0.00    -0.305 N 
HETATM    2  C   UNL     1      28.053  43.483  53.638  1.00  0.00     0.325 C 
HETATM    3  N   UNL     1      29.261  44.104  53.912  1.00  0.00    -0.306 N 
HETATM    4  O   UNL     1      27.407  42.831  54.445  1.00  0.00    -0.247 OA
HETATM    5  H   UNL     1      28.087  44.533  51.891  1.00  0.00     0.171 HD
HETATM    6  H   UNL     1      29.818  44.387  53.117  1.00  0.00     0.171 HD
ENDROOT
BRANCH   3   7
HETATM    7  C   UNL     1      29.918  44.206  55.158  1.00  0.00     0.069 A 
HETATM    8  C   UNL     1      29.824  45.433  55.838  1.00  0.00     0.095 A 
HETATM    9  C   UNL     1      30.405  45.605  57.096  1.00  0.00     0.039 A 
HETATM   10  C   UNL     1      31.121  44.558  57.671  1.00  0.00     0.003 A 
HETATM   11  C   UNL     1      31.238  43.343  56.997  1.00  0.00     0.002 A 
HETATM   12  C   UNL     1      30.635  43.165  55.747  1.00  0.00     0.032 A 
BRANCH   8  13
HETATM   13  O   UNL     1      29.103  46.443  55.248  1.00  0.00    -0.340 OA
BRANCH  13  14
HETATM   14  C   UNL     1      27.819  46.614  55.881  1.00  0.00     0.293 C 
BRANCH  14  15
HETATM   15  C   UNL     1      26.742  46.786  54.822  1.00  0.00     0.408 C 
HETATM   16  F   UNL     1      25.875  45.748  54.832  1.00  0.00    -0.169 F 
HETATM   17  F   UNL     1      26.033  47.921  55.011  1.00  0.00    -0.169 F 
HETATM   18  F   UNL     1      27.290  46.850  53.588  1.00  0.00    -0.169 F 
ENDBRANCH  14  15
ENDBRANCH  13  14
ENDBRANCH   8  13
ENDBRANCH   3   7
BRANCH   1  19
HETATM   19  C   UNL     1      26.625  43.135  51.651  1.00  0.00     0.086 A 
HETATM   20  C   UNL     1      25.440  43.809  51.420  1.00  0.00     0.052 A 
HETATM   21  C   UNL     1      24.968  45.167  51.780  1.00  0.00     0.072 C 
HETATM   22  N   UNL     1      24.645  42.939  50.731  1.00  0.00    -0.280 N 
HETATM   23  H   UNL     1      23.697  43.084  50.399  1.00  0.00     0.189 HD
HETATM   24  N   UNL     1      25.223  41.764  50.473  1.00  0.00    -0.177 NA
HETATM   25  C   UNL     1      26.443  41.866  51.024  1.00  0.00     0.079 A 
HETATM   26  C   UNL     1      27.382  40.728  50.862  1.00  0.00     0.075 C 
ENDBRANCH   1  19
TORSDOF 5
ENDMDL
MODEL 3
REMARK VINA RESULT:      -7.7      2.376      3.679
REMARK  5 active torsions:
REMARK  status: ('A' for Active; 'I' for Inactive)
REMARK    1  A    between atoms: C_8  and  N_9 
REMARK       I    between atoms: N_9  and  C_10 
REMARK       I    between atoms: C_10  and  N_11 
REMARK    2  A    between atoms: N_11  and  C_12 
REMARK    3  A    between atoms: C_13  and  O_14 
REMARK    4  A    between atoms: O_14  and  C_15 
REMARK    5  A    between atoms: C_15  and  C_16 
ROOT
HETATM    1  N   UNL     1      28.701  41.017  51.044  1.00  0.00    -0.305 N 
HETATM    2  C   UNL     1      28.702  41.416  52.368  1.00  0.00     0.325 C 
HETATM    3  N   UNL     1      29.512  42.528  52.530  1.00  0.00    -0.306 N 
HETATM    4  O   UNL     1      28.077  40.873  53.268  1.00  0.00    -0.247 OA
HETATM    5  H   UNL     1      28.942  41.724  50.368  1.00  0.00     0.171 HD
HETATM    6  H   UNL     1      30.168  42.725  51.787  1.00  0.00     0.171 HD
ENDROOT
BRANCH   3   7
HETATM    7  C   UNL     1      29.689  43.306  53.695  1.00  0.00     0.069 A 
HETATM    8  C   UNL     1      28.804  44.381  53.894  1.00  0.00     0.095 A 
HETATM    9  C   UNL     1      28.879  45.174  55.040  1.00  0.00     0.039 A 
HETATM   10  C   UNL     1      29.870  44.921  55.986  1.00  0.00     0.003 A 
HETATM   11  C   UNL     1      30.766  43.871  55.790  1.00  0.00     0.002 A 
HETATM   12  C   UNL     1      30.674  43.063  54.652  1.00  0.00     0.032 A 
BRANCH   8  13
HETATM   13  O   UNL     1      27.832  44.599  52.946  1.00  0.00    -0.340 OA
BRANCH  13  14
HETATM   14  C   UNL     1      26.673  45.236  53.517  1.00  0.00     0.293 C 
BRANCH  14  15
HETATM   15  C   UNL     1      25.435  44.399  53.239  1.00  0.00     0.408 C 
HETATM   16  F   UNL     1      25.758  43.232  52.635  1.00  0.00    -0.169 F 
HETATM   17  F   UNL     1      24.765  44.105  54.375  1.00  0.00    -0.169 F 
HETATM   18  F   UNL     1      24.583  45.060  52.423  1.00  0.00    -0.169 F 
ENDBRANCH  14  15
ENDBRANCH  13  14
ENDBRANCH   8  13
ENDBRANCH   3   7
BRANCH   1  19
HETATM   19  C   UNL     1      28.135  39.861  50.533  1.00  0.00     0.086 A 
HETATM   20  C   UNL     1      26.815  39.806  50.124  1.00  0.00     0.052 A 
HETATM   21  C   UNL     1      25.722  40.806  50.116  1.00  0.00     0.072 C 
HETATM   22  N   UNL     1      26.617  38.531  49.675  1.00  0.00    -0.280 N 
HETATM   23  H   UNL     1      25.765  38.121  49.307  1.00  0.00     0.189 HD
HETATM   24  N   UNL     1      27.705  37.761  49.735  1.00  0.00    -0.177 NA
HETATM   25  C   UNL     1      28.651  38.560  50.253  1.00  0.00     0.079 A 
HETATM   26  C   UNL     1      30.025  38.016  50.400  1.00  0.00     0.075 C 
ENDBRANCH   1  19
TORSDOF 5
ENDMDL
MODEL 4
REMARK VINA RESULT:      -7.5      1.480      1.819
REMARK  5 active torsions:
REMARK  status: ('A' for Active; 'I' for Inactive)
REMARK    1  A    between atoms: C_8  and  N_9 
REMARK       I    between atoms: N_9  and  C_10 
REMARK       I    between atoms: C_10  and  N_11 
REMARK    2  A    between atoms: N_11  and  C_12 
REMARK    3  A    between atoms: C_13  and  O_14 
REMARK    4  A    between atoms: O_14  and  C_15 
REMARK    5  A    between atoms: C_15  and  C_16 
ROOT
HETATM    1  N   UNL     1      26.027  43.085  52.243  1.00  0.00    -0.305 N 
HETATM    2  C   UNL     1      27.269  43.602  52.561  1.00  0.00     0.325 C 
HETATM    3  N   UNL     1      27.472  43.547  53.930  1.00  0.00    -0.306 N 
HETATM    4  O   UNL     1      28.078  44.039  51.754  1.00  0.00    -0.247 OA
HETATM    5  H   UNL     1      25.626  42.449  52.914  1.00  0.00     0.171 HD
HETATM    6  H   UNL     1      26.653  43.413  54.507  1.00  0.00     0.171 HD
ENDROOT
BRANCH   3   7
HETATM    7  C   UNL     1      28.649  43.864  54.643  1.00  0.00     0.069 A 
HETATM    8  C   UNL     1      28.638  45.037  55.417  1.00  0.00     0.095 A 
HETATM    9  C   UNL     1      29.742  45.402  56.190  1.00  0.00     0.039 A 
HETATM   10  C   UNL     1      30.888  44.610  56.167  1.00  0.00     0.003 A 
HETATM   11  C   UNL     1      30.918  43.454  55.387  1.00  0.00     0.002 A 
HETATM   12  C   UNL     1      29.802  43.079  54.632  1.00  0.00     0.032 A 
BRANCH   8  13
HETATM   13  O   UNL     1      27.489  45.792  55.427  1.00  0.00    -0.340 OA
BRANCH  13  14
HETATM   14  C   UNL     1      27.611  46.949  54.575  1.00  0.00     0.293 C 
BRANCH  14  15
HETATM   15  C   UNL     1      26.295  47.202  53.859  1.00  0.00     0.408 C 
HETATM   16  F   UNL     1      26.494  47.474  52.549  1.00  0.00    -0.169 F 
HETATM   17  F   UNL     1      25.468  46.137  53.941  1.00  0.00    -0.169 F 
HETATM   18  F   UNL     1      25.651  48.260  54.402  1.00  0.00    -0.169 F 
ENDBRANCH  14  15
ENDBRANCH  13  14
ENDBRANCH   8  13
ENDBRANCH   3   7
BRANCH   1  19
HETATM   19  C   UNL     1      25.415  43.116  51.001  1.00  0.00     0.086 A 
HETATM   20  C   UNL     1      25.364  42.006  50.178  1.00  0.00     0.052 A 
HETATM   21  C   UNL     1      25.885  40.626  50.317  1.00  0.00     0.072 C 
HETATM   22  N   UNL     1      24.687  42.402  49.060  1.00  0.00    -0.280 N 
HETATM   23  H   UNL     1      24.465  41.855  48.234  1.00  0.00     0.189 HD
HETATM   24  N   UNL     1      24.272  43.670  49.099  1.00  0.00    -0.177 NA
HETATM   25  C   UNL     1      24.703  44.125  50.285  1.00  0.00     0.079 A 
HETATM   26  C   UNL     1      24.350  45.514  50.673  1.00  0.00     0.075 C 
ENDBRANCH   1  19
TORSDOF 5
ENDMDL
MODEL 5
REMARK VINA RESULT:      -7.3      2.731      3.888
REMARK  5 active torsions:
REMARK  status: ('A' for Active; 'I' for Inactive)
REMARK    1  A    between atoms: C_8  and  N_9 
REMARK       I    between atoms: N_9  and  C_10 
REMARK       I    between atoms: C_10  and  N_11 
REMARK    2  A    between atoms: N_11  and  C_12 
REMARK    3  A    between atoms: C_13  and  O_14 
REMARK    4  A    between atoms: O_14  and  C_15 
REMARK    5  A    between atoms: C_15  and  C_16 
ROOT
HETATM    1  N   UNL     1      28.845  40.763  50.823  1.00  0.00    -0.305 N 
HETATM    2  C   UNL     1      28.674  41.260  52.103  1.00  0.00     0.325 C 
HETATM    3  N   UNL     1      29.527  42.330  52.315  1.00  0.00    -0.306 N 
HETATM    4  O   UNL     1      27.883  40.825  52.927  1.00  0.00    -0.247 OA
HETATM    5  H   UNL     1      29.234  41.401  50.147  1.00  0.00     0.171 HD
HETATM    6  H   UNL     1      30.301  42.431  51.672  1.00  0.00     0.171 HD
ENDROOT
BRANCH   3   7
HETATM    7  C   UNL     1      29.582  43.182  53.440  1.00  0.00     0.069 A 
HETATM    8  C   UNL     1      28.618  44.202  53.524  1.00  0.00     0.095 A 
HETATM    9  C   UNL     1      28.571  45.061  54.624  1.00  0.00     0.039 A 
HETATM   10  C   UNL     1      29.516  44.929  55.639  1.00  0.00     0.003 A 
HETATM   11  C   UNL     1      30.490  43.934  55.557  1.00  0.00     0.002 A 
HETATM   12  C   UNL     1      30.520  43.060  54.465  1.00  0.00     0.032 A 
BRANCH   8  13
HETATM   13  O   UNL     1      27.693  44.300  52.511  1.00  0.00    -0.340 OA
BRANCH  13  14
HETATM   14  C   UNL     1      26.354  44.084  52.997  1.00  0.00     0.293 C 
BRANCH  14  15
HETATM   15  C   UNL     1      25.375  44.099  51.835  1.00  0.00     0.408 C 
HETATM   16  F   UNL     1      24.453  45.078  51.983  1.00  0.00    -0.169 F 
HETATM   17  F   UNL     1      26.004  44.297  50.655  1.00  0.00    -0.169 F 
HETATM   18  F   UNL     1      24.713  42.923  51.751  1.00  0.00    -0.169 F 
ENDBRANCH  14  15
ENDBRANCH  13  14
ENDBRANCH   8  13
ENDBRANCH   3   7
BRANCH   1  19
HETATM   19  C   UNL     1      28.282  39.608  50.306  1.00  0.00     0.086 A 
HETATM   20  C   UNL     1      28.899  38.375  50.417  1.00  0.00     0.052 A 
HETATM   21  C   UNL     1      30.183  37.943  51.017  1.00  0.00     0.072 C 
HETATM   22  N   UNL     1      28.061  37.483  49.811  1.00  0.00    -0.280 N 
HETATM   23  H   UNL     1      28.189  36.484  49.692  1.00  0.00     0.189 HD
HETATM   24  N   UNL     1      26.939  38.030  49.337  1.00  0.00    -0.177 NA
HETATM   25  C   UNL     1      27.052  39.333  49.636  1.00  0.00     0.079 A 
HETATM   26  C   UNL     1      25.922  40.232  49.291  1.00  0.00     0.075 C 
ENDBRANCH   1  19
TORSDOF 5
ENDMDL
MODEL 6
REMARK VINA RESULT:      -7.3      7.706     11.012
REMARK  5 active torsions:
REMARK  status: ('A' for Active; 'I' for Inactive)
REMARK    1  A    between atoms: C_8  and  N_9 
REMARK       I    between atoms: N_9  and  C_10 
REMARK       I    between atoms: C_10  and  N_11 
REMARK    2  A    between atoms: N_11  and  C_12 
REMARK    3  A    between atoms: C_13  and  O_14 
REMARK    4  A    between atoms: O_14  and  C_15 
REMARK    5  A    between atoms: C_15  and  C_16 
ROOT
HETATM    1  N   UNL     1      22.941  48.532  49.604  1.00  0.00    -0.305 N 
HETATM    2  C   UNL     1      21.925  48.092  48.775  1.00  0.00     0.325 C 
HETATM    3  N   UNL     1      20.789  47.820  49.519  1.00  0.00    -0.306 N 
HETATM    4  O   UNL     1      22.010  47.966  47.562  1.00  0.00    -0.247 OA
HETATM    5  H   UNL     1      22.655  48.930  50.484  1.00  0.00     0.171 HD
HETATM    6  H   UNL     1      20.913  47.712  50.516  1.00  0.00     0.171 HD
ENDROOT
BRANCH   3   7
HETATM    7  C   UNL     1      19.508  47.463  49.042  1.00  0.00     0.069 A 
HETATM    8  C   UNL     1      18.479  48.411  49.188  1.00  0.00     0.095 A 
HETATM    9  C   UNL     1      17.194  48.159  48.704  1.00  0.00     0.039 A 
HETATM   10  C   UNL     1      16.916  46.935  48.099  1.00  0.00     0.003 A 
HETATM   11  C   UNL     1      17.923  45.980  47.968  1.00  0.00     0.002 A 
HETATM   12  C   UNL     1      19.216  46.244  48.432  1.00  0.00     0.032 A 
BRANCH   8  13
HETATM   13  O   UNL     1      18.789  49.612  49.780  1.00  0.00    -0.340 OA
BRANCH  13  14
HETATM   14  C   UNL     1      18.575  50.715  48.878  1.00  0.00     0.293 C 
BRANCH  14  15
HETATM   15  C   UNL     1      19.898  51.402  48.583  1.00  0.00     0.408 C 
HETATM   16  F   UNL     1      20.507  50.853  47.507  1.00  0.00    -0.169 F 
HETATM   17  F   UNL     1      19.732  52.721  48.338  1.00  0.00    -0.169 F 
HETATM   18  F   UNL     1      20.742  51.287  49.633  1.00  0.00    -0.169 F 
ENDBRANCH  14  15
ENDBRANCH  13  14
ENDBRANCH   8  13
ENDBRANCH   3   7
BRANCH   1  19
HETATM   19  C   UNL     1      24.261  48.751  49.243  1.00  0.00     0.086 A 
HETATM   20  C   UNL     1      24.644  49.836  48.475  1.00  0.00     0.052 A 
HETATM   21  C   UNL     1      23.886  50.948  47.855  1.00  0.00     0.072 C 
HETATM   22  N   UNL     1      25.998  49.731  48.333  1.00  0.00    -0.280 N 
HETATM   23  H   UNL     1      26.624  50.345  47.823  1.00  0.00     0.189 HD
HETATM   24  N   UNL     1      26.530  48.683  48.965  1.00  0.00    -0.177 NA
HETATM   25  C   UNL     1      25.481  48.071  49.536  1.00  0.00     0.079 A 
HETATM   26  C   UNL     1      25.740  46.877  50.380  1.00  0.00     0.075 C 
ENDBRANCH   1  19
TORSDOF 5
ENDMDL
MODEL 7
REMARK VINA RESULT:      -7.2      2.180      3.173
REMARK  5 active torsions:
REMARK  status: ('A' for Active; 'I' for Inactive)
REMARK    1  A    between atoms: C_8  and  N_9 
REMARK       I    between atoms: N_9  and  C_10 
REMARK       I    between atoms: C_10  and  N_11 
REMARK    2  A    between atoms: N_11  and  C_12 
REMARK    3  A    between atoms: C_13  and  O_14 
REMARK    4  A    between atoms: O_14  and  C_15 
REMARK    5  A    between atoms: C_15  and  C_16 
ROOT
HETATM    1  N   UNL     1      25.038  44.417  51.546  1.00  0.00    -0.305 N 
HETATM    2  C   UNL     1      26.415  44.438  51.676  1.00  0.00     0.325 C 
HETATM    3  N   UNL     1      26.784  43.934  52.912  1.00  0.00    -0.306 N 
HETATM    4  O   UNL     1      27.197  44.836  50.824  1.00  0.00    -0.247 OA
HETATM    5  H   UNL     1      24.547  43.757  52.129  1.00  0.00     0.171 HD
HETATM    6  H   UNL     1      26.061  43.882  53.616  1.00  0.00     0.171 HD
ENDROOT
BRANCH   3   7
HETATM    7  C   UNL     1      28.089  43.678  53.386  1.00  0.00     0.069 A 
HETATM    8  C   UNL     1      28.460  44.271  54.606  1.00  0.00     0.095 A 
HETATM    9  C   UNL     1      29.715  44.034  55.171  1.00  0.00     0.039 A 
HETATM   10  C   UNL     1      30.629  43.227  54.498  1.00  0.00     0.003 A 
HETATM   11  C   UNL     1      30.280  42.650  53.278  1.00  0.00     0.002 A 
HETATM   12  C   UNL     1      29.013  42.869  52.725  1.00  0.00     0.032 A 
BRANCH   8  13
HETATM   13  O   UNL     1      27.532  45.055  55.250  1.00  0.00    -0.340 OA
BRANCH  13  14
HETATM   14  C   UNL     1      28.115  46.289  55.713  1.00  0.00     0.293 C 
BRANCH  14  15
HETATM   15  C   UNL     1      27.513  47.460  54.955  1.00  0.00     0.408 C 
HETATM   16  F   UNL     1      26.771  47.036  53.906  1.00  0.00    -0.169 F 
HETATM   17  F   UNL     1      26.718  48.212  55.747  1.00  0.00    -0.169 F 
HETATM   18  F   UNL     1      28.483  48.266  54.469  1.00  0.00    -0.169 F 
ENDBRANCH  14  15
ENDBRANCH  13  14
ENDBRANCH   8  13
ENDBRANCH   3   7
BRANCH   1  19
HETATM   19  C   UNL     1      24.299  44.980  50.518  1.00  0.00     0.086 A 
HETATM   20  C   UNL     1      23.375  44.251  49.791  1.00  0.00     0.052 A 
HETATM   21  C   UNL     1      22.945  42.834  49.843  1.00  0.00     0.072 C 
HETATM   22  N   UNL     1      22.843  45.124  48.885  1.00  0.00    -0.280 N 
HETATM   23  H   UNL     1      22.140  44.941  48.177  1.00  0.00     0.189 HD
HETATM   24  N   UNL     1      23.325  46.365  48.980  1.00  0.00    -0.177 NA
HETATM   25  C   UNL     1      24.216  46.299  49.981  1.00  0.00     0.079 A 
HETATM   26  C   UNL     1      24.905  47.550  50.389  1.00  0.00     0.075 C 
ENDBRANCH   1  19
TORSDOF 5
ENDMDL
MODEL 8
REMARK VINA RESULT:      -7.2      7.807     11.094
REMARK  5 active torsions:
REMARK  status: ('A' for Active; 'I' for Inactive)
REMARK    1  A    between atoms: C_8  and  N_9 
REMARK       I    between atoms: N_9  and  C_10 
REMARK       I    between atoms: C_10  and  N_11 
REMARK    2  A    between atoms: N_11  and  C_12 
REMARK    3  A    between atoms: C_13  and  O_14 
REMARK    4  A    between atoms: O_14  and  C_15 
REMARK    5  A    between atoms: C_15  and  C_16 
ROOT
HETATM    1  N   UNL     1      22.682  48.311  49.625  1.00  0.00    -0.305 N 
HETATM    2  C   UNL     1      21.718  47.976  48.692  1.00  0.00     0.325 C 
HETATM    3  N   UNL     1      20.523  47.681  49.326  1.00  0.00    -0.306 N 
HETATM    4  O   UNL     1      21.888  47.950  47.481  1.00  0.00    -0.247 OA
HETATM    5  H   UNL     1      22.343  48.643  50.514  1.00  0.00     0.171 HD
HETATM    6  H   UNL     1      20.570  47.486  50.317  1.00  0.00     0.171 HD
ENDROOT
BRANCH   3   7
HETATM    7  C   UNL     1      19.271  47.409  48.732  1.00  0.00     0.069 A 
HETATM    8  C   UNL     1      18.336  48.458  48.689  1.00  0.00     0.095 A 
HETATM    9  C   UNL     1      17.091  48.290  48.079  1.00  0.00     0.039 A 
HETATM   10  C   UNL     1      16.755  47.053  47.535  1.00  0.00     0.003 A 
HETATM   11  C   UNL     1      17.667  45.999  47.589  1.00  0.00     0.002 A 
HETATM   12  C   UNL     1      18.923  46.177  48.180  1.00  0.00     0.032 A 
BRANCH   8  13
HETATM   13  O   UNL     1      18.701  49.670  49.227  1.00  0.00    -0.340 OA
BRANCH  13  14
HETATM   14  C   UNL     1      18.773  50.695  48.216  1.00  0.00     0.293 C 
BRANCH  14  15
HETATM   15  C   UNL     1      19.644  51.840  48.705  1.00  0.00     0.408 C 
HETATM   16  F   UNL     1      19.612  51.940  50.054  1.00  0.00    -0.169 F 
HETATM   17  F   UNL     1      20.933  51.681  48.331  1.00  0.00    -0.169 F 
HETATM   18  F   UNL     1      19.215  53.018  48.197  1.00  0.00    -0.169 F 
ENDBRANCH  14  15
ENDBRANCH  13  14
ENDBRANCH   8  13
ENDBRANCH   3   7
BRANCH   1  19
HETATM   19  C   UNL     1      24.030  48.515  49.379  1.00  0.00     0.086 A 
HETATM   20  C   UNL     1      25.005  47.668  49.876  1.00  0.00     0.052 A 
HETATM   21  C   UNL     1      24.946  46.456  50.726  1.00  0.00     0.072 C 
HETATM   22  N   UNL     1      26.195  48.168  49.430  1.00  0.00    -0.280 N 
HETATM   23  H   UNL     1      27.129  47.812  49.604  1.00  0.00     0.189 HD
HETATM   24  N   UNL     1      26.073  49.254  48.664  1.00  0.00    -0.177 NA
HETATM   25  C   UNL     1      24.751  49.480  48.615  1.00  0.00     0.079 A 
HETATM   26  C   UNL     1      24.263  50.606  47.779  1.00  0.00     0.075 C 
ENDBRANCH   1  19
TORSDOF 5
ENDMDL
MODEL 9
REMARK VINA RESULT:      -7.0      2.117      6.049
REMARK  5 active torsions:
REMARK  status: ('A' for Active; 'I' for Inactive)
REMARK    1  A    between atoms: C_8  and  N_9 
REMARK       I    between atoms: N_9  and  C_10 
REMARK       I    between atoms: C_10  and  N_11 
REMARK    2  A    between atoms: N_11  and  C_12 
REMARK    3  A    between atoms: C_13  and  O_14 
REMARK    4  A    between atoms: O_14  and  C_15 
REMARK    5  A    between atoms: C_15  and  C_16 
ROOT
HETATM    1  N   UNL     1      29.147  44.267  53.947  1.00  0.00    -0.305 N 
HETATM    2  C   UNL     1      27.995  43.711  53.422  1.00  0.00     0.325 C 
HETATM    3  N   UNL     1      28.206  43.331  52.107  1.00  0.00    -0.306 N 
HETATM    4  O   UNL     1      26.943  43.565  54.028  1.00  0.00    -0.247 OA
HETATM    5  H   UNL     1      30.011  44.006  53.498  1.00  0.00     0.171 HD
HETATM    6  H   UNL     1      29.012  43.728  51.642  1.00  0.00     0.171 HD
ENDROOT
BRANCH   3   7
HETATM    7  C   UNL     1      27.327  42.624  51.259  1.00  0.00     0.069 A 
HETATM    8  C   UNL     1      26.726  43.341  50.209  1.00  0.00     0.095 A 
HETATM    9  C   UNL     1      25.879  42.709  49.296  1.00  0.00     0.039 A 
HETATM   10  C   UNL     1      25.594  41.355  49.448  1.00  0.00     0.003 A 
HETATM   11  C   UNL     1      26.167  40.637  50.498  1.00  0.00     0.002 A 
HETATM   12  C   UNL     1      27.034  41.267  51.397  1.00  0.00     0.032 A 
BRANCH   8  13
HETATM   13  O   UNL     1      27.035  44.675  50.080  1.00  0.00    -0.340 OA
BRANCH  13  14
HETATM   14  C   UNL     1      25.847  45.481  49.961  1.00  0.00     0.293 C 
BRANCH  14  15
HETATM   15  C   UNL     1      25.439  46.004  51.329  1.00  0.00     0.408 C 
HETATM   16  F   UNL     1      24.698  47.130  51.222  1.00  0.00    -0.169 F 
HETATM   17  F   UNL     1      24.714  45.094  52.015  1.00  0.00    -0.169 F 
HETATM   18  F   UNL     1      26.529  46.300  52.072  1.00  0.00    -0.169 F 
ENDBRANCH  14  15
ENDBRANCH  13  14
ENDBRANCH   8  13
ENDBRANCH   3   7
BRANCH   1  19
HETATM   19  C   UNL     1      29.272  44.898  55.174  1.00  0.00     0.086 A 
HETATM   20  C   UNL     1      30.188  44.485  56.124  1.00  0.00     0.052 A 
HETATM   21  C   UNL     1      31.180  43.385  56.154  1.00  0.00     0.072 C 
HETATM   22  N   UNL     1      30.035  45.334  57.183  1.00  0.00    -0.280 N 
HETATM   23  H   UNL     1      30.532  45.329  58.067  1.00  0.00     0.189 HD
HETATM   24  N   UNL     1      29.112  46.278  56.991  1.00  0.00    -0.177 NA
HETATM   25  C   UNL     1      28.636  46.033  55.760  1.00  0.00     0.079 A 
HETATM   26  C   UNL     1      27.614  46.957  55.207  1.00  0.00     0.075 C 
ENDBRANCH   1  19
TORSDOF 5
ENDMDL
MODEL 10
REMARK VINA RESULT:      -6.9      2.420      6.522
REMARK  5 active torsions:
REMARK  status: ('A' for Active; 'I' for Inactive)
REMARK    1  A    between atoms: C_8  and  N_9 
REMARK       I    between atoms: N_9  and  C_10 
REMARK       I    between atoms: C_10  and  N_11 
REMARK    2  A    between atoms: N_11  and  C_12 
REMARK    3  A    between atoms: C_13  and  O_14 
REMARK    4  A    between atoms: O_14  and  C_15 
REMARK    5  A    between atoms: C_15  and  C_16 
ROOT
HETATM    1  N   UNL     1      28.347  44.901  53.557  1.00  0.00    -0.305 N 
HETATM    2  C   UNL     1      27.114  44.326  53.305  1.00  0.00     0.325 C 
HETATM    3  N   UNL     1      26.831  44.380  51.951  1.00  0.00    -0.306 N 
HETATM    4  O   UNL     1      26.381  43.833  54.151  1.00  0.00    -0.247 OA
HETATM    5  H   UNL     1      28.989  44.933  52.781  1.00  0.00     0.171 HD
HETATM    6  H   UNL     1      27.377  45.027  51.397  1.00  0.00     0.171 HD
ENDROOT
BRANCH   3   7
HETATM    7  C   UNL     1      25.736  43.803  51.272  1.00  0.00     0.069 A 
HETATM    8  C   UNL     1      24.614  44.620  51.045  1.00  0.00     0.095 A 
HETATM    9  C   UNL     1      23.506  44.143  50.342  1.00  0.00     0.039 A 
HETATM   10  C   UNL     1      23.495  42.826  49.889  1.00  0.00     0.003 A 
HETATM   11  C   UNL     1      24.593  42.000  50.126  1.00  0.00     0.002 A 
HETATM   12  C   UNL     1      25.712  42.487  50.810  1.00  0.00     0.032 A 
BRANCH   8  13
HETATM   13  O   UNL     1      24.660  45.917  51.497  1.00  0.00    -0.340 OA
BRANCH  13  14
HETATM   14  C   UNL     1      24.658  46.856  50.404  1.00  0.00     0.293 C 
BRANCH  14  15
HETATM   15  C   UNL     1      26.025  47.509  50.283  1.00  0.00     0.408 C 
HETATM   16  F   UNL     1      26.881  46.730  49.582  1.00  0.00    -0.169 F 
HETATM   17  F   UNL     1      25.953  48.708  49.663  1.00  0.00    -0.169 F 
HETATM   18  F   UNL     1      26.567  47.715  51.505  1.00  0.00    -0.169 F 
ENDBRANCH  14  15
ENDBRANCH  13  14
ENDBRANCH   8  13
ENDBRANCH   3   7
BRANCH   1  19
HETATM   19  C   UNL     1      28.893  45.167  54.802  1.00  0.00     0.086 A 
HETATM   20  C   UNL     1      28.488  46.245  55.568  1.00  0.00     0.052 A 
HETATM   21  C   UNL     1      27.500  47.326  55.342  1.00  0.00     0.072 C 
HETATM   22  N   UNL     1      29.225  46.183  56.716  1.00  0.00    -0.280 N 
HETATM   23  H   UNL     1      29.205  46.816  57.509  1.00  0.00     0.189 HD
HETATM   24  N   UNL     1      30.057  45.140  56.771  1.00  0.00    -0.177 NA
HETATM   25  C   UNL     1      29.864  44.500  55.607  1.00  0.00     0.079 A 
HETATM   26  C   UNL     1      30.610  43.238  55.370  1.00  0.00     0.075 C 
ENDBRANCH   1  19
TORSDOF 5
ENDMDL
