MODEL 1
REMARK VINA RESULT:      -7.5      0.000      0.000
REMARK  9 active torsions:
REMARK  status: ('A' for Active; 'I' for Inactive)
REMARK    1  A    between atoms: C_4  and  C_5 
REMARK    2  A    between atoms: C_7  and  C_8 
REMARK    3  A    between atoms: C_8  and  C_9 
REMARK       I    between atoms: C_9  and  N_10 
REMARK    4  A    between atoms: N_10  and  C_11 
REMARK    5  A    between atoms: C_11  and  C_12 
REMARK    6  A    between atoms: C_12  and  N_13 
REMARK    7  A    between atoms: C_27  and  C_28 
REMARK    8  A    between atoms: C_28  and  O_29 
REMARK    9  A    between atoms: O_29  and  C_30 
ROOT
HETATM    1  C   UNL     1      23.858  46.632  49.735  1.00  0.00     0.166 C 
HETATM    2  N   UNL     1      22.968  47.636  49.074  1.00  0.00    -0.319 N 
HETATM    3  C   UNL     1      21.700  47.694  48.789  1.00  0.00     0.011 C 
HETATM    4  C   UNL     1      23.696  48.936  48.631  1.00  0.00     0.170 C 
HETATM    5  S   UNL     1      22.616  50.095  47.934  1.00  0.00    -0.086 SA
HETATM    6  C   UNL     1      21.263  48.906  47.988  1.00  0.00     0.135 C 
HETATM    7  N   UNL     1      24.952  49.173  48.729  1.00  0.00    -0.229 NA
HETATM    8  C   UNL     1      25.774  48.197  49.231  1.00  0.00     0.048 C 
HETATM    9  C   UNL     1      27.229  48.617  49.291  1.00  0.00     0.071 C 
HETATM   10  C   UNL     1      25.313  47.005  49.657  1.00  0.00     0.069 C 
ENDROOT
BRANCH   3  11
HETATM   11  C   UNL     1      20.747  46.564  49.084  1.00  0.00     0.156 C 
BRANCH  11  12
HETATM   12  C   UNL     1      19.509  46.524  48.208  1.00  0.00     0.223 C 
HETATM   13  N   UNL     1      18.321  46.797  48.853  1.00  0.00    -0.359 N 
HETATM   14  H   UNL     1      18.398  47.143  49.807  1.00  0.00     0.162 HD
HETATM   15  O   UNL     1      19.569  46.277  47.011  1.00  0.00    -0.273 OA
BRANCH  13  16
HETATM   16  C   UNL     1      17.159  47.324  48.125  1.00  0.00     0.150 C 
BRANCH  16  17
HETATM   17  C   UNL     1      16.669  48.742  48.488  1.00  0.00     0.254 C 
BRANCH  17  18
HETATM   18  N   UNL     1      17.792  49.765  48.448  1.00  0.00    -0.070 N 
HETATM   19  H   UNL     1      18.647  49.234  48.237  1.00  0.00     0.279 HD
HETATM   20  C   UNL     1      17.601  50.814  47.375  1.00  0.00     0.235 C 
HETATM   21  C   UNL     1      18.805  51.745  47.344  1.00  0.00     0.028 C 
HETATM   22  C   UNL     1      19.057  52.386  48.703  1.00  0.00     0.003 C 
HETATM   23  C   UNL     1      19.188  51.326  49.789  1.00  0.00     0.028 C 
HETATM   24  C   UNL     1      17.985  50.395  49.816  1.00  0.00     0.235 C 
ENDBRANCH  17  18
ENDBRANCH  16  17
ENDBRANCH  13  16
ENDBRANCH  11  12
ENDBRANCH   3  11
BRANCH   1  25
HETATM   25  C   UNL     1      23.565  45.227  49.215  1.00  0.00    -0.030 A 
HETATM   26  C   UNL     1      23.586  44.992  47.825  1.00  0.00     0.016 A 
HETATM   27  C   UNL     1      23.386  43.710  47.300  1.00  0.00    -0.061 A 
HETATM   28  C   UNL     1      23.397  43.490  45.814  1.00  0.00     0.048 C 
HETATM   29  C   UNL     1      23.100  42.661  48.176  1.00  0.00     0.007 A 
HETATM   30  C   UNL     1      23.031  42.885  49.551  1.00  0.00     0.001 A 
HETATM   31  C   UNL     1      23.262  44.158  50.074  1.00  0.00     0.009 A 
ENDBRANCH   1  25
BRANCH  10  32
HETATM   32  C   UNL     1      26.250  45.961  50.129  1.00  0.00     0.294 C 
HETATM   33  O   UNL     1      26.961  45.328  49.372  1.00  0.00    -0.259 OA
BRANCH  32  34
HETATM   34  O   UNL     1      26.235  45.953  51.480  1.00  0.00    -0.313 OA
BRANCH  34  35
HETATM   35  C   UNL     1      26.194  44.670  52.139  1.00  0.00     0.124 C 
HETATM   36  C   UNL     1      27.593  44.419  52.691  1.00  0.00     0.040 C 
HETATM   37  C   UNL     1      25.174  44.720  53.270  1.00  0.00     0.040 C 
ENDBRANCH  34  35
ENDBRANCH  32  34
ENDBRANCH  10  32
TORSDOF 9
ENDMDL
MODEL 2
REMARK VINA RESULT:      -7.4      2.756      8.436
REMARK  9 active torsions:
REMARK  status: ('A' for Active; 'I' for Inactive)
REMARK    1  A    between atoms: C_4  and  C_5 
REMARK    2  A    between atoms: C_7  and  C_8 
REMARK    3  A    between atoms: C_8  and  C_9 
REMARK       I    between atoms: C_9  and  N_10 
REMARK    4  A    between atoms: N_10  and  C_11 
REMARK    5  A    between atoms: C_11  and  C_12 
REMARK    6  A    between atoms: C_12  and  N_13 
REMARK    7  A    between atoms: C_27  and  C_28 
REMARK    8  A    between atoms: C_28  and  O_29 
REMARK    9  A    between atoms: O_29  and  C_30 
ROOT
HETATM    1  C   UNL     1      17.759  47.352  47.493  1.00  0.00     0.166 C 
HETATM    2  N   UNL     1      18.771  46.484  46.816  1.00  0.00    -0.319 N 
HETATM    3  C   UNL     1      19.796  45.788  47.210  1.00  0.00     0.011 C 
HETATM    4  C   UNL     1      18.563  46.344  45.282  1.00  0.00     0.170 C 
HETATM    5  S   UNL     1      19.714  45.278  44.552  1.00  0.00    -0.086 SA
HETATM    6  C   UNL     1      20.613  45.141  46.107  1.00  0.00     0.135 C 
HETATM    7  N   UNL     1      17.669  46.938  44.580  1.00  0.00    -0.229 NA
HETATM    8  C   UNL     1      16.820  47.822  45.196  1.00  0.00     0.048 C 
HETATM    9  C   UNL     1      15.817  48.444  44.247  1.00  0.00     0.071 C 
HETATM   10  C   UNL     1      16.864  48.070  46.520  1.00  0.00     0.069 C 
ENDROOT
BRANCH   3  11
HETATM   11  C   UNL     1      20.252  45.752  48.647  1.00  0.00     0.156 C 
BRANCH  11  12
HETATM   12  C   UNL     1      21.618  45.132  48.871  1.00  0.00     0.223 C 
HETATM   13  N   UNL     1      22.671  46.022  48.905  1.00  0.00    -0.359 N 
HETATM   14  H   UNL     1      22.423  47.009  48.929  1.00  0.00     0.162 HD
HETATM   15  O   UNL     1      21.767  43.926  49.019  1.00  0.00    -0.273 OA
BRANCH  13  16
HETATM   16  C   UNL     1      23.916  45.707  49.620  1.00  0.00     0.150 C 
BRANCH  16  17
HETATM   17  C   UNL     1      24.619  46.855  50.374  1.00  0.00     0.254 C 
BRANCH  17  18
HETATM   18  N   UNL     1      25.428  47.743  49.442  1.00  0.00    -0.070 N 
HETATM   19  H   UNL     1      25.588  47.186  48.593  1.00  0.00     0.279 HD
HETATM   20  C   UNL     1      24.701  49.012  49.055  1.00  0.00     0.235 C 
HETATM   21  C   UNL     1      25.538  49.800  48.057  1.00  0.00     0.028 C 
HETATM   22  C   UNL     1      26.927  50.106  48.603  1.00  0.00     0.003 C 
HETATM   23  C   UNL     1      27.629  48.830  49.048  1.00  0.00     0.028 C 
HETATM   24  C   UNL     1      26.789  48.042  50.043  1.00  0.00     0.235 C 
ENDBRANCH  17  18
ENDBRANCH  16  17
ENDBRANCH  13  16
ENDBRANCH  11  12
ENDBRANCH   3  11
BRANCH   1  25
HETATM   25  C   UNL     1      18.434  48.284  48.496  1.00  0.00    -0.030 A 
HETATM   26  C   UNL     1      19.463  49.140  48.051  1.00  0.00     0.016 A 
HETATM   27  C   UNL     1      20.071  50.058  48.916  1.00  0.00    -0.061 A 
HETATM   28  C   UNL     1      21.176  50.946  48.421  1.00  0.00     0.048 C 
HETATM   29  C   UNL     1      19.685  50.076  50.258  1.00  0.00     0.007 A 
HETATM   30  C   UNL     1      18.699  49.205  50.724  1.00  0.00     0.001 A 
HETATM   31  C   UNL     1      18.073  48.313  49.853  1.00  0.00     0.009 A 
ENDBRANCH   1  25
BRANCH  10  32
HETATM   32  C   UNL     1      15.970  49.082  47.126  1.00  0.00     0.294 C 
HETATM   33  O   UNL     1      14.960  48.782  47.735  1.00  0.00    -0.259 OA
BRANCH  32  34
HETATM   34  O   UNL     1      16.538  50.298  46.977  1.00  0.00    -0.313 OA
BRANCH  34  35
HETATM   35  C   UNL     1      15.968  51.396  47.719  1.00  0.00     0.124 C 
HETATM   36  C   UNL     1      17.127  52.107  48.407  1.00  0.00     0.040 C 
HETATM   37  C   UNL     1      15.259  52.338  46.753  1.00  0.00     0.040 C 
ENDBRANCH  34  35
ENDBRANCH  32  34
ENDBRANCH  10  32
TORSDOF 9
ENDMDL
MODEL 3
REMARK VINA RESULT:      -7.4      4.457      9.428
REMARK  9 active torsions:
REMARK  status: ('A' for Active; 'I' for Inactive)
REMARK    1  A    between atoms: C_4  and  C_5 
REMARK    2  A    between atoms: C_7  and  C_8 
REMARK    3  A    between atoms: C_8  and  C_9 
REMARK       I    between atoms: C_9  and  N_10 
REMARK    4  A    between atoms: N_10  and  C_11 
REMARK    5  A    between atoms: C_11  and  C_12 
REMARK    6  A    between atoms: C_12  and  N_13 
REMARK    7  A    between atoms: C_27  and  C_28 
REMARK    8  A    between atoms: C_28  and  O_29 
REMARK    9  A    between atoms: O_29  and  C_30 
ROOT
HETATM    1  C   UNL     1      23.814  42.466  49.329  1.00  0.00     0.166 C 
HETATM    2  N   UNL     1      24.606  41.326  48.771  1.00  0.00    -0.319 N 
HETATM    3  C   UNL     1      25.534  40.540  49.231  1.00  0.00     0.011 C 
HETATM    4  C   UNL     1      24.244  40.959  47.305  1.00  0.00     0.170 C 
HETATM    5  S   UNL     1      25.136  39.593  46.725  1.00  0.00    -0.086 SA
HETATM    6  C   UNL     1      26.133  39.575  48.225  1.00  0.00     0.135 C 
HETATM    7  N   UNL     1      23.401  41.569  46.555  1.00  0.00    -0.229 NA
HETATM    8  C   UNL     1      22.767  42.683  47.041  1.00  0.00     0.048 C 
HETATM    9  C   UNL     1      21.800  43.298  46.050  1.00  0.00     0.071 C 
HETATM   10  C   UNL     1      22.967  43.149  48.290  1.00  0.00     0.069 C 
ENDROOT
BRANCH   3  11
HETATM   11  C   UNL     1      26.102  40.676  50.621  1.00  0.00     0.156 C 
BRANCH  11  12
HETATM   12  C   UNL     1      27.515  41.221  50.685  1.00  0.00     0.223 C 
HETATM   13  N   UNL     1      27.808  41.972  51.804  1.00  0.00    -0.359 N 
HETATM   14  H   UNL     1      27.108  41.965  52.544  1.00  0.00     0.162 HD
HETATM   15  O   UNL     1      28.338  40.998  49.806  1.00  0.00    -0.273 OA
BRANCH  13  16
HETATM   16  C   UNL     1      29.186  42.110  52.295  1.00  0.00     0.150 C 
BRANCH  16  17
HETATM   17  C   UNL     1      29.410  42.072  53.822  1.00  0.00     0.254 C 
BRANCH  17  18
HETATM   18  N   UNL     1      29.729  43.446  54.390  1.00  0.00    -0.070 N 
HETATM   19  H   UNL     1      30.306  43.915  53.679  1.00  0.00     0.279 HD
HETATM   20  C   UNL     1      28.495  44.284  54.639  1.00  0.00     0.235 C 
HETATM   21  C   UNL     1      28.903  45.669  55.123  1.00  0.00     0.028 C 
HETATM   22  C   UNL     1      29.781  45.596  56.366  1.00  0.00     0.003 C 
HETATM   23  C   UNL     1      30.990  44.700  56.127  1.00  0.00     0.028 C 
HETATM   24  C   UNL     1      30.579  43.318  55.641  1.00  0.00     0.235 C 
ENDBRANCH  17  18
ENDBRANCH  16  17
ENDBRANCH  13  16
ENDBRANCH  11  12
ENDBRANCH   3  11
BRANCH   1  25
HETATM   25  C   UNL     1      24.718  43.425  50.099  1.00  0.00    -0.030 A 
HETATM   26  C   UNL     1      24.481  43.634  51.474  1.00  0.00     0.016 A 
HETATM   27  C   UNL     1      25.317  44.454  52.240  1.00  0.00    -0.061 A 
HETATM   28  C   UNL     1      25.033  44.673  53.698  1.00  0.00     0.048 C 
HETATM   29  C   UNL     1      26.369  45.122  51.607  1.00  0.00     0.007 A 
HETATM   30  C   UNL     1      26.590  44.960  50.239  1.00  0.00     0.001 A 
HETATM   31  C   UNL     1      25.773  44.117  49.485  1.00  0.00     0.009 A 
ENDBRANCH   1  25
BRANCH  10  32
HETATM   32  C   UNL     1      22.307  44.393  48.744  1.00  0.00     0.294 C 
HETATM   33  O   UNL     1      21.310  44.389  49.442  1.00  0.00    -0.259 OA
BRANCH  32  34
HETATM   34  O   UNL     1      23.063  45.444  48.354  1.00  0.00    -0.313 OA
BRANCH  34  35
HETATM   35  C   UNL     1      22.694  46.749  48.845  1.00  0.00     0.124 C 
HETATM   36  C   UNL     1      23.965  47.384  49.395  1.00  0.00     0.040 C 
HETATM   37  C   UNL     1      22.136  47.578  47.694  1.00  0.00     0.040 C 
ENDBRANCH  34  35
ENDBRANCH  32  34
ENDBRANCH  10  32
TORSDOF 9
ENDMDL
MODEL 4
REMARK VINA RESULT:      -7.3      2.743      8.835
REMARK  9 active torsions:
REMARK  status: ('A' for Active; 'I' for Inactive)
REMARK    1  A    between atoms: C_4  and  C_5 
REMARK    2  A    between atoms: C_7  and  C_8 
REMARK    3  A    between atoms: C_8  and  C_9 
REMARK       I    between atoms: C_9  and  N_10 
REMARK    4  A    between atoms: N_10  and  C_11 
REMARK    5  A    between atoms: C_11  and  C_12 
REMARK    6  A    between atoms: C_12  and  N_13 
REMARK    7  A    between atoms: C_27  and  C_28 
REMARK    8  A    between atoms: C_28  and  O_29 
REMARK    9  A    between atoms: O_29  and  C_30 
ROOT
HETATM    1  C   UNL     1      18.191  47.423  47.412  1.00  0.00     0.166 C 
HETATM    2  N   UNL     1      19.304  46.798  46.632  1.00  0.00    -0.319 N 
HETATM    3  C   UNL     1      20.451  46.265  46.933  1.00  0.00     0.011 C 
HETATM    4  C   UNL     1      19.051  46.739  45.100  1.00  0.00     0.170 C 
HETATM    5  S   UNL     1      20.332  45.948  44.246  1.00  0.00    -0.086 SA
HETATM    6  C   UNL     1      21.314  45.855  45.754  1.00  0.00     0.135 C 
HETATM    7  N   UNL     1      18.035  47.218  44.480  1.00  0.00    -0.229 NA
HETATM    8  C   UNL     1      17.078  47.891  45.194  1.00  0.00     0.048 C 
HETATM    9  C   UNL     1      15.939  48.398  44.334  1.00  0.00     0.071 C 
HETATM   10  C   UNL     1      17.141  48.044  46.532  1.00  0.00     0.069 C 
ENDROOT
BRANCH   3  11
HETATM   11  C   UNL     1      20.974  46.202  48.346  1.00  0.00     0.156 C 
BRANCH  11  12
HETATM   12  C   UNL     1      22.315  46.876  48.564  1.00  0.00     0.223 C 
HETATM   13  N   UNL     1      23.103  46.318  49.549  1.00  0.00    -0.359 N 
HETATM   14  H   UNL     1      22.783  45.429  49.928  1.00  0.00     0.162 HD
HETATM   15  O   UNL     1      22.670  47.843  47.902  1.00  0.00    -0.273 OA
BRANCH  13  16
HETATM   16  C   UNL     1      24.565  46.465  49.534  1.00  0.00     0.150 C 
BRANCH  16  17
HETATM   17  C   UNL     1      25.404  45.333  50.165  1.00  0.00     0.254 C 
BRANCH  17  18
HETATM   18  N   UNL     1      25.608  45.533  51.658  1.00  0.00    -0.070 N 
HETATM   19  H   UNL     1      24.735  45.222  52.103  1.00  0.00     0.279 HD
HETATM   20  C   UNL     1      26.751  44.713  52.215  1.00  0.00     0.235 C 
HETATM   21  C   UNL     1      26.833  44.903  53.723  1.00  0.00     0.028 C 
HETATM   22  C   UNL     1      26.973  46.372  54.100  1.00  0.00     0.003 C 
HETATM   23  C   UNL     1      25.853  47.201  53.485  1.00  0.00     0.028 C 
HETATM   24  C   UNL     1      25.772  47.008  51.978  1.00  0.00     0.235 C 
ENDBRANCH  17  18
ENDBRANCH  16  17
ENDBRANCH  13  16
ENDBRANCH  11  12
ENDBRANCH   3  11
BRANCH   1  25
HETATM   25  C   UNL     1      18.743  48.381  48.465  1.00  0.00    -0.030 A 
HETATM   26  C   UNL     1      19.588  49.434  48.057  1.00  0.00     0.016 A 
HETATM   27  C   UNL     1      20.070  50.376  48.973  1.00  0.00    -0.061 A 
HETATM   28  C   UNL     1      20.982  51.479  48.515  1.00  0.00     0.048 C 
HETATM   29  C   UNL     1      19.750  50.227  50.324  1.00  0.00     0.007 A 
HETATM   30  C   UNL     1      18.951  49.166  50.750  1.00  0.00     0.001 A 
HETATM   31  C   UNL     1      18.446  48.246  49.830  1.00  0.00     0.009 A 
ENDBRANCH   1  25
BRANCH  10  32
HETATM   32  C   UNL     1      16.116  48.835  47.249  1.00  0.00     0.294 C 
HETATM   33  O   UNL     1      15.244  48.319  47.923  1.00  0.00    -0.259 OA
BRANCH  32  34
HETATM   34  O   UNL     1      16.411  50.145  47.105  1.00  0.00    -0.313 OA
BRANCH  34  35
HETATM   35  C   UNL     1      15.626  51.092  47.859  1.00  0.00     0.124 C 
HETATM   36  C   UNL     1      16.438  51.441  49.101  1.00  0.00     0.040 C 
HETATM   37  C   UNL     1      15.386  52.334  47.009  1.00  0.00     0.040 C 
ENDBRANCH  34  35
ENDBRANCH  32  34
ENDBRANCH  10  32
TORSDOF 9
ENDMDL
MODEL 5
REMARK VINA RESULT:      -7.2      2.545      8.421
REMARK  9 active torsions:
REMARK  status: ('A' for Active; 'I' for Inactive)
REMARK    1  A    between atoms: C_4  and  C_5 
REMARK    2  A    between atoms: C_7  and  C_8 
REMARK    3  A    between atoms: C_8  and  C_9 
REMARK       I    between atoms: C_9  and  N_10 
REMARK    4  A    between atoms: N_10  and  C_11 
REMARK    5  A    between atoms: C_11  and  C_12 
REMARK    6  A    between atoms: C_12  and  N_13 
REMARK    7  A    between atoms: C_27  and  C_28 
REMARK    8  A    between atoms: C_28  and  O_29 
REMARK    9  A    between atoms: O_29  and  C_30 
ROOT
HETATM    1  C   UNL     1      20.020  47.267  48.862  1.00  0.00     0.166 C 
HETATM    2  N   UNL     1      19.989  46.141  47.878  1.00  0.00    -0.319 N 
HETATM    3  C   UNL     1      20.883  45.360  47.347  1.00  0.00     0.011 C 
HETATM    4  C   UNL     1      18.566  45.785  47.365  1.00  0.00     0.170 C 
HETATM    5  S   UNL     1      18.571  44.434  46.282  1.00  0.00    -0.086 SA
HETATM    6  C   UNL     1      20.373  44.411  46.279  1.00  0.00     0.135 C 
HETATM    7  N   UNL     1      17.477  46.394  47.662  1.00  0.00    -0.229 NA
HETATM    8  C   UNL     1      17.535  47.497  48.475  1.00  0.00     0.048 C 
HETATM    9  C   UNL     1      16.177  48.112  48.742  1.00  0.00     0.071 C 
HETATM   10  C   UNL     1      18.688  47.952  49.004  1.00  0.00     0.069 C 
ENDROOT
BRANCH   3  11
HETATM   11  C   UNL     1      22.355  45.487  47.643  1.00  0.00     0.156 C 
BRANCH  11  12
HETATM   12  C   UNL     1      22.840  44.694  48.841  1.00  0.00     0.223 C 
HETATM   13  N   UNL     1      24.189  44.796  49.110  1.00  0.00    -0.359 N 
HETATM   14  H   UNL     1      24.699  45.501  48.581  1.00  0.00     0.162 HD
HETATM   15  O   UNL     1      22.080  44.021  49.524  1.00  0.00    -0.273 OA
BRANCH  13  16
HETATM   16  C   UNL     1      24.719  44.571  50.461  1.00  0.00     0.150 C 
BRANCH  16  17
HETATM   17  C   UNL     1      25.286  43.172  50.785  1.00  0.00     0.254 C 
BRANCH  17  18
HETATM   18  N   UNL     1      25.787  43.073  52.217  1.00  0.00    -0.070 N 
HETATM   19  H   UNL     1      25.290  42.276  52.634  1.00  0.00     0.279 HD
HETATM   20  C   UNL     1      27.275  42.812  52.306  1.00  0.00     0.235 C 
HETATM   21  C   UNL     1      27.680  42.641  53.763  1.00  0.00     0.028 C 
HETATM   22  C   UNL     1      27.281  43.846  54.605  1.00  0.00     0.003 C 
HETATM   23  C   UNL     1      25.794  44.141  54.462  1.00  0.00     0.028 C 
HETATM   24  C   UNL     1      25.390  44.309  53.005  1.00  0.00     0.235 C 
ENDBRANCH  17  18
ENDBRANCH  16  17
ENDBRANCH  13  16
ENDBRANCH  11  12
ENDBRANCH   3  11
BRANCH   1  25
HETATM   25  C   UNL     1      21.164  48.228  48.547  1.00  0.00    -0.030 A 
HETATM   26  C   UNL     1      22.411  48.037  49.178  1.00  0.00     0.016 A 
HETATM   27  C   UNL     1      23.510  48.851  48.878  1.00  0.00    -0.061 A 
HETATM   28  C   UNL     1      24.822  48.638  49.577  1.00  0.00     0.048 C 
HETATM   29  C   UNL     1      23.341  49.906  47.979  1.00  0.00     0.007 A 
HETATM   30  C   UNL     1      22.102  50.135  47.379  1.00  0.00     0.001 A 
HETATM   31  C   UNL     1      21.017  49.303  47.657  1.00  0.00     0.009 A 
ENDBRANCH   1  25
BRANCH  10  32
HETATM   32  C   UNL     1      18.706  49.185  49.822  1.00  0.00     0.294 C 
HETATM   33  O   UNL     1      19.028  49.188  50.995  1.00  0.00    -0.259 OA
BRANCH  32  34
HETATM   34  O   UNL     1      18.433  50.235  49.016  1.00  0.00    -0.313 OA
BRANCH  34  35
HETATM   35  C   UNL     1      18.630  51.558  49.557  1.00  0.00     0.124 C 
HETATM   36  C   UNL     1      19.285  52.386  48.457  1.00  0.00     0.040 C 
HETATM   37  C   UNL     1      17.279  52.150  49.939  1.00  0.00     0.040 C 
ENDBRANCH  34  35
ENDBRANCH  32  34
ENDBRANCH  10  32
TORSDOF 9
ENDMDL
MODEL 6
REMARK VINA RESULT:      -7.2     10.556     12.816
REMARK  9 active torsions:
REMARK  status: ('A' for Active; 'I' for Inactive)
REMARK    1  A    between atoms: C_4  and  C_5 
REMARK    2  A    between atoms: C_7  and  C_8 
REMARK    3  A    between atoms: C_8  and  C_9 
REMARK       I    between atoms: C_9  and  N_10 
REMARK    4  A    between atoms: N_10  and  C_11 
REMARK    5  A    between atoms: C_11  and  C_12 
REMARK    6  A    between atoms: C_12  and  N_13 
REMARK    7  A    between atoms: C_27  and  C_28 
REMARK    8  A    between atoms: C_28  and  O_29 
REMARK    9  A    between atoms: O_29  and  C_30 
ROOT
HETATM    1  C   UNL     1      27.986  46.974  38.993  1.00  0.00     0.166 C 
HETATM    2  N   UNL     1      27.057  48.028  38.481  1.00  0.00    -0.319 N 
HETATM    3  C   UNL     1      27.169  49.290  38.187  1.00  0.00     0.011 C 
HETATM    4  C   UNL     1      25.613  47.522  38.206  1.00  0.00     0.170 C 
HETATM    5  S   UNL     1      24.591  48.757  37.552  1.00  0.00    -0.086 SA
HETATM    6  C   UNL     1      25.881  49.991  37.798  1.00  0.00     0.135 C 
HETATM    7  N   UNL     1      25.166  46.342  38.433  1.00  0.00    -0.229 NA
HETATM    8  C   UNL     1      25.998  45.417  39.011  1.00  0.00     0.048 C 
HETATM    9  C   UNL     1      25.339  44.069  39.217  1.00  0.00     0.071 C 
HETATM   10  C   UNL     1      27.281  45.687  39.323  1.00  0.00     0.069 C 
ENDROOT
BRANCH   3  11
HETATM   11  C   UNL     1      28.453  50.058  38.374  1.00  0.00     0.156 C 
BRANCH  11  12
HETATM   12  C   UNL     1      28.290  51.448  38.958  1.00  0.00     0.223 C 
HETATM   13  N   UNL     1      28.237  51.507  40.335  1.00  0.00    -0.359 N 
HETATM   14  H   UNL     1      28.462  50.646  40.829  1.00  0.00     0.162 HD
HETATM   15  O   UNL     1      28.220  52.444  38.250  1.00  0.00    -0.273 OA
BRANCH  13  16
HETATM   16  C   UNL     1      28.620  52.725  41.063  1.00  0.00     0.150 C 
BRANCH  16  17
HETATM   17  C   UNL     1      30.075  53.220  40.917  1.00  0.00     0.254 C 
BRANCH  17  18
HETATM   18  N   UNL     1      31.079  52.221  41.468  1.00  0.00    -0.070 N 
HETATM   19  H   UNL     1      30.669  51.293  41.304  1.00  0.00     0.279 HD
HETATM   20  C   UNL     1      32.421  52.284  40.770  1.00  0.00     0.235 C 
HETATM   21  C   UNL     1      33.337  51.200  41.319  1.00  0.00     0.028 C 
HETATM   22  C   UNL     1      33.496  51.307  42.830  1.00  0.00     0.003 C 
HETATM   23  C   UNL     1      32.139  51.305  43.521  1.00  0.00     0.028 C 
HETATM   24  C   UNL     1      31.224  52.388  42.970  1.00  0.00     0.235 C 
ENDBRANCH  17  18
ENDBRANCH  16  17
ENDBRANCH  13  16
ENDBRANCH  11  12
ENDBRANCH   3  11
BRANCH   1  25
HETATM   25  C   UNL     1      28.832  47.514  40.144  1.00  0.00    -0.030 A 
HETATM   26  C   UNL     1      30.237  47.421  40.063  1.00  0.00     0.016 A 
HETATM   27  C   UNL     1      31.059  47.955  41.062  1.00  0.00    -0.061 A 
HETATM   28  C   UNL     1      32.553  47.827  40.961  1.00  0.00     0.048 C 
HETATM   29  C   UNL     1      30.466  48.537  42.184  1.00  0.00     0.007 A 
HETATM   30  C   UNL     1      29.077  48.599  42.299  1.00  0.00     0.001 A 
HETATM   31  C   UNL     1      28.259  48.093  41.287  1.00  0.00     0.009 A 
ENDBRANCH   1  25
BRANCH  10  32
HETATM   32  C   UNL     1      28.119  44.676  40.005  1.00  0.00     0.294 C 
HETATM   33  O   UNL     1      27.843  44.230  41.103  1.00  0.00    -0.259 OA
BRANCH  32  34
HETATM   34  O   UNL     1      29.102  44.295  39.160  1.00  0.00    -0.313 OA
BRANCH  34  35
HETATM   35  C   UNL     1      28.727  43.499  38.017  1.00  0.00     0.124 C 
HETATM   36  C   UNL     1      29.630  43.933  36.868  1.00  0.00     0.040 C 
HETATM   37  C   UNL     1      28.943  42.025  38.340  1.00  0.00     0.040 C 
ENDBRANCH  34  35
ENDBRANCH  32  34
ENDBRANCH  10  32
TORSDOF 9
ENDMDL
MODEL 7
REMARK VINA RESULT:      -7.2      3.730      6.911
REMARK  9 active torsions:
REMARK  status: ('A' for Active; 'I' for Inactive)
REMARK    1  A    between atoms: C_4  and  C_5 
REMARK    2  A    between atoms: C_7  and  C_8 
REMARK    3  A    between atoms: C_8  and  C_9 
REMARK       I    between atoms: C_9  and  N_10 
REMARK    4  A    between atoms: N_10  and  C_11 
REMARK    5  A    between atoms: C_11  and  C_12 
REMARK    6  A    between atoms: C_12  and  N_13 
REMARK    7  A    between atoms: C_27  and  C_28 
REMARK    8  A    between atoms: C_28  and  O_29 
REMARK    9  A    between atoms: O_29  and  C_30 
ROOT
HETATM    1  C   UNL     1      19.729  47.471  48.753  1.00  0.00     0.166 C 
HETATM    2  N   UNL     1      20.689  48.587  49.016  1.00  0.00    -0.319 N 
HETATM    3  C   UNL     1      20.623  49.730  49.634  1.00  0.00     0.011 C 
HETATM    4  C   UNL     1      22.115  48.346  48.447  1.00  0.00     0.170 C 
HETATM    5  S   UNL     1      23.209  49.630  48.834  1.00  0.00    -0.086 SA
HETATM    6  C   UNL     1      21.862  50.600  49.537  1.00  0.00     0.135 C 
HETATM    7  N   UNL     1      22.494  47.338  47.750  1.00  0.00    -0.229 NA
HETATM    8  C   UNL     1      21.573  46.377  47.418  1.00  0.00     0.048 C 
HETATM    9  C   UNL     1      22.160  45.248  46.598  1.00  0.00     0.071 C 
HETATM   10  C   UNL     1      20.288  46.431  47.821  1.00  0.00     0.069 C 
ENDROOT
BRANCH   3  11
HETATM   11  C   UNL     1      19.355  50.241  50.268  1.00  0.00     0.156 C 
BRANCH  11  12
HETATM   12  C   UNL     1      18.685  51.384  49.531  1.00  0.00     0.223 C 
HETATM   13  N   UNL     1      17.399  51.675  49.937  1.00  0.00    -0.359 N 
HETATM   14  H   UNL     1      17.079  51.205  50.782  1.00  0.00     0.162 HD
HETATM   15  O   UNL     1      19.254  52.007  48.644  1.00  0.00    -0.273 OA
BRANCH  13  16
HETATM   16  C   UNL     1      16.822  53.013  49.749  1.00  0.00     0.150 C 
BRANCH  16  17
HETATM   17  C   UNL     1      15.465  53.309  50.423  1.00  0.00     0.254 C 
BRANCH  17  18
HETATM   18  N   UNL     1      15.432  54.686  51.066  1.00  0.00    -0.070 N 
HETATM   19  H   UNL     1      16.348  54.806  51.518  1.00  0.00     0.279 HD
HETATM   20  C   UNL     1      15.241  55.803  50.064  1.00  0.00     0.235 C 
HETATM   21  C   UNL     1      15.306  57.148  50.774  1.00  0.00     0.028 C 
HETATM   22  C   UNL     1      14.287  57.240  51.904  1.00  0.00     0.003 C 
HETATM   23  C   UNL     1      14.446  56.078  52.875  1.00  0.00     0.028 C 
HETATM   24  C   UNL     1      14.383  54.735  52.163  1.00  0.00     0.235 C 
ENDBRANCH  17  18
ENDBRANCH  16  17
ENDBRANCH  13  16
ENDBRANCH  11  12
ENDBRANCH   3  11
BRANCH   1  25
HETATM   25  C   UNL     1      18.375  48.018  48.308  1.00  0.00    -0.030 A 
HETATM   26  C   UNL     1      18.318  48.883  47.195  1.00  0.00     0.016 A 
HETATM   27  C   UNL     1      17.097  49.362  46.708  1.00  0.00    -0.061 A 
HETATM   28  C   UNL     1      17.065  50.296  45.532  1.00  0.00     0.048 C 
HETATM   29  C   UNL     1      15.922  49.019  47.381  1.00  0.00     0.007 A 
HETATM   30  C   UNL     1      15.965  48.200  48.510  1.00  0.00     0.001 A 
HETATM   31  C   UNL     1      17.182  47.698  48.974  1.00  0.00     0.009 A 
ENDBRANCH   1  25
BRANCH  10  32
HETATM   32  C   UNL     1      19.318  45.403  47.381  1.00  0.00     0.294 C 
HETATM   33  O   UNL     1      18.906  44.531  48.122  1.00  0.00    -0.259 OA
BRANCH  32  34
HETATM   34  O   UNL     1      18.926  45.698  46.122  1.00  0.00    -0.313 OA
BRANCH  34  35
HETATM   35  C   UNL     1      17.751  45.032  45.616  1.00  0.00     0.124 C 
HETATM   36  C   UNL     1      16.858  46.115  45.022  1.00  0.00     0.040 C 
HETATM   37  C   UNL     1      18.163  44.030  44.545  1.00  0.00     0.040 C 
ENDBRANCH  34  35
ENDBRANCH  32  34
ENDBRANCH  10  32
TORSDOF 9
ENDMDL
MODEL 8
REMARK VINA RESULT:      -7.2      5.442      9.808
REMARK  9 active torsions:
REMARK  status: ('A' for Active; 'I' for Inactive)
REMARK    1  A    between atoms: C_4  and  C_5 
REMARK    2  A    between atoms: C_7  and  C_8 
REMARK    3  A    between atoms: C_8  and  C_9 
REMARK       I    between atoms: C_9  and  N_10 
REMARK    4  A    between atoms: N_10  and  C_11 
REMARK    5  A    between atoms: C_11  and  C_12 
REMARK    6  A    between atoms: C_12  and  N_13 
REMARK    7  A    between atoms: C_27  and  C_28 
REMARK    8  A    between atoms: C_28  and  O_29 
REMARK    9  A    between atoms: O_29  and  C_30 
ROOT
HETATM    1  C   UNL     1      26.310  42.288  50.779  1.00  0.00     0.166 C 
HETATM    2  N   UNL     1      26.945  42.336  52.133  1.00  0.00    -0.319 N 
HETATM    3  C   UNL     1      26.750  43.029  53.216  1.00  0.00     0.011 C 
HETATM    4  C   UNL     1      28.102  41.316  52.328  1.00  0.00     0.170 C 
HETATM    5  S   UNL     1      28.761  41.361  53.928  1.00  0.00    -0.086 SA
HETATM    6  C   UNL     1      27.751  42.797  54.332  1.00  0.00     0.135 C 
HETATM    7  N   UNL     1      28.568  40.518  51.439  1.00  0.00    -0.229 NA
HETATM    8  C   UNL     1      28.054  40.566  50.169  1.00  0.00     0.048 C 
HETATM    9  C   UNL     1      28.697  39.568  49.228  1.00  0.00     0.071 C 
HETATM   10  C   UNL     1      27.051  41.397  49.821  1.00  0.00     0.069 C 
ENDROOT
BRANCH   3  11
HETATM   11  C   UNL     1      25.705  44.111  53.313  1.00  0.00     0.156 C 
BRANCH  11  12
HETATM   12  C   UNL     1      26.241  45.493  53.634  1.00  0.00     0.223 C 
HETATM   13  N   UNL     1      26.858  45.616  54.862  1.00  0.00    -0.359 N 
HETATM   14  H   UNL     1      27.029  44.748  55.366  1.00  0.00     0.162 HD
HETATM   15  O   UNL     1      26.139  46.427  52.851  1.00  0.00    -0.273 OA
BRANCH  13  16
HETATM   16  C   UNL     1      27.868  46.653  55.111  1.00  0.00     0.150 C 
BRANCH  16  17
HETATM   17  C   UNL     1      28.473  46.740  56.529  1.00  0.00     0.254 C 
BRANCH  17  18
HETATM   18  N   UNL     1      29.351  45.542  56.852  1.00  0.00    -0.070 N 
HETATM   19  H   UNL     1      28.711  44.803  57.169  1.00  0.00     0.279 HD
HETATM   20  C   UNL     1      30.120  45.031  55.654  1.00  0.00     0.235 C 
HETATM   21  C   UNL     1      30.904  43.785  56.040  1.00  0.00     0.028 C 
HETATM   22  C   UNL     1      31.832  44.044  57.220  1.00  0.00     0.003 C 
HETATM   23  C   UNL     1      31.060  44.617  58.402  1.00  0.00     0.028 C 
HETATM   24  C   UNL     1      30.275  45.861  58.014  1.00  0.00     0.235 C 
ENDBRANCH  17  18
ENDBRANCH  16  17
ENDBRANCH  13  16
ENDBRANCH  11  12
ENDBRANCH   3  11
BRANCH   1  25
HETATM   25  C   UNL     1      26.080  43.698  50.241  1.00  0.00    -0.030 A 
HETATM   26  C   UNL     1      24.770  44.094  49.899  1.00  0.00     0.016 A 
HETATM   27  C   UNL     1      24.496  45.395  49.460  1.00  0.00    -0.061 A 
HETATM   28  C   UNL     1      23.094  45.787  49.086  1.00  0.00     0.048 C 
HETATM   29  C   UNL     1      25.555  46.291  49.305  1.00  0.00     0.007 A 
HETATM   30  C   UNL     1      26.862  45.901  49.597  1.00  0.00     0.001 A 
HETATM   31  C   UNL     1      27.129  44.613  50.064  1.00  0.00     0.009 A 
ENDBRANCH   1  25
BRANCH  10  32
HETATM   32  C   UNL     1      26.575  41.456  48.420  1.00  0.00     0.294 C 
HETATM   33  O   UNL     1      27.257  41.899  47.515  1.00  0.00    -0.259 OA
BRANCH  32  34
HETATM   34  O   UNL     1      25.371  40.848  48.353  1.00  0.00    -0.313 OA
BRANCH  34  35
HETATM   35  C   UNL     1      24.487  41.237  47.281  1.00  0.00     0.124 C 
HETATM   36  C   UNL     1      24.394  40.043  46.337  1.00  0.00     0.040 C 
HETATM   37  C   UNL     1      23.117  41.571  47.857  1.00  0.00     0.040 C 
ENDBRANCH  34  35
ENDBRANCH  32  34
ENDBRANCH  10  32
TORSDOF 9
ENDMDL
MODEL 9
REMARK VINA RESULT:      -7.1      3.723      6.696
REMARK  9 active torsions:
REMARK  status: ('A' for Active; 'I' for Inactive)
REMARK    1  A    between atoms: C_4  and  C_5 
REMARK    2  A    between atoms: C_7  and  C_8 
REMARK    3  A    between atoms: C_8  and  C_9 
REMARK       I    between atoms: C_9  and  N_10 
REMARK    4  A    between atoms: N_10  and  C_11 
REMARK    5  A    between atoms: C_11  and  C_12 
REMARK    6  A    between atoms: C_12  and  N_13 
REMARK    7  A    between atoms: C_27  and  C_28 
REMARK    8  A    between atoms: C_28  and  O_29 
REMARK    9  A    between atoms: O_29  and  C_30 
ROOT
HETATM    1  C   UNL     1      19.758  47.372  48.670  1.00  0.00     0.166 C 
HETATM    2  N   UNL     1      20.719  48.482  48.956  1.00  0.00    -0.319 N 
HETATM    3  C   UNL     1      20.653  49.612  49.595  1.00  0.00     0.011 C 
HETATM    4  C   UNL     1      22.145  48.251  48.383  1.00  0.00     0.170 C 
HETATM    5  S   UNL     1      23.239  49.527  48.795  1.00  0.00    -0.086 SA
HETATM    6  C   UNL     1      21.893  50.483  49.517  1.00  0.00     0.135 C 
HETATM    7  N   UNL     1      22.523  47.256  47.667  1.00  0.00    -0.229 NA
HETATM    8  C   UNL     1      21.602  46.304  47.315  1.00  0.00     0.048 C 
HETATM    9  C   UNL     1      22.190  45.190  46.473  1.00  0.00     0.071 C 
HETATM   10  C   UNL     1      20.317  46.350  47.718  1.00  0.00     0.069 C 
ENDROOT
BRANCH   3  11
HETATM   11  C   UNL     1      19.385  50.112  50.239  1.00  0.00     0.156 C 
BRANCH  11  12
HETATM   12  C   UNL     1      18.770  51.332  49.581  1.00  0.00     0.223 C 
HETATM   13  N   UNL     1      17.430  51.531  49.843  1.00  0.00    -0.359 N 
HETATM   14  H   UNL     1      17.021  50.938  50.563  1.00  0.00     0.162 HD
HETATM   15  O   UNL     1      19.424  52.088  48.876  1.00  0.00    -0.273 OA
BRANCH  13  16
HETATM   16  C   UNL     1      16.825  52.868  49.764  1.00  0.00     0.150 C 
BRANCH  16  17
HETATM   17  C   UNL     1      15.334  52.958  49.374  1.00  0.00     0.254 C 
BRANCH  17  18
HETATM   18  N   UNL     1      15.131  53.663  48.043  1.00  0.00    -0.070 N 
HETATM   19  H   UNL     1      15.950  54.272  47.920  1.00  0.00     0.279 HD
HETATM   20  C   UNL     1      15.061  52.708  46.871  1.00  0.00     0.235 C 
HETATM   21  C   UNL     1      14.944  53.494  45.573  1.00  0.00     0.028 C 
HETATM   22  C   UNL     1      13.746  54.434  45.589  1.00  0.00     0.003 C 
HETATM   23  C   UNL     1      13.790  55.351  46.805  1.00  0.00     0.028 C 
HETATM   24  C   UNL     1      13.910  54.564  48.101  1.00  0.00     0.235 C 
ENDBRANCH  17  18
ENDBRANCH  16  17
ENDBRANCH  13  16
ENDBRANCH  11  12
ENDBRANCH   3  11
BRANCH   1  25
HETATM   25  C   UNL     1      18.405  47.928  48.234  1.00  0.00    -0.030 A 
HETATM   26  C   UNL     1      18.339  48.751  47.091  1.00  0.00     0.016 A 
HETATM   27  C   UNL     1      17.116  49.236  46.613  1.00  0.00    -0.061 A 
HETATM   28  C   UNL     1      17.074  50.124  45.403  1.00  0.00     0.048 C 
HETATM   29  C   UNL     1      15.951  48.942  47.325  1.00  0.00     0.007 A 
HETATM   30  C   UNL     1      16.005  48.166  48.483  1.00  0.00     0.001 A 
HETATM   31  C   UNL     1      17.222  47.658  48.939  1.00  0.00     0.009 A 
ENDBRANCH   1  25
BRANCH  10  32
HETATM   32  C   UNL     1      19.347  45.332  47.257  1.00  0.00     0.294 C 
HETATM   33  O   UNL     1      19.007  44.390  47.949  1.00  0.00    -0.259 OA
BRANCH  32  34
HETATM   34  O   UNL     1      18.866  45.714  46.053  1.00  0.00    -0.313 OA
BRANCH  34  35
HETATM   35  C   UNL     1      17.908  44.848  45.412  1.00  0.00     0.124 C 
HETATM   36  C   UNL     1      16.746  45.732  44.973  1.00  0.00     0.040 C 
HETATM   37  C   UNL     1      18.561  44.183  44.207  1.00  0.00     0.040 C 
ENDBRANCH  34  35
ENDBRANCH  32  34
ENDBRANCH  10  32
TORSDOF 9
ENDMDL
MODEL 10
REMARK VINA RESULT:      -7.0      2.395      8.080
REMARK  9 active torsions:
REMARK  status: ('A' for Active; 'I' for Inactive)
REMARK    1  A    between atoms: C_4  and  C_5 
REMARK    2  A    between atoms: C_7  and  C_8 
REMARK    3  A    between atoms: C_8  and  C_9 
REMARK       I    between atoms: C_9  and  N_10 
REMARK    4  A    between atoms: N_10  and  C_11 
REMARK    5  A    between atoms: C_11  and  C_12 
REMARK    6  A    between atoms: C_12  and  N_13 
REMARK    7  A    between atoms: C_27  and  C_28 
REMARK    8  A    between atoms: C_28  and  O_29 
REMARK    9  A    between atoms: O_29  and  C_30 
ROOT
HETATM    1  C   UNL     1      19.541  48.156  47.221  1.00  0.00     0.166 C 
HETATM    2  N   UNL     1      20.019  49.211  48.168  1.00  0.00    -0.319 N 
HETATM    3  C   UNL     1      21.183  49.662  48.529  1.00  0.00     0.011 C 
HETATM    4  C   UNL     1      18.878  49.978  48.893  1.00  0.00     0.170 C 
HETATM    5  S   UNL     1      19.474  51.232  49.926  1.00  0.00    -0.086 SA
HETATM    6  C   UNL     1      21.171  50.695  49.641  1.00  0.00     0.135 C 
HETATM    7  N   UNL     1      17.621  49.744  48.790  1.00  0.00    -0.229 NA
HETATM    8  C   UNL     1      17.203  48.698  48.007  1.00  0.00     0.048 C 
HETATM    9  C   UNL     1      15.696  48.542  47.976  1.00  0.00     0.071 C 
HETATM   10  C   UNL     1      18.058  47.922  47.312  1.00  0.00     0.069 C 
ENDROOT
BRANCH   3  11
HETATM   11  C   UNL     1      22.477  49.092  48.005  1.00  0.00     0.156 C 
BRANCH  11  12
HETATM   12  C   UNL     1      23.557  48.888  49.049  1.00  0.00     0.223 C 
HETATM   13  N   UNL     1      23.485  47.703  49.750  1.00  0.00    -0.359 N 
HETATM   14  H   UNL     1      22.816  47.018  49.404  1.00  0.00     0.162 HD
HETATM   15  O   UNL     1      24.436  49.718  49.244  1.00  0.00    -0.273 OA
BRANCH  13  16
HETATM   16  C   UNL     1      24.677  47.105  50.368  1.00  0.00     0.150 C 
BRANCH  16  17
HETATM   17  C   UNL     1      24.530  45.705  51.001  1.00  0.00     0.254 C 
BRANCH  17  18
HETATM   18  N   UNL     1      25.121  45.643  52.400  1.00  0.00    -0.070 N 
HETATM   19  H   UNL     1      24.328  45.473  53.032  1.00  0.00     0.279 HD
HETATM   20  C   UNL     1      26.121  44.519  52.571  1.00  0.00     0.235 C 
HETATM   21  C   UNL     1      26.599  44.471  54.015  1.00  0.00     0.028 C 
HETATM   22  C   UNL     1      27.187  45.805  54.459  1.00  0.00     0.003 C 
HETATM   23  C   UNL     1      26.198  46.940  54.227  1.00  0.00     0.028 C 
HETATM   24  C   UNL     1      25.720  46.984  52.783  1.00  0.00     0.235 C 
ENDBRANCH  17  18
ENDBRANCH  16  17
ENDBRANCH  13  16
ENDBRANCH  11  12
ENDBRANCH   3  11
BRANCH   1  25
HETATM   25  C   UNL     1      20.366  46.881  47.373  1.00  0.00    -0.030 A 
HETATM   26  C   UNL     1      21.093  46.399  46.265  1.00  0.00     0.016 A 
HETATM   27  C   UNL     1      21.913  45.270  46.368  1.00  0.00    -0.061 A 
HETATM   28  C   UNL     1      22.664  44.768  45.168  1.00  0.00     0.048 C 
HETATM   29  C   UNL     1      21.959  44.579  47.581  1.00  0.00     0.007 A 
HETATM   30  C   UNL     1      21.211  45.017  48.674  1.00  0.00     0.001 A 
HETATM   31  C   UNL     1      20.418  46.161  48.578  1.00  0.00     0.009 A 
ENDBRANCH   1  25
BRANCH  10  32
HETATM   32  C   UNL     1      17.561  46.765  46.533  1.00  0.00     0.294 C 
HETATM   33  O   UNL     1      17.307  45.692  47.046  1.00  0.00    -0.259 OA
BRANCH  32  34
HETATM   34  O   UNL     1      17.349  47.167  45.261  1.00  0.00    -0.313 OA
BRANCH  34  35
HETATM   35  C   UNL     1      16.140  46.720  44.613  1.00  0.00     0.124 C 
HETATM   36  C   UNL     1      15.497  47.954  43.990  1.00  0.00     0.040 C 
HETATM   37  C   UNL     1      16.494  45.701  43.538  1.00  0.00     0.040 C 
ENDBRANCH  34  35
ENDBRANCH  32  34
ENDBRANCH  10  32
TORSDOF 9
ENDMDL
