MODEL 1
REMARK VINA RESULT:      -9.1      0.000      0.000
REMARK  8 active torsions:
REMARK  status: ('A' for Active; 'I' for Inactive)
REMARK    1  A    between atoms: N_3  and  C_4 
REMARK    2  A    between atoms: C_7  and  O_8 
REMARK    3  A    between atoms: C_13  and  C_14 
REMARK    4  A    between atoms: N_15  and  N_16 
REMARK       I    between atoms: N_16  and  C_17 
REMARK    5  A    between atoms: C_17  and  C_18 
REMARK    6  A    between atoms: C_18  and  O_19 
REMARK    7  A    between atoms: C_18  and  C_20 
REMARK    8  A    between atoms: C_18  and  C_26 
ROOT
HETATM    1  N   UNL     1      24.781  45.825  49.920  1.00  0.00    -0.244 N 
HETATM    2  C   UNL     1      24.958  45.011  51.036  1.00  0.00     0.282 C 
HETATM    3  O   UNL     1      24.049  44.626  51.780  1.00  0.00    -0.268 OA
HETATM    4  H   UNL     1      25.600  46.253  49.497  1.00  0.00     0.192 HD
ENDROOT
BRANCH   1   5
HETATM    5  N   UNL     1      23.602  46.346  49.454  1.00  0.00    -0.184 NA
HETATM    6  C   UNL     1      23.521  47.611  49.193  1.00  0.00     0.152 C 
BRANCH   6   7
HETATM    7  C   UNL     1      22.249  48.136  48.726  1.00  0.00     0.008 A 
HETATM    8  C   UNL     1      21.686  49.354  49.090  1.00  0.00     0.025 A 
HETATM    9  N   UNL     1      20.423  49.453  48.500  1.00  0.00    -0.319 N 
HETATM   10  C   UNL     1      22.308  50.445  49.903  1.00  0.00     0.070 C 
HETATM   11  C   UNL     1      20.235  48.335  47.694  1.00  0.00     0.014 A 
HETATM   12  C   UNL     1      18.990  48.023  46.934  1.00  0.00     0.068 C 
HETATM   13  C   UNL     1      21.346  47.526  47.823  1.00  0.00     0.040 A 
BRANCH   9  14
HETATM   14  C   UNL     1      19.473  50.495  48.721  1.00  0.00     0.039 A 
HETATM   15  C   UNL     1      19.576  51.698  48.007  1.00  0.00     0.033 A 
HETATM   16  C   UNL     1      18.663  52.731  48.235  1.00  0.00     0.039 A 
HETATM   17  C   UNL     1      17.649  52.555  49.171  1.00  0.00     0.065 A 
HETATM   18  C   UNL     1      17.535  51.366  49.882  1.00  0.00     0.039 A 
HETATM   19  C   UNL     1      18.447  50.332  49.660  1.00  0.00     0.033 A 
BRANCH  17  20
HETATM   20  O   UNL     1      16.739  53.537  49.426  1.00  0.00    -0.361 OA
HETATM   21  H   UNL     1      16.654  53.639  50.389  1.00  0.00     0.217 HD
ENDBRANCH  17  20
ENDBRANCH   9  14
ENDBRANCH   6   7
ENDBRANCH   1   5
BRANCH   2  22
HETATM   22  C   UNL     1      26.451  44.631  51.348  1.00  0.00     0.195 C 
BRANCH  22  23
HETATM   23  O   UNL     1      27.254  45.251  50.317  1.00  0.00    -0.371 OA
HETATM   24  H   UNL     1      26.830  44.991  49.475  1.00  0.00     0.212 HD
ENDBRANCH  22  23
BRANCH  22  25
HETATM   25  C   UNL     1      26.881  45.234  52.699  1.00  0.00    -0.010 A 
HETATM   26  C   UNL     1      27.605  44.491  53.652  1.00  0.00     0.011 A 
HETATM   27  C   UNL     1      27.933  45.041  54.894  1.00  0.00     0.001 A 
HETATM   28  C   UNL     1      27.545  46.341  55.207  1.00  0.00     0.000 A 
HETATM   29  C   UNL     1      26.828  47.093  54.282  1.00  0.00     0.001 A 
HETATM   30  C   UNL     1      26.494  46.544  53.042  1.00  0.00     0.011 A 
ENDBRANCH  22  25
BRANCH  22  31
HETATM   31  C   UNL     1      26.750  43.130  51.202  1.00  0.00    -0.010 A 
HETATM   32  C   UNL     1      25.806  42.198  50.735  1.00  0.00     0.011 A 
HETATM   33  C   UNL     1      26.129  40.842  50.628  1.00  0.00     0.001 A 
HETATM   34  C   UNL     1      27.399  40.390  50.979  1.00  0.00     0.000 A 
HETATM   35  C   UNL     1      28.355  41.295  51.427  1.00  0.00     0.001 A 
HETATM   36  C   UNL     1      28.036  42.650  51.531  1.00  0.00     0.011 A 
ENDBRANCH  22  31
ENDBRANCH   2  22
TORSDOF 8
ENDMDL
MODEL 2
REMARK VINA RESULT:      -9.1      0.084      1.192
REMARK  8 active torsions:
REMARK  status: ('A' for Active; 'I' for Inactive)
REMARK    1  A    between atoms: N_3  and  C_4 
REMARK    2  A    between atoms: C_7  and  O_8 
REMARK    3  A    between atoms: C_13  and  C_14 
REMARK    4  A    between atoms: N_15  and  N_16 
REMARK       I    between atoms: N_16  and  C_17 
REMARK    5  A    between atoms: C_17  and  C_18 
REMARK    6  A    between atoms: C_18  and  O_19 
REMARK    7  A    between atoms: C_18  and  C_20 
REMARK    8  A    between atoms: C_18  and  C_26 
ROOT
HETATM    1  N   UNL     1      24.780  45.853  50.027  1.00  0.00    -0.244 N 
HETATM    2  C   UNL     1      24.952  44.986  51.103  1.00  0.00     0.282 C 
HETATM    3  O   UNL     1      24.037  44.551  51.811  1.00  0.00    -0.268 OA
HETATM    4  H   UNL     1      25.599  46.314  49.640  1.00  0.00     0.192 HD
ENDROOT
BRANCH   1   5
HETATM    5  N   UNL     1      23.601  46.378  49.566  1.00  0.00    -0.184 NA
HETATM    6  C   UNL     1      23.558  47.613  49.183  1.00  0.00     0.152 C 
BRANCH   6   7
HETATM    7  C   UNL     1      22.286  48.147  48.726  1.00  0.00     0.008 A 
HETATM    8  C   UNL     1      21.729  49.365  49.101  1.00  0.00     0.025 A 
HETATM    9  N   UNL     1      20.464  49.473  48.518  1.00  0.00    -0.319 N 
HETATM   10  C   UNL     1      22.361  50.447  49.918  1.00  0.00     0.070 C 
HETATM   11  C   UNL     1      20.268  48.361  47.705  1.00  0.00     0.014 A 
HETATM   12  C   UNL     1      19.017  48.060  46.949  1.00  0.00     0.068 C 
HETATM   13  C   UNL     1      21.376  47.547  47.823  1.00  0.00     0.040 A 
BRANCH   9  14
HETATM   14  C   UNL     1      19.520  50.517  48.751  1.00  0.00     0.039 A 
HETATM   15  C   UNL     1      18.490  50.332  49.685  1.00  0.00     0.033 A 
HETATM   16  C   UNL     1      17.548  51.342  49.902  1.00  0.00     0.039 A 
HETATM   17  C   UNL     1      17.643  52.532  49.188  1.00  0.00     0.065 A 
HETATM   18  C   UNL     1      18.662  52.729  48.263  1.00  0.00     0.039 A 
HETATM   19  C   UNL     1      19.604  51.721  48.041  1.00  0.00     0.033 A 
BRANCH  17  20
HETATM   20  O   UNL     1      16.745  53.542  49.367  1.00  0.00    -0.361 OA
HETATM   21  H   UNL     1      16.072  53.250  50.004  1.00  0.00     0.217 HD
ENDBRANCH  17  20
ENDBRANCH   9  14
ENDBRANCH   6   7
ENDBRANCH   1   5
BRANCH   2  22
HETATM   22  C   UNL     1      26.445  44.615  51.422  1.00  0.00     0.195 C 
BRANCH  22  23
HETATM   23  O   UNL     1      27.251  45.252  50.404  1.00  0.00    -0.371 OA
HETATM   24  H   UNL     1      26.695  45.978  50.059  1.00  0.00     0.212 HD
ENDBRANCH  22  23
BRANCH  22  25
HETATM   25  C   UNL     1      26.861  45.207  52.782  1.00  0.00    -0.010 A 
HETATM   26  C   UNL     1      26.504  46.515  53.168  1.00  0.00     0.011 A 
HETATM   27  C   UNL     1      26.942  47.052  54.381  1.00  0.00     0.001 A 
HETATM   28  C   UNL     1      27.744  46.295  55.231  1.00  0.00     0.000 A 
HETATM   29  C   UNL     1      28.110  45.002  54.871  1.00  0.00     0.001 A 
HETATM   30  C   UNL     1      27.678  44.465  53.656  1.00  0.00     0.011 A 
ENDBRANCH  22  25
BRANCH  22  31
HETATM   31  C   UNL     1      26.757  43.118  51.263  1.00  0.00    -0.010 A 
HETATM   32  C   UNL     1      25.815  42.179  50.807  1.00  0.00     0.011 A 
HETATM   33  C   UNL     1      26.150  40.826  50.686  1.00  0.00     0.001 A 
HETATM   34  C   UNL     1      27.429  40.386  51.014  1.00  0.00     0.000 A 
HETATM   35  C   UNL     1      28.384  41.297  51.452  1.00  0.00     0.001 A 
HETATM   36  C   UNL     1      28.053  42.649  51.569  1.00  0.00     0.011 A 
ENDBRANCH  22  31
ENDBRANCH   2  22
TORSDOF 8
ENDMDL
MODEL 3
REMARK VINA RESULT:      -9.1      2.390      4.227
REMARK  8 active torsions:
REMARK  status: ('A' for Active; 'I' for Inactive)
REMARK    1  A    between atoms: N_3  and  C_4 
REMARK    2  A    between atoms: C_7  and  O_8 
REMARK    3  A    between atoms: C_13  and  C_14 
REMARK    4  A    between atoms: N_15  and  N_16 
REMARK       I    between atoms: N_16  and  C_17 
REMARK    5  A    between atoms: C_17  and  C_18 
REMARK    6  A    between atoms: C_18  and  O_19 
REMARK    7  A    between atoms: C_18  and  C_20 
REMARK    8  A    between atoms: C_18  and  C_26 
ROOT
HETATM    1  N   UNL     1      22.938  47.650  49.493  1.00  0.00    -0.244 N 
HETATM    2  C   UNL     1      23.640  46.459  49.335  1.00  0.00     0.282 C 
HETATM    3  O   UNL     1      23.164  45.415  48.874  1.00  0.00    -0.268 OA
HETATM    4  H   UNL     1      23.349  48.383  50.065  1.00  0.00     0.192 HD
ENDROOT
BRANCH   1   5
HETATM    5  N   UNL     1      21.623  47.884  49.185  1.00  0.00    -0.184 NA
HETATM    6  C   UNL     1      21.169  49.095  49.198  1.00  0.00     0.152 C 
BRANCH   6   7
HETATM    7  C   UNL     1      19.763  49.306  48.893  1.00  0.00     0.008 A 
HETATM    8  C   UNL     1      19.144  50.536  48.703  1.00  0.00     0.025 A 
HETATM    9  N   UNL     1      17.776  50.321  48.519  1.00  0.00    -0.319 N 
HETATM   10  C   UNL     1      19.790  51.883  48.618  1.00  0.00     0.070 C 
HETATM   11  C   UNL     1      17.553  48.948  48.505  1.00  0.00     0.014 A 
HETATM   12  C   UNL     1      16.217  48.295  48.396  1.00  0.00     0.068 C 
HETATM   13  C   UNL     1      18.761  48.319  48.730  1.00  0.00     0.040 A 
BRANCH   9  14
HETATM   14  C   UNL     1      16.775  51.333  48.412  1.00  0.00     0.039 A 
HETATM   15  C   UNL     1      16.245  51.917  49.571  1.00  0.00     0.033 A 
HETATM   16  C   UNL     1      15.248  52.893  49.474  1.00  0.00     0.039 A 
HETATM   17  C   UNL     1      14.790  53.281  48.219  1.00  0.00     0.065 A 
HETATM   18  C   UNL     1      15.311  52.712  47.063  1.00  0.00     0.039 A 
HETATM   19  C   UNL     1      16.305  51.735  47.156  1.00  0.00     0.033 A 
BRANCH  17  20
HETATM   20  O   UNL     1      13.818  54.227  48.078  1.00  0.00    -0.361 OA
HETATM   21  H   UNL     1      13.070  53.990  48.651  1.00  0.00     0.217 HD
ENDBRANCH  17  20
ENDBRANCH   9  14
ENDBRANCH   6   7
ENDBRANCH   1   5
BRANCH   2  22
HETATM   22  C   UNL     1      25.126  46.493  49.847  1.00  0.00     0.195 C 
BRANCH  22  23
HETATM   23  O   UNL     1      25.813  45.409  49.179  1.00  0.00    -0.371 OA
HETATM   24  H   UNL     1      25.558  44.605  49.674  1.00  0.00     0.212 HD
ENDBRANCH  22  23
BRANCH  22  25
HETATM   25  C   UNL     1      25.805  47.807  49.419  1.00  0.00    -0.010 A 
HETATM   26  C   UNL     1      25.074  48.886  48.884  1.00  0.00     0.011 A 
HETATM   27  C   UNL     1      25.719  50.047  48.448  1.00  0.00     0.001 A 
HETATM   28  C   UNL     1      27.104  50.152  48.539  1.00  0.00     0.000 A 
HETATM   29  C   UNL     1      27.847  49.098  49.063  1.00  0.00     0.001 A 
HETATM   30  C   UNL     1      27.205  47.935  49.494  1.00  0.00     0.011 A 
ENDBRANCH  22  25
BRANCH  22  31
HETATM   31  C   UNL     1      25.272  46.162  51.341  1.00  0.00    -0.010 A 
HETATM   32  C   UNL     1      25.098  44.869  51.865  1.00  0.00     0.011 A 
HETATM   33  C   UNL     1      25.236  44.624  53.235  1.00  0.00     0.001 A 
HETATM   34  C   UNL     1      25.554  45.663  54.107  1.00  0.00     0.000 A 
HETATM   35  C   UNL     1      25.746  46.948  53.611  1.00  0.00     0.001 A 
HETATM   36  C   UNL     1      25.613  47.193  52.243  1.00  0.00     0.011 A 
ENDBRANCH  22  31
ENDBRANCH   2  22
TORSDOF 8
ENDMDL
MODEL 4
REMARK VINA RESULT:      -8.9      1.867      2.964
REMARK  8 active torsions:
REMARK  status: ('A' for Active; 'I' for Inactive)
REMARK    1  A    between atoms: N_3  and  C_4 
REMARK    2  A    between atoms: C_7  and  O_8 
REMARK    3  A    between atoms: C_13  and  C_14 
REMARK    4  A    between atoms: N_15  and  N_16 
REMARK       I    between atoms: N_16  and  C_17 
REMARK    5  A    between atoms: C_17  and  C_18 
REMARK    6  A    between atoms: C_18  and  O_19 
REMARK    7  A    between atoms: C_18  and  C_20 
REMARK    8  A    between atoms: C_18  and  C_26 
ROOT
HETATM    1  N   UNL     1      25.055  45.648  50.054  1.00  0.00    -0.244 N 
HETATM    2  C   UNL     1      25.220  44.491  50.811  1.00  0.00     0.282 C 
HETATM    3  O   UNL     1      24.341  43.973  51.509  1.00  0.00    -0.268 OA
HETATM    4  H   UNL     1      25.882  46.107  49.684  1.00  0.00     0.192 HD
ENDROOT
BRANCH   1   5
HETATM    5  N   UNL     1      23.923  46.413  49.949  1.00  0.00    -0.184 NA
HETATM    6  C   UNL     1      23.333  46.527  48.803  1.00  0.00     0.152 C 
BRANCH   6   7
HETATM    7  C   UNL     1      22.151  47.369  48.719  1.00  0.00     0.008 A 
HETATM    8  C   UNL     1      20.855  46.934  48.465  1.00  0.00     0.025 A 
HETATM    9  N   UNL     1      20.020  48.051  48.377  1.00  0.00    -0.319 N 
HETATM   10  C   UNL     1      20.364  45.524  48.374  1.00  0.00     0.070 C 
HETATM   11  C   UNL     1      20.780  49.180  48.665  1.00  0.00     0.014 A 
HETATM   12  C   UNL     1      20.282  50.586  48.618  1.00  0.00     0.068 C 
HETATM   13  C   UNL     1      22.082  48.774  48.879  1.00  0.00     0.040 A 
BRANCH   9  14
HETATM   14  C   UNL     1      18.641  48.041  48.010  1.00  0.00     0.039 A 
HETATM   15  C   UNL     1      17.658  47.869  48.995  1.00  0.00     0.033 A 
HETATM   16  C   UNL     1      16.306  47.837  48.639  1.00  0.00     0.039 A 
HETATM   17  C   UNL     1      15.945  47.979  47.304  1.00  0.00     0.065 A 
HETATM   18  C   UNL     1      16.911  48.154  46.320  1.00  0.00     0.039 A 
HETATM   19  C   UNL     1      18.263  48.184  46.669  1.00  0.00     0.033 A 
BRANCH  17  20
HETATM   20  O   UNL     1      14.639  47.951  46.913  1.00  0.00    -0.361 OA
HETATM   21  H   UNL     1      14.551  48.459  46.089  1.00  0.00     0.217 HD
ENDBRANCH  17  20
ENDBRANCH   9  14
ENDBRANCH   6   7
ENDBRANCH   1   5
BRANCH   2  22
HETATM   22  C   UNL     1      26.667  43.877  50.775  1.00  0.00     0.195 C 
BRANCH  22  23
HETATM   23  O   UNL     1      27.401  44.623  49.776  1.00  0.00    -0.371 OA
HETATM   24  H   UNL     1      27.882  45.311  50.277  1.00  0.00     0.212 HD
ENDBRANCH  22  23
BRANCH  22  25
HETATM   25  C   UNL     1      27.370  44.095  52.128  1.00  0.00    -0.010 A 
HETATM   26  C   UNL     1      26.879  45.002  53.088  1.00  0.00     0.011 A 
HETATM   27  C   UNL     1      27.566  45.227  54.283  1.00  0.00     0.001 A 
HETATM   28  C   UNL     1      28.755  44.551  54.543  1.00  0.00     0.000 A 
HETATM   29  C   UNL     1      29.260  43.651  53.609  1.00  0.00     0.001 A 
HETATM   30  C   UNL     1      28.578  43.429  52.411  1.00  0.00     0.011 A 
ENDBRANCH  22  25
BRANCH  22  31
HETATM   31  C   UNL     1      26.710  42.427  50.266  1.00  0.00    -0.010 A 
HETATM   32  C   UNL     1      26.352  41.322  51.057  1.00  0.00     0.011 A 
HETATM   33  C   UNL     1      26.416  40.022  50.546  1.00  0.00     0.001 A 
HETATM   34  C   UNL     1      26.834  39.800  49.236  1.00  0.00     0.000 A 
HETATM   35  C   UNL     1      27.178  40.879  48.428  1.00  0.00     0.001 A 
HETATM   36  C   UNL     1      27.110  42.177  48.936  1.00  0.00     0.011 A 
ENDBRANCH  22  31
ENDBRANCH   2  22
TORSDOF 8
ENDMDL
MODEL 5
REMARK VINA RESULT:      -8.9      6.083     10.813
REMARK  8 active torsions:
REMARK  status: ('A' for Active; 'I' for Inactive)
REMARK    1  A    between atoms: N_3  and  C_4 
REMARK    2  A    between atoms: C_7  and  O_8 
REMARK    3  A    between atoms: C_13  and  C_14 
REMARK    4  A    between atoms: N_15  and  N_16 
REMARK       I    between atoms: N_16  and  C_17 
REMARK    5  A    between atoms: C_17  and  C_18 
REMARK    6  A    between atoms: C_18  and  O_19 
REMARK    7  A    between atoms: C_18  and  C_20 
REMARK    8  A    between atoms: C_18  and  C_26 
ROOT
HETATM    1  N   UNL     1      27.279  41.620  52.347  1.00  0.00    -0.244 N 
HETATM    2  C   UNL     1      28.119  42.703  52.598  1.00  0.00     0.282 C 
HETATM    3  O   UNL     1      29.186  42.918  52.013  1.00  0.00    -0.268 OA
HETATM    4  H   UNL     1      26.538  41.417  53.012  1.00  0.00     0.192 HD
ENDROOT
BRANCH   1   5
HETATM    5  N   UNL     1      27.474  40.615  51.437  1.00  0.00    -0.184 NA
HETATM    6  C   UNL     1      26.714  40.541  50.392  1.00  0.00     0.152 C 
BRANCH   6   7
HETATM    7  C   UNL     1      26.930  39.446  49.461  1.00  0.00     0.008 A 
HETATM    8  C   UNL     1      27.631  39.520  48.262  1.00  0.00     0.025 A 
HETATM    9  N   UNL     1      27.538  38.285  47.616  1.00  0.00    -0.319 N 
HETATM   10  C   UNL     1      28.434  40.669  47.741  1.00  0.00     0.070 C 
HETATM   11  C   UNL     1      26.852  37.411  48.455  1.00  0.00     0.014 A 
HETATM   12  C   UNL     1      26.484  36.006  48.115  1.00  0.00     0.068 C 
HETATM   13  C   UNL     1      26.480  38.110  49.585  1.00  0.00     0.040 A 
BRANCH   9  14
HETATM   14  C   UNL     1      28.019  37.984  46.307  1.00  0.00     0.039 A 
HETATM   15  C   UNL     1      27.330  38.462  45.183  1.00  0.00     0.033 A 
HETATM   16  C   UNL     1      27.784  38.153  43.897  1.00  0.00     0.039 A 
HETATM   17  C   UNL     1      28.924  37.372  43.742  1.00  0.00     0.065 A 
HETATM   18  C   UNL     1      29.618  36.897  44.849  1.00  0.00     0.039 A 
HETATM   19  C   UNL     1      29.167  37.201  46.136  1.00  0.00     0.033 A 
BRANCH  17  20
HETATM   20  O   UNL     1      29.400  37.045  42.507  1.00  0.00    -0.361 OA
HETATM   21  H   UNL     1      28.648  36.956  41.899  1.00  0.00     0.217 HD
ENDBRANCH  17  20
ENDBRANCH   9  14
ENDBRANCH   6   7
ENDBRANCH   1   5
BRANCH   2  22
HETATM   22  C   UNL     1      27.645  43.653  53.757  1.00  0.00     0.195 C 
BRANCH  22  23
HETATM   23  O   UNL     1      26.654  42.916  54.510  1.00  0.00    -0.371 OA
HETATM   24  H   UNL     1      26.850  43.113  55.448  1.00  0.00     0.212 HD
ENDBRANCH  22  23
BRANCH  22  25
HETATM   25  C   UNL     1      28.819  43.957  54.707  1.00  0.00    -0.010 A 
HETATM   26  C   UNL     1      29.000  45.228  55.287  1.00  0.00     0.011 A 
HETATM   27  C   UNL     1      30.105  45.498  56.099  1.00  0.00     0.001 A 
HETATM   28  C   UNL     1      31.048  44.504  56.347  1.00  0.00     0.000 A 
HETATM   29  C   UNL     1      30.891  43.241  55.784  1.00  0.00     0.001 A 
HETATM   30  C   UNL     1      29.790  42.972  54.967  1.00  0.00     0.011 A 
ENDBRANCH  22  25
BRANCH  22  31
HETATM   31  C   UNL     1      26.890  44.898  53.265  1.00  0.00    -0.010 A 
HETATM   32  C   UNL     1      26.418  45.904  54.128  1.00  0.00     0.011 A 
HETATM   33  C   UNL     1      25.731  47.014  53.628  1.00  0.00     0.001 A 
HETATM   34  C   UNL     1      25.505  47.145  52.260  1.00  0.00     0.000 A 
HETATM   35  C   UNL     1      25.977  46.172  51.384  1.00  0.00     0.001 A 
HETATM   36  C   UNL     1      26.667  45.065  51.882  1.00  0.00     0.011 A 
ENDBRANCH  22  31
ENDBRANCH   2  22
TORSDOF 8
ENDMDL
MODEL 6
REMARK VINA RESULT:      -8.8      4.179     10.869
REMARK  8 active torsions:
REMARK  status: ('A' for Active; 'I' for Inactive)
REMARK    1  A    between atoms: N_3  and  C_4 
REMARK    2  A    between atoms: C_7  and  O_8 
REMARK    3  A    between atoms: C_13  and  C_14 
REMARK    4  A    between atoms: N_15  and  N_16 
REMARK       I    between atoms: N_16  and  C_17 
REMARK    5  A    between atoms: C_17  and  C_18 
REMARK    6  A    between atoms: C_18  and  O_19 
REMARK    7  A    between atoms: C_18  and  C_20 
REMARK    8  A    between atoms: C_18  and  C_26 
ROOT
HETATM    1  N   UNL     1      25.824  43.592  50.756  1.00  0.00    -0.244 N 
HETATM    2  C   UNL     1      26.319  44.826  50.345  1.00  0.00     0.282 C 
HETATM    3  O   UNL     1      27.261  44.982  49.560  1.00  0.00    -0.268 OA
HETATM    4  H   UNL     1      25.192  43.563  51.552  1.00  0.00     0.192 HD
ENDROOT
BRANCH   1   5
HETATM    5  N   UNL     1      26.278  42.353  50.388  1.00  0.00    -0.184 NA
HETATM    6  C   UNL     1      27.470  41.982  50.726  1.00  0.00     0.152 C 
BRANCH   6   7
HETATM    7  C   UNL     1      27.931  40.672  50.296  1.00  0.00     0.008 A 
HETATM    8  C   UNL     1      27.572  40.027  49.117  1.00  0.00     0.025 A 
HETATM    9  N   UNL     1      28.153  38.756  49.112  1.00  0.00    -0.319 N 
HETATM   10  C   UNL     1      26.774  40.578  47.979  1.00  0.00     0.070 C 
HETATM   11  C   UNL     1      28.949  38.642  50.248  1.00  0.00     0.014 A 
HETATM   12  C   UNL     1      29.696  37.415  50.653  1.00  0.00     0.068 C 
HETATM   13  C   UNL     1      28.822  39.807  50.975  1.00  0.00     0.040 A 
BRANCH   9  14
HETATM   14  C   UNL     1      27.932  37.737  48.138  1.00  0.00     0.039 A 
HETATM   15  C   UNL     1      26.865  36.841  48.293  1.00  0.00     0.033 A 
HETATM   16  C   UNL     1      26.656  35.827  47.355  1.00  0.00     0.039 A 
HETATM   17  C   UNL     1      27.512  35.716  46.264  1.00  0.00     0.065 A 
HETATM   18  C   UNL     1      28.571  36.601  46.097  1.00  0.00     0.039 A 
HETATM   19  C   UNL     1      28.785  37.614  47.034  1.00  0.00     0.033 A 
BRANCH  17  20
HETATM   20  O   UNL     1      27.347  34.740  45.326  1.00  0.00    -0.361 OA
HETATM   21  H   UNL     1      28.024  34.854  44.638  1.00  0.00     0.217 HD
ENDBRANCH  17  20
ENDBRANCH   9  14
ENDBRANCH   6   7
ENDBRANCH   1   5
BRANCH   2  22
HETATM   22  C   UNL     1      25.621  46.072  51.002  1.00  0.00     0.195 C 
BRANCH  22  23
HETATM   23  O   UNL     1      24.212  45.754  51.086  1.00  0.00    -0.371 OA
HETATM   24  H   UNL     1      24.089  44.992  50.486  1.00  0.00     0.212 HD
ENDBRANCH  22  23
BRANCH  22  25
HETATM   25  C   UNL     1      26.138  46.273  52.439  1.00  0.00    -0.010 A 
HETATM   26  C   UNL     1      25.756  47.381  53.222  1.00  0.00     0.011 A 
HETATM   27  C   UNL     1      26.284  47.573  54.502  1.00  0.00     0.001 A 
HETATM   28  C   UNL     1      27.202  46.666  55.022  1.00  0.00     0.000 A 
HETATM   29  C   UNL     1      27.595  45.565  54.267  1.00  0.00     0.001 A 
HETATM   30  C   UNL     1      27.073  45.374  52.985  1.00  0.00     0.011 A 
ENDBRANCH  22  25
BRANCH  22  31
HETATM   31  C   UNL     1      25.668  47.337  50.130  1.00  0.00    -0.010 A 
HETATM   32  C   UNL     1      26.863  47.992  49.786  1.00  0.00     0.011 A 
HETATM   33  C   UNL     1      26.848  49.145  48.994  1.00  0.00     0.001 A 
HETATM   34  C   UNL     1      25.642  49.663  48.528  1.00  0.00     0.000 A 
HETATM   35  C   UNL     1      24.447  49.024  48.841  1.00  0.00     0.001 A 
HETATM   36  C   UNL     1      24.462  47.871  49.627  1.00  0.00     0.011 A 
ENDBRANCH  22  31
ENDBRANCH   2  22
TORSDOF 8
ENDMDL
MODEL 7
REMARK VINA RESULT:      -8.7     13.772     15.310
REMARK  8 active torsions:
REMARK  status: ('A' for Active; 'I' for Inactive)
REMARK    1  A    between atoms: N_3  and  C_4 
REMARK    2  A    between atoms: C_7  and  O_8 
REMARK    3  A    between atoms: C_13  and  C_14 
REMARK    4  A    between atoms: N_15  and  N_16 
REMARK       I    between atoms: N_16  and  C_17 
REMARK    5  A    between atoms: C_17  and  C_18 
REMARK    6  A    between atoms: C_18  and  O_19 
REMARK    7  A    between atoms: C_18  and  C_20 
REMARK    8  A    between atoms: C_18  and  C_26 
ROOT
HETATM    1  N   UNL     1      35.163  52.066  43.731  1.00  0.00    -0.244 N 
HETATM    2  C   UNL     1      36.368  52.571  43.251  1.00  0.00     0.282 C 
HETATM    3  O   UNL     1      36.541  53.023  42.114  1.00  0.00    -0.268 OA
HETATM    4  H   UNL     1      35.171  51.533  44.596  1.00  0.00     0.192 HD
ENDROOT
BRANCH   1   5
HETATM    5  N   UNL     1      33.976  51.968  43.052  1.00  0.00    -0.184 NA
HETATM    6  C   UNL     1      32.905  51.614  43.685  1.00  0.00     0.152 C 
BRANCH   6   7
HETATM    7  C   UNL     1      31.669  51.494  42.929  1.00  0.00     0.008 A 
HETATM    8  C   UNL     1      31.128  50.314  42.430  1.00  0.00     0.025 A 
HETATM    9  N   UNL     1      29.986  50.628  41.690  1.00  0.00    -0.319 N 
HETATM   10  C   UNL     1      31.597  48.916  42.677  1.00  0.00     0.070 C 
HETATM   11  C   UNL     1      29.761  51.997  41.801  1.00  0.00     0.014 A 
HETATM   12  C   UNL     1      28.676  52.749  41.108  1.00  0.00     0.068 C 
HETATM   13  C   UNL     1      30.782  52.534  42.559  1.00  0.00     0.040 A 
BRANCH   9  14
HETATM   14  C   UNL     1      29.210  49.713  40.916  1.00  0.00     0.039 A 
HETATM   15  C   UNL     1      28.088  49.093  41.485  1.00  0.00     0.033 A 
HETATM   16  C   UNL     1      27.337  48.179  40.740  1.00  0.00     0.039 A 
HETATM   17  C   UNL     1      27.709  47.893  39.431  1.00  0.00     0.065 A 
HETATM   18  C   UNL     1      28.817  48.504  38.855  1.00  0.00     0.039 A 
HETATM   19  C   UNL     1      29.572  49.416  39.596  1.00  0.00     0.033 A 
BRANCH  17  20
HETATM   20  O   UNL     1      27.007  47.006  38.670  1.00  0.00    -0.361 OA
HETATM   21  H   UNL     1      26.355  47.498  38.143  1.00  0.00     0.217 HD
ENDBRANCH  17  20
ENDBRANCH   9  14
ENDBRANCH   6   7
ENDBRANCH   1   5
BRANCH   2  22
HETATM   22  C   UNL     1      37.571  52.484  44.259  1.00  0.00     0.195 C 
BRANCH  22  23
HETATM   23  O   UNL     1      37.061  51.837  45.448  1.00  0.00    -0.371 OA
HETATM   24  H   UNL     1      37.115  50.879  45.258  1.00  0.00     0.212 HD
ENDBRANCH  22  23
BRANCH  22  25
HETATM   25  C   UNL     1      38.683  51.587  43.683  1.00  0.00    -0.010 A 
HETATM   26  C   UNL     1      38.709  50.195  43.903  1.00  0.00     0.011 A 
HETATM   27  C   UNL     1      39.760  49.410  43.420  1.00  0.00     0.001 A 
HETATM   28  C   UNL     1      40.802  49.999  42.709  1.00  0.00     0.000 A 
HETATM   29  C   UNL     1      40.797  51.372  42.480  1.00  0.00     0.001 A 
HETATM   30  C   UNL     1      39.751  52.159  42.967  1.00  0.00     0.011 A 
ENDBRANCH  22  25
BRANCH  22  31
HETATM   31  C   UNL     1      38.058  53.853  44.759  1.00  0.00    -0.010 A 
HETATM   32  C   UNL     1      38.040  55.014  43.966  1.00  0.00     0.011 A 
HETATM   33  C   UNL     1      38.502  56.234  44.469  1.00  0.00     0.001 A 
HETATM   34  C   UNL     1      38.986  56.321  45.772  1.00  0.00     0.000 A 
HETATM   35  C   UNL     1      38.999  55.191  46.582  1.00  0.00     0.001 A 
HETATM   36  C   UNL     1      38.534  53.973  46.082  1.00  0.00     0.011 A 
ENDBRANCH  22  31
ENDBRANCH   2  22
TORSDOF 8
ENDMDL
MODEL 8
REMARK VINA RESULT:      -8.6      2.376     10.461
REMARK  8 active torsions:
REMARK  status: ('A' for Active; 'I' for Inactive)
REMARK    1  A    between atoms: N_3  and  C_4 
REMARK    2  A    between atoms: C_7  and  O_8 
REMARK    3  A    between atoms: C_13  and  C_14 
REMARK    4  A    between atoms: N_15  and  N_16 
REMARK       I    between atoms: N_16  and  C_17 
REMARK    5  A    between atoms: C_17  and  C_18 
REMARK    6  A    between atoms: C_18  and  O_19 
REMARK    7  A    between atoms: C_18  and  C_20 
REMARK    8  A    between atoms: C_18  and  C_26 
ROOT
HETATM    1  N   UNL     1      20.174  49.133  48.385  1.00  0.00    -0.244 N 
HETATM    2  C   UNL     1      18.945  48.866  48.982  1.00  0.00     0.282 C 
HETATM    3  O   UNL     1      18.795  48.251  50.043  1.00  0.00    -0.268 OA
HETATM    4  H   UNL     1      20.186  49.459  47.422  1.00  0.00     0.192 HD
ENDROOT
BRANCH   1   5
HETATM    5  N   UNL     1      21.413  48.769  48.843  1.00  0.00    -0.184 NA
HETATM    6  C   UNL     1      22.454  48.974  48.103  1.00  0.00     0.152 C 
BRANCH   6   7
HETATM    7  C   UNL     1      23.751  48.551  48.607  1.00  0.00     0.008 A 
HETATM    8  C   UNL     1      24.034  47.329  49.205  1.00  0.00     0.025 A 
HETATM    9  N   UNL     1      25.365  47.341  49.631  1.00  0.00    -0.319 N 
HETATM   10  C   UNL     1      23.136  46.139  49.329  1.00  0.00     0.070 C 
HETATM   11  C   UNL     1      25.939  48.539  49.216  1.00  0.00     0.014 A 
HETATM   12  C   UNL     1      27.332  48.976  49.523  1.00  0.00     0.068 C 
HETATM   13  C   UNL     1      24.962  49.284  48.587  1.00  0.00     0.040 A 
BRANCH   9  14
HETATM   14  C   UNL     1      26.011  46.324  50.396  1.00  0.00     0.039 A 
HETATM   15  C   UNL     1      25.931  46.347  51.796  1.00  0.00     0.033 A 
HETATM   16  C   UNL     1      26.579  45.366  52.553  1.00  0.00     0.039 A 
HETATM   17  C   UNL     1      27.300  44.368  51.907  1.00  0.00     0.065 A 
HETATM   18  C   UNL     1      27.383  44.333  50.520  1.00  0.00     0.039 A 
HETATM   19  C   UNL     1      26.740  45.312  49.759  1.00  0.00     0.033 A 
BRANCH  17  20
HETATM   20  O   UNL     1      27.950  43.394  52.606  1.00  0.00    -0.361 OA
HETATM   21  H   UNL     1      27.703  42.530  52.236  1.00  0.00     0.217 HD
ENDBRANCH  17  20
ENDBRANCH   9  14
ENDBRANCH   6   7
ENDBRANCH   1   5
BRANCH   2  22
HETATM   22  C   UNL     1      17.693  49.363  48.170  1.00  0.00     0.195 C 
BRANCH  22  23
HETATM   23  O   UNL     1      16.684  48.335  48.307  1.00  0.00    -0.371 OA
HETATM   24  H   UNL     1      16.408  48.375  49.245  1.00  0.00     0.212 HD
ENDBRANCH  22  23
BRANCH  22  25
HETATM   25  C   UNL     1      17.131  50.653  48.798  1.00  0.00    -0.010 A 
HETATM   26  C   UNL     1      15.772  51.007  48.685  1.00  0.00     0.011 A 
HETATM   27  C   UNL     1      15.297  52.211  49.212  1.00  0.00     0.001 A 
HETATM   28  C   UNL     1      16.168  53.082  49.860  1.00  0.00     0.000 A 
HETATM   29  C   UNL     1      17.515  52.753  49.983  1.00  0.00     0.001 A 
HETATM   30  C   UNL     1      17.993  51.553  49.452  1.00  0.00     0.011 A 
ENDBRANCH  22  25
BRANCH  22  31
HETATM   31  C   UNL     1      17.935  49.450  46.655  1.00  0.00    -0.010 A 
HETATM   32  C   UNL     1      18.267  50.647  45.995  1.00  0.00     0.011 A 
HETATM   33  C   UNL     1      18.469  50.671  44.611  1.00  0.00     0.001 A 
HETATM   34  C   UNL     1      18.350  49.503  43.862  1.00  0.00     0.000 A 
HETATM   35  C   UNL     1      18.039  48.304  44.493  1.00  0.00     0.001 A 
HETATM   36  C   UNL     1      17.840  48.277  45.875  1.00  0.00     0.011 A 
ENDBRANCH  22  31
ENDBRANCH   2  22
TORSDOF 8
ENDMDL
MODEL 9
REMARK VINA RESULT:      -8.6      1.701      2.576
REMARK  8 active torsions:
REMARK  status: ('A' for Active; 'I' for Inactive)
REMARK    1  A    between atoms: N_3  and  C_4 
REMARK    2  A    between atoms: C_7  and  O_8 
REMARK    3  A    between atoms: C_13  and  C_14 
REMARK    4  A    between atoms: N_15  and  N_16 
REMARK       I    between atoms: N_16  and  C_17 
REMARK    5  A    between atoms: C_17  and  C_18 
REMARK    6  A    between atoms: C_18  and  O_19 
REMARK    7  A    between atoms: C_18  and  C_20 
REMARK    8  A    between atoms: C_18  and  C_26 
ROOT
HETATM    1  N   UNL     1      24.575  44.251  49.056  1.00  0.00    -0.244 N 
HETATM    2  C   UNL     1      24.970  43.411  50.094  1.00  0.00     0.282 C 
HETATM    3  O   UNL     1      24.258  43.091  51.053  1.00  0.00    -0.268 OA
HETATM    4  H   UNL     1      25.287  44.618  48.431  1.00  0.00     0.192 HD
ENDROOT
BRANCH   1   5
HETATM    5  N   UNL     1      23.361  44.870  48.908  1.00  0.00    -0.184 NA
HETATM    6  C   UNL     1      23.310  46.157  48.784  1.00  0.00     0.152 C 
BRANCH   6   7
HETATM    7  C   UNL     1      22.005  46.784  48.657  1.00  0.00     0.008 A 
HETATM    8  C   UNL     1      21.758  48.151  48.606  1.00  0.00     0.025 A 
HETATM    9  N   UNL     1      20.375  48.352  48.571  1.00  0.00    -0.319 N 
HETATM   10  C   UNL     1      22.758  49.260  48.519  1.00  0.00     0.070 C 
HETATM   11  C   UNL     1      19.761  47.105  48.509  1.00  0.00     0.014 A 
HETATM   12  C   UNL     1      18.287  46.872  48.521  1.00  0.00     0.068 C 
HETATM   13  C   UNL     1      20.748  46.141  48.558  1.00  0.00     0.040 A 
BRANCH   9  14
HETATM   14  C   UNL     1      19.708  49.612  48.635  1.00  0.00     0.039 A 
HETATM   15  C   UNL     1      19.350  50.273  47.451  1.00  0.00     0.033 A 
HETATM   16  C   UNL     1      18.716  51.518  47.506  1.00  0.00     0.039 A 
HETATM   17  C   UNL     1      18.441  52.092  48.742  1.00  0.00     0.065 A 
HETATM   18  C   UNL     1      18.787  51.444  49.922  1.00  0.00     0.039 A 
HETATM   19  C   UNL     1      19.424  50.202  49.872  1.00  0.00     0.033 A 
BRANCH  17  20
HETATM   20  O   UNL     1      17.827  53.305  48.842  1.00  0.00    -0.361 OA
HETATM   21  H   UNL     1      18.119  53.734  49.664  1.00  0.00     0.217 HD
ENDBRANCH  17  20
ENDBRANCH   9  14
ENDBRANCH   6   7
ENDBRANCH   1   5
BRANCH   2  22
HETATM   22  C   UNL     1      26.458  42.911  50.011  1.00  0.00     0.195 C 
BRANCH  22  23
HETATM   23  O   UNL     1      27.189  43.924  49.282  1.00  0.00    -0.371 OA
HETATM   24  H   UNL     1      26.562  44.669  49.186  1.00  0.00     0.212 HD
ENDBRANCH  22  23
BRANCH  22  25
HETATM   25  C   UNL     1      27.068  42.822  51.422  1.00  0.00    -0.010 A 
HETATM   26  C   UNL     1      27.477  43.967  52.133  1.00  0.00     0.011 A 
HETATM   27  C   UNL     1      28.083  43.857  53.388  1.00  0.00     0.001 A 
HETATM   28  C   UNL     1      28.291  42.603  53.955  1.00  0.00     0.000 A 
HETATM   29  C   UNL     1      27.895  41.458  53.271  1.00  0.00     0.001 A 
HETATM   30  C   UNL     1      27.296  41.565  52.015  1.00  0.00     0.011 A 
ENDBRANCH  22  25
BRANCH  22  31
HETATM   31  C   UNL     1      26.635  41.641  49.163  1.00  0.00    -0.010 A 
HETATM   32  C   UNL     1      27.881  41.209  48.674  1.00  0.00     0.011 A 
HETATM   33  C   UNL     1      27.985  40.048  47.901  1.00  0.00     0.001 A 
HETATM   34  C   UNL     1      26.852  39.294  47.606  1.00  0.00     0.000 A 
HETATM   35  C   UNL     1      25.611  39.691  48.093  1.00  0.00     0.001 A 
HETATM   36  C   UNL     1      25.506  40.848  48.868  1.00  0.00     0.011 A 
ENDBRANCH  22  31
ENDBRANCH   2  22
TORSDOF 8
ENDMDL
MODEL 10
REMARK VINA RESULT:      -8.4      4.383     10.481
REMARK  8 active torsions:
REMARK  status: ('A' for Active; 'I' for Inactive)
REMARK    1  A    between atoms: N_3  and  C_4 
REMARK    2  A    between atoms: C_7  and  O_8 
REMARK    3  A    between atoms: C_13  and  C_14 
REMARK    4  A    between atoms: N_15  and  N_16 
REMARK       I    between atoms: N_16  and  C_17 
REMARK    5  A    between atoms: C_17  and  C_18 
REMARK    6  A    between atoms: C_18  and  O_19 
REMARK    7  A    between atoms: C_18  and  C_20 
REMARK    8  A    between atoms: C_18  and  C_26 
ROOT
HETATM    1  N   UNL     1      24.825  44.234  48.711  1.00  0.00    -0.244 N 
HETATM    2  C   UNL     1      25.747  45.002  49.418  1.00  0.00     0.282 C 
HETATM    3  O   UNL     1      26.952  44.745  49.514  1.00  0.00    -0.268 OA
HETATM    4  H   UNL     1      23.834  44.407  48.860  1.00  0.00     0.192 HD
ENDROOT
BRANCH   1   5
HETATM    5  N   UNL     1      25.069  43.079  48.015  1.00  0.00    -0.184 NA
HETATM    6  C   UNL     1      25.101  41.949  48.643  1.00  0.00     0.152 C 
BRANCH   6   7
HETATM    7  C   UNL     1      25.390  40.746  47.880  1.00  0.00     0.008 A 
HETATM    8  C   UNL     1      26.654  40.297  47.511  1.00  0.00     0.025 A 
HETATM    9  N   UNL     1      26.505  39.159  46.714  1.00  0.00    -0.319 N 
HETATM   10  C   UNL     1      27.980  40.847  47.932  1.00  0.00     0.070 C 
HETATM   11  C   UNL     1      25.151  38.845  46.658  1.00  0.00     0.014 A 
HETATM   12  C   UNL     1      24.559  37.735  45.857  1.00  0.00     0.068 C 
HETATM   13  C   UNL     1      24.462  39.806  47.370  1.00  0.00     0.040 A 
BRANCH   9  14
HETATM   14  C   UNL     1      27.554  38.467  46.036  1.00  0.00     0.039 A 
HETATM   15  C   UNL     1      28.171  37.365  46.645  1.00  0.00     0.033 A 
HETATM   16  C   UNL     1      29.213  36.696  45.997  1.00  0.00     0.039 A 
HETATM   17  C   UNL     1      29.630  37.130  44.743  1.00  0.00     0.065 A 
HETATM   18  C   UNL     1      29.023  38.218  44.128  1.00  0.00     0.039 A 
HETATM   19  C   UNL     1      27.983  38.892  44.773  1.00  0.00     0.033 A 
BRANCH  17  20
HETATM   20  O   UNL     1      30.644  36.509  44.076  1.00  0.00    -0.361 OA
HETATM   21  H   UNL     1      31.286  36.177  44.727  1.00  0.00     0.217 HD
ENDBRANCH  17  20
ENDBRANCH   9  14
ENDBRANCH   6   7
ENDBRANCH   1   5
BRANCH   2  22
HETATM   22  C   UNL     1      25.138  46.241  50.170  1.00  0.00     0.195 C 
BRANCH  22  23
HETATM   23  O   UNL     1      23.711  46.199  49.936  1.00  0.00    -0.371 OA
HETATM   24  H   UNL     1      23.613  45.827  49.037  1.00  0.00     0.212 HD
ENDBRANCH  22  23
BRANCH  22  25
HETATM   25  C   UNL     1      25.365  46.105  51.687  1.00  0.00    -0.010 A 
HETATM   26  C   UNL     1      25.858  47.170  52.467  1.00  0.00     0.011 A 
HETATM   27  C   UNL     1      26.112  47.005  53.831  1.00  0.00     0.001 A 
HETATM   28  C   UNL     1      25.877  45.776  54.442  1.00  0.00     0.000 A 
HETATM   29  C   UNL     1      25.390  44.710  53.692  1.00  0.00     0.001 A 
HETATM   30  C   UNL     1      25.142  44.871  52.327  1.00  0.00     0.011 A 
ENDBRANCH  22  25
BRANCH  22  31
HETATM   31  C   UNL     1      25.573  47.594  49.584  1.00  0.00    -0.010 A 
HETATM   32  C   UNL     1      24.663  48.578  49.160  1.00  0.00     0.011 A 
HETATM   33  C   UNL     1      25.113  49.790  48.628  1.00  0.00     0.001 A 
HETATM   34  C   UNL     1      26.478  50.045  48.511  1.00  0.00     0.000 A 
HETATM   35  C   UNL     1      27.398  49.094  48.938  1.00  0.00     0.001 A 
HETATM   36  C   UNL     1      26.950  47.885  49.474  1.00  0.00     0.011 A 
ENDBRANCH  22  31
ENDBRANCH   2  22
TORSDOF 8
ENDMDL
