MODEL 1
REMARK VINA RESULT:      -8.3      0.000      0.000
REMARK  9 active torsions:
REMARK  status: ('A' for Active; 'I' for Inactive)
REMARK    1  A    between atoms: C_6  and  C_7 
REMARK    2  A    between atoms: C_7  and  C_8 
REMARK    3  A    between atoms: C_11  and  N_12 
REMARK       I    between atoms: N_12  and  C_13 
REMARK       I    between atoms: C_13  and  N_14 
REMARK    4  A    between atoms: N_14  and  C_15 
REMARK    5  A    between atoms: C_15  and  C_16 
REMARK    6  A    between atoms: C_16  and  C_17 
REMARK    7  A    between atoms: C_16  and  C_19 
REMARK    8  A    between atoms: C_17  and  O_18 
REMARK    9  A    between atoms: C_19  and  C_20 
ROOT
HETATM    1  N   UNL     1      26.590  48.664  49.141  1.00  0.00    -0.309 N 
HETATM    2  C   UNL     1      25.763  49.456  48.406  1.00  0.00     0.320 C 
HETATM    3  N   UNL     1      24.434  49.432  48.689  1.00  0.00    -0.342 N 
HETATM    4  O   UNL     1      26.246  50.191  47.546  1.00  0.00    -0.247 OA
HETATM    5  H   UNL     1      27.558  48.908  48.965  1.00  0.00     0.170 HD
HETATM    6  H   UNL     1      24.190  49.218  49.645  1.00  0.00     0.164 HD
ENDROOT
BRANCH   1   7
HETATM    7  C   UNL     1      26.371  47.545  49.965  1.00  0.00     0.036 A 
HETATM    8  C   UNL     1      25.602  47.547  51.129  1.00  0.00     0.030 A 
HETATM    9  C   UNL     1      25.422  46.371  51.868  1.00  0.00     0.010 A 
HETATM   10  C   UNL     1      25.986  45.163  51.439  1.00  0.00    -0.051 A 
HETATM   11  C   UNL     1      26.732  45.152  50.256  1.00  0.00     0.010 A 
HETATM   12  C   UNL     1      26.921  46.332  49.530  1.00  0.00     0.030 A 
BRANCH  10  13
HETATM   13  C   UNL     1      25.731  43.882  52.202  1.00  0.00     0.118 C 
BRANCH  13  14
HETATM   14  C   UNL     1      26.941  43.292  52.847  1.00  0.00     0.126 A 
HETATM   15  N   UNL     1      27.206  41.952  52.916  1.00  0.00    -0.263 N 
HETATM   16  N   UNL     1      28.356  41.709  53.563  1.00  0.00    -0.158 NA
HETATM   17  H   UNL     1      26.659  41.175  52.560  1.00  0.00     0.190 HD
HETATM   18  C   UNL     1      28.760  42.948  53.866  1.00  0.00     0.144 A 
HETATM   19  C   UNL     1      30.014  43.221  54.592  1.00  0.00     0.095 C 
HETATM   20  N   UNL     1      27.919  43.944  53.443  1.00  0.00    -0.217 NA
ENDBRANCH  13  14
ENDBRANCH  10  13
ENDBRANCH   1   7
BRANCH   3  21
HETATM   21  C   UNL     1      23.467  50.169  47.898  1.00  0.00     0.131 C 
BRANCH  21  22
HETATM   22  C   UNL     1      21.999  49.862  48.244  1.00  0.00     0.033 C 
BRANCH  22  23
HETATM   23  C   UNL     1      21.772  48.365  48.501  1.00  0.00     0.170 C 
BRANCH  23  24
HETATM   24  O   UNL     1      22.406  47.594  47.484  1.00  0.00    -0.400 OA
HETATM   25  H   UNL     1      22.335  46.658  47.739  1.00  0.00     0.209 HD
ENDBRANCH  23  24
ENDBRANCH  22  23
BRANCH  22  26
HETATM   26  C   UNL     1      21.543  50.668  49.480  1.00  0.00     0.073 C 
BRANCH  26  27
HETATM   27  C   UNL     1      20.211  51.310  49.319  1.00  0.00     0.053 A 
HETATM   28  O   UNL     1      19.247  50.952  50.212  1.00  0.00    -0.327 OA
HETATM   29  C   UNL     1      18.129  51.650  49.888  1.00  0.00     0.142 A 
HETATM   30  C   UNL     1      18.361  52.449  48.793  1.00  0.00     0.027 A 
HETATM   31  C   UNL     1      19.710  52.232  48.425  1.00  0.00     0.034 A 
ENDBRANCH  26  27
ENDBRANCH  22  26
ENDBRANCH  21  22
ENDBRANCH   3  21
TORSDOF 9
ENDMDL
MODEL 2
REMARK VINA RESULT:      -8.2      3.682      9.802
REMARK  9 active torsions:
REMARK  status: ('A' for Active; 'I' for Inactive)
REMARK    1  A    between atoms: C_6  and  C_7 
REMARK    2  A    between atoms: C_7  and  C_8 
REMARK    3  A    between atoms: C_11  and  N_12 
REMARK       I    between atoms: N_12  and  C_13 
REMARK       I    between atoms: C_13  and  N_14 
REMARK    4  A    between atoms: N_14  and  C_15 
REMARK    5  A    between atoms: C_15  and  C_16 
REMARK    6  A    between atoms: C_16  and  C_17 
REMARK    7  A    between atoms: C_16  and  C_19 
REMARK    8  A    between atoms: C_17  and  O_18 
REMARK    9  A    between atoms: C_19  and  C_20 
ROOT
HETATM    1  N   UNL     1      25.987  45.892  50.530  1.00  0.00    -0.309 N 
HETATM    2  C   UNL     1      26.302  45.555  51.809  1.00  0.00     0.320 C 
HETATM    3  N   UNL     1      25.789  46.310  52.816  1.00  0.00    -0.342 N 
HETATM    4  O   UNL     1      27.002  44.564  52.013  1.00  0.00    -0.247 OA
HETATM    5  H   UNL     1      26.271  45.156  49.893  1.00  0.00     0.170 HD
HETATM    6  H   UNL     1      24.900  46.752  52.628  1.00  0.00     0.164 HD
ENDROOT
BRANCH   1   7
HETATM    7  C   UNL     1      25.479  47.063  49.939  1.00  0.00     0.036 A 
HETATM    8  C   UNL     1      26.252  48.145  49.517  1.00  0.00     0.030 A 
HETATM    9  C   UNL     1      25.652  49.258  48.913  1.00  0.00     0.010 A 
HETATM   10  C   UNL     1      24.270  49.295  48.694  1.00  0.00    -0.051 A 
HETATM   11  C   UNL     1      23.497  48.198  49.088  1.00  0.00     0.010 A 
HETATM   12  C   UNL     1      24.098  47.097  49.704  1.00  0.00     0.030 A 
BRANCH  10  13
HETATM   13  C   UNL     1      23.636  50.467  47.978  1.00  0.00     0.118 C 
BRANCH  13  14
HETATM   14  C   UNL     1      22.175  50.636  48.235  1.00  0.00     0.126 A 
HETATM   15  N   UNL     1      21.189  50.281  47.356  1.00  0.00    -0.263 N 
HETATM   16  N   UNL     1      19.970  50.558  47.845  1.00  0.00    -0.158 NA
HETATM   17  H   UNL     1      21.274  49.865  46.435  1.00  0.00     0.190 HD
HETATM   18  C   UNL     1      20.272  51.080  49.038  1.00  0.00     0.144 A 
HETATM   19  C   UNL     1      19.243  51.546  49.987  1.00  0.00     0.095 C 
HETATM   20  N   UNL     1      21.614  51.144  49.313  1.00  0.00    -0.217 NA
ENDBRANCH  13  14
ENDBRANCH  10  13
ENDBRANCH   1   7
BRANCH   3  21
HETATM   21  C   UNL     1      26.144  46.085  54.204  1.00  0.00     0.131 C 
BRANCH  21  22
HETATM   22  C   UNL     1      27.389  46.857  54.673  1.00  0.00     0.033 C 
BRANCH  22  23
HETATM   23  C   UNL     1      27.072  48.330  54.970  1.00  0.00     0.170 C 
BRANCH  23  24
HETATM   24  O   UNL     1      25.674  48.566  54.829  1.00  0.00    -0.400 OA
HETATM   25  H   UNL     1      25.547  49.107  54.030  1.00  0.00     0.209 HD
ENDBRANCH  23  24
ENDBRANCH  22  23
BRANCH  22  26
HETATM   26  C   UNL     1      28.004  46.204  55.931  1.00  0.00     0.073 C 
BRANCH  26  27
HETATM   27  C   UNL     1      29.050  45.191  55.629  1.00  0.00     0.053 A 
HETATM   28  O   UNL     1      30.205  45.272  56.349  1.00  0.00    -0.327 OA
HETATM   29  C   UNL     1      31.008  44.265  55.921  1.00  0.00     0.142 A 
HETATM   30  C   UNL     1      30.387  43.541  54.931  1.00  0.00     0.027 A 
HETATM   31  C   UNL     1      29.117  44.138  54.742  1.00  0.00     0.034 A 
ENDBRANCH  26  27
ENDBRANCH  22  26
ENDBRANCH  21  22
ENDBRANCH   3  21
TORSDOF 9
ENDMDL
MODEL 3
REMARK VINA RESULT:      -8.0      1.675      2.417
REMARK  9 active torsions:
REMARK  status: ('A' for Active; 'I' for Inactive)
REMARK    1  A    between atoms: C_6  and  C_7 
REMARK    2  A    between atoms: C_7  and  C_8 
REMARK    3  A    between atoms: C_11  and  N_12 
REMARK       I    between atoms: N_12  and  C_13 
REMARK       I    between atoms: C_13  and  N_14 
REMARK    4  A    between atoms: N_14  and  C_15 
REMARK    5  A    between atoms: C_15  and  C_16 
REMARK    6  A    between atoms: C_16  and  C_17 
REMARK    7  A    between atoms: C_16  and  C_19 
REMARK    8  A    between atoms: C_17  and  O_18 
REMARK    9  A    between atoms: C_19  and  C_20 
ROOT
HETATM    1  N   UNL     1      24.341  47.873  49.066  1.00  0.00    -0.309 N 
HETATM    2  C   UNL     1      23.171  48.455  48.690  1.00  0.00     0.320 C 
HETATM    3  N   UNL     1      22.175  48.542  49.610  1.00  0.00    -0.342 N 
HETATM    4  O   UNL     1      23.068  48.914  47.554  1.00  0.00    -0.247 OA
HETATM    5  H   UNL     1      25.055  48.035  48.365  1.00  0.00     0.170 HD
HETATM    6  H   UNL     1      22.468  48.604  50.575  1.00  0.00     0.164 HD
ENDROOT
BRANCH   1   7
HETATM    7  C   UNL     1      24.699  47.027  50.132  1.00  0.00     0.036 A 
HETATM    8  C   UNL     1      25.449  47.415  51.243  1.00  0.00     0.030 A 
HETATM    9  C   UNL     1      25.731  46.502  52.267  1.00  0.00     0.010 A 
HETATM   10  C   UNL     1      25.241  45.191  52.213  1.00  0.00    -0.051 A 
HETATM   11  C   UNL     1      24.464  44.809  51.115  1.00  0.00     0.010 A 
HETATM   12  C   UNL     1      24.199  45.719  50.088  1.00  0.00     0.030 A 
BRANCH  10  13
HETATM   13  C   UNL     1      25.489  44.230  53.355  1.00  0.00     0.118 C 
BRANCH  13  14
HETATM   14  C   UNL     1      26.929  44.006  53.677  1.00  0.00     0.126 A 
HETATM   15  N   UNL     1      27.566  44.518  54.774  1.00  0.00    -0.263 N 
HETATM   16  N   UNL     1      28.860  44.163  54.802  1.00  0.00    -0.158 NA
HETATM   17  H   UNL     1      27.192  45.102  55.514  1.00  0.00     0.190 HD
HETATM   18  C   UNL     1      28.960  43.424  53.692  1.00  0.00     0.144 A 
HETATM   19  C   UNL     1      30.221  42.783  53.273  1.00  0.00     0.095 C 
HETATM   20  N   UNL     1      27.797  43.304  52.977  1.00  0.00    -0.217 NA
ENDBRANCH  13  14
ENDBRANCH  10  13
ENDBRANCH   1   7
BRANCH   3  21
HETATM   21  C   UNL     1      20.861  49.059  49.274  1.00  0.00     0.131 C 
BRANCH  21  22
HETATM   22  C   UNL     1      20.594  50.488  49.780  1.00  0.00     0.033 C 
BRANCH  22  23
HETATM   23  C   UNL     1      21.887  51.192  50.218  1.00  0.00     0.170 C 
BRANCH  23  24
HETATM   24  O   UNL     1      22.070  51.045  51.624  1.00  0.00    -0.400 OA
HETATM   25  H   UNL     1      21.209  51.198  52.049  1.00  0.00     0.209 HD
ENDBRANCH  23  24
ENDBRANCH  22  23
BRANCH  22  26
HETATM   26  C   UNL     1      19.893  51.335  48.696  1.00  0.00     0.073 C 
BRANCH  26  27
HETATM   27  C   UNL     1      18.454  51.589  48.972  1.00  0.00     0.053 A 
HETATM   28  O   UNL     1      17.556  50.825  48.289  1.00  0.00    -0.327 OA
HETATM   29  C   UNL     1      16.319  51.215  48.691  1.00  0.00     0.142 A 
HETATM   30  C   UNL     1      16.411  52.224  49.621  1.00  0.00     0.027 A 
HETATM   31  C   UNL     1      17.793  52.466  49.806  1.00  0.00     0.034 A 
ENDBRANCH  26  27
ENDBRANCH  22  26
ENDBRANCH  21  22
ENDBRANCH   3  21
TORSDOF 9
ENDMDL
MODEL 4
REMARK VINA RESULT:      -7.9      1.479      1.842
REMARK  9 active torsions:
REMARK  status: ('A' for Active; 'I' for Inactive)
REMARK    1  A    between atoms: C_6  and  C_7 
REMARK    2  A    between atoms: C_7  and  C_8 
REMARK    3  A    between atoms: C_11  and  N_12 
REMARK       I    between atoms: N_12  and  C_13 
REMARK       I    between atoms: C_13  and  N_14 
REMARK    4  A    between atoms: N_14  and  C_15 
REMARK    5  A    between atoms: C_15  and  C_16 
REMARK    6  A    between atoms: C_16  and  C_17 
REMARK    7  A    between atoms: C_16  and  C_19 
REMARK    8  A    between atoms: C_17  and  O_18 
REMARK    9  A    between atoms: C_19  and  C_20 
ROOT
HETATM    1  N   UNL     1      24.846  48.261  49.271  1.00  0.00    -0.309 N 
HETATM    2  C   UNL     1      23.801  48.980  48.781  1.00  0.00     0.320 C 
HETATM    3  N   UNL     1      22.651  49.012  49.504  1.00  0.00    -0.342 N 
HETATM    4  O   UNL     1      23.942  49.603  47.730  1.00  0.00    -0.247 OA
HETATM    5  H   UNL     1      25.689  48.466  48.746  1.00  0.00     0.170 HD
HETATM    6  H   UNL     1      22.755  48.913  50.504  1.00  0.00     0.164 HD
ENDROOT
BRANCH   1   7
HETATM    7  C   UNL     1      24.949  47.247  50.240  1.00  0.00     0.036 A 
HETATM    8  C   UNL     1      24.322  46.003  50.165  1.00  0.00     0.030 A 
HETATM    9  C   UNL     1      24.509  45.047  51.171  1.00  0.00     0.010 A 
HETATM   10  C   UNL     1      25.352  45.308  52.258  1.00  0.00    -0.051 A 
HETATM   11  C   UNL     1      26.006  46.543  52.321  1.00  0.00     0.010 A 
HETATM   12  C   UNL     1      25.804  47.499  51.321  1.00  0.00     0.030 A 
BRANCH  10  13
HETATM   13  C   UNL     1      25.605  44.247  53.306  1.00  0.00     0.118 C 
BRANCH  13  14
HETATM   14  C   UNL     1      26.856  43.458  53.102  1.00  0.00     0.126 A 
HETATM   15  N   UNL     1      26.908  42.234  52.493  1.00  0.00    -0.263 N 
HETATM   16  N   UNL     1      28.161  41.754  52.458  1.00  0.00    -0.158 NA
HETATM   17  H   UNL     1      26.152  41.685  52.098  1.00  0.00     0.190 HD
HETATM   18  C   UNL     1      28.841  42.735  53.060  1.00  0.00     0.144 A 
HETATM   19  C   UNL     1      30.301  42.683  53.263  1.00  0.00     0.095 C 
HETATM   20  N   UNL     1      28.076  43.797  53.467  1.00  0.00    -0.217 NA
ENDBRANCH  13  14
ENDBRANCH  10  13
ENDBRANCH   1   7
BRANCH   3  21
HETATM   21  C   UNL     1      21.455  49.673  49.017  1.00  0.00     0.131 C 
BRANCH  21  22
HETATM   22  C   UNL     1      20.598  48.815  48.068  1.00  0.00     0.033 C 
BRANCH  22  23
HETATM   23  C   UNL     1      19.904  47.662  48.808  1.00  0.00     0.170 C 
BRANCH  23  24
HETATM   24  O   UNL     1      19.680  48.020  50.169  1.00  0.00    -0.400 OA
HETATM   25  H   UNL     1      19.540  48.982  50.199  1.00  0.00     0.209 HD
ENDBRANCH  23  24
ENDBRANCH  22  23
BRANCH  22  26
HETATM   26  C   UNL     1      19.536  49.678  47.352  1.00  0.00     0.073 C 
BRANCH  26  27
HETATM   27  C   UNL     1      18.925  50.719  48.221  1.00  0.00     0.053 A 
HETATM   28  O   UNL     1      17.983  50.297  49.111  1.00  0.00    -0.327 OA
HETATM   29  C   UNL     1      17.567  51.393  49.795  1.00  0.00     0.142 A 
HETATM   30  C   UNL     1      18.225  52.516  49.351  1.00  0.00     0.027 A 
HETATM   31  C   UNL     1      19.107  52.081  48.333  1.00  0.00     0.034 A 
ENDBRANCH  26  27
ENDBRANCH  22  26
ENDBRANCH  21  22
ENDBRANCH   3  21
TORSDOF 9
ENDMDL
MODEL 5
REMARK VINA RESULT:      -7.8      3.841      9.683
REMARK  9 active torsions:
REMARK  status: ('A' for Active; 'I' for Inactive)
REMARK    1  A    between atoms: C_6  and  C_7 
REMARK    2  A    between atoms: C_7  and  C_8 
REMARK    3  A    between atoms: C_11  and  N_12 
REMARK       I    between atoms: N_12  and  C_13 
REMARK       I    between atoms: C_13  and  N_14 
REMARK    4  A    between atoms: N_14  and  C_15 
REMARK    5  A    between atoms: C_15  and  C_16 
REMARK    6  A    between atoms: C_16  and  C_17 
REMARK    7  A    between atoms: C_16  and  C_19 
REMARK    8  A    between atoms: C_17  and  O_18 
REMARK    9  A    between atoms: C_19  and  C_20 
ROOT
HETATM    1  N   UNL     1      24.614  44.678  48.933  1.00  0.00    -0.309 N 
HETATM    2  C   UNL     1      25.700  44.857  49.731  1.00  0.00     0.320 C 
HETATM    3  N   UNL     1      25.529  45.516  50.908  1.00  0.00    -0.342 N 
HETATM    4  O   UNL     1      26.784  44.389  49.384  1.00  0.00    -0.247 OA
HETATM    5  H   UNL     1      24.829  44.022  48.190  1.00  0.00     0.170 HD
HETATM    6  H   UNL     1      24.616  45.434  51.331  1.00  0.00     0.164 HD
ENDROOT
BRANCH   1   7
HETATM    7  C   UNL     1      23.349  45.290  48.874  1.00  0.00     0.036 A 
HETATM    8  C   UNL     1      23.131  46.660  48.725  1.00  0.00     0.030 A 
HETATM    9  C   UNL     1      21.829  47.172  48.649  1.00  0.00     0.010 A 
HETATM   10  C   UNL     1      20.721  46.317  48.692  1.00  0.00    -0.051 A 
HETATM   11  C   UNL     1      20.938  44.940  48.811  1.00  0.00     0.010 A 
HETATM   12  C   UNL     1      22.238  44.436  48.901  1.00  0.00     0.030 A 
BRANCH  10  13
HETATM   13  C   UNL     1      19.320  46.867  48.539  1.00  0.00     0.118 C 
BRANCH  13  14
HETATM   14  C   UNL     1      19.043  48.093  49.344  1.00  0.00     0.126 A 
HETATM   15  N   UNL     1      18.978  48.124  50.710  1.00  0.00    -0.263 N 
HETATM   16  N   UNL     1      18.702  49.357  51.162  1.00  0.00    -0.158 NA
HETATM   17  H   UNL     1      19.102  47.365  51.372  1.00  0.00     0.190 HD
HETATM   18  C   UNL     1      18.613  50.047  50.021  1.00  0.00     0.144 A 
HETATM   19  C   UNL     1      18.324  51.494  49.986  1.00  0.00     0.095 C 
HETATM   20  N   UNL     1      18.816  49.307  48.885  1.00  0.00    -0.217 NA
ENDBRANCH  13  14
ENDBRANCH  10  13
ENDBRANCH   1   7
BRANCH   3  21
HETATM   21  C   UNL     1      26.644  45.837  51.779  1.00  0.00     0.131 C 
BRANCH  21  22
HETATM   22  C   UNL     1      26.673  45.039  53.094  1.00  0.00     0.033 C 
BRANCH  22  23
HETATM   23  C   UNL     1      25.265  44.616  53.538  1.00  0.00     0.170 C 
BRANCH  23  24
HETATM   24  O   UNL     1      24.887  43.411  52.876  1.00  0.00    -0.400 OA
HETATM   25  H   UNL     1      24.560  42.795  53.554  1.00  0.00     0.209 HD
ENDBRANCH  23  24
ENDBRANCH  22  23
BRANCH  22  26
HETATM   26  C   UNL     1      27.566  43.786  52.961  1.00  0.00     0.073 C 
BRANCH  26  27
HETATM   27  C   UNL     1      28.718  43.769  53.901  1.00  0.00     0.053 A 
HETATM   28  O   UNL     1      28.802  44.804  54.784  1.00  0.00    -0.327 OA
HETATM   29  C   UNL     1      29.910  44.590  55.539  1.00  0.00     0.142 A 
HETATM   30  C   UNL     1      30.543  43.433  55.148  1.00  0.00     0.027 A 
HETATM   31  C   UNL     1      29.770  42.899  54.089  1.00  0.00     0.034 A 
ENDBRANCH  26  27
ENDBRANCH  22  26
ENDBRANCH  21  22
ENDBRANCH   3  21
TORSDOF 9
ENDMDL
MODEL 6
REMARK VINA RESULT:      -7.7     11.126     12.981
REMARK  9 active torsions:
REMARK  status: ('A' for Active; 'I' for Inactive)
REMARK    1  A    between atoms: C_6  and  C_7 
REMARK    2  A    between atoms: C_7  and  C_8 
REMARK    3  A    between atoms: C_11  and  N_12 
REMARK       I    between atoms: N_12  and  C_13 
REMARK       I    between atoms: C_13  and  N_14 
REMARK    4  A    between atoms: N_14  and  C_15 
REMARK    5  A    between atoms: C_15  and  C_16 
REMARK    6  A    between atoms: C_16  and  C_17 
REMARK    7  A    between atoms: C_16  and  C_19 
REMARK    8  A    between atoms: C_17  and  O_18 
REMARK    9  A    between atoms: C_19  and  C_20 
ROOT
HETATM    1  N   UNL     1      26.225  50.401  39.614  1.00  0.00    -0.309 N 
HETATM    2  C   UNL     1      25.959  49.071  39.523  1.00  0.00     0.320 C 
HETATM    3  N   UNL     1      26.766  48.208  40.194  1.00  0.00    -0.342 N 
HETATM    4  O   UNL     1      24.983  48.698  38.873  1.00  0.00    -0.247 OA
HETATM    5  H   UNL     1      25.456  50.940  39.231  1.00  0.00     0.170 HD
HETATM    6  H   UNL     1      27.194  48.568  41.036  1.00  0.00     0.164 HD
ENDROOT
BRANCH   1   7
HETATM    7  C   UNL     1      27.361  51.133  40.008  1.00  0.00     0.036 A 
HETATM    8  C   UNL     1      27.592  51.615  41.296  1.00  0.00     0.030 A 
HETATM    9  C   UNL     1      28.770  52.312  41.596  1.00  0.00     0.010 A 
HETATM   10  C   UNL     1      29.752  52.512  40.617  1.00  0.00    -0.051 A 
HETATM   11  C   UNL     1      29.535  52.003  39.333  1.00  0.00     0.010 A 
HETATM   12  C   UNL     1      28.351  51.322  39.035  1.00  0.00     0.030 A 
BRANCH  10  13
HETATM   13  C   UNL     1      31.052  53.203  40.963  1.00  0.00     0.118 C 
BRANCH  13  14
HETATM   14  C   UNL     1      32.052  52.337  41.655  1.00  0.00     0.126 A 
HETATM   15  N   UNL     1      31.902  51.841  42.921  1.00  0.00    -0.263 N 
HETATM   16  N   UNL     1      32.962  51.104  43.290  1.00  0.00    -0.158 NA
HETATM   17  H   UNL     1      31.133  51.968  43.569  1.00  0.00     0.190 HD
HETATM   18  C   UNL     1      33.732  51.178  42.200  1.00  0.00     0.144 A 
HETATM   19  C   UNL     1      35.041  50.505  42.103  1.00  0.00     0.095 C 
HETATM   20  N   UNL     1      33.208  51.924  41.176  1.00  0.00    -0.217 NA
ENDBRANCH  13  14
ENDBRANCH  10  13
ENDBRANCH   1   7
BRANCH   3  21
HETATM   21  C   UNL     1      26.618  46.769  40.080  1.00  0.00     0.131 C 
BRANCH  21  22
HETATM   22  C   UNL     1      27.889  45.972  40.421  1.00  0.00     0.033 C 
BRANCH  22  23
HETATM   23  C   UNL     1      27.624  44.460  40.461  1.00  0.00     0.170 C 
BRANCH  23  24
HETATM   24  O   UNL     1      28.774  43.751  40.010  1.00  0.00    -0.400 OA
HETATM   25  H   UNL     1      28.603  42.802  40.140  1.00  0.00     0.209 HD
ENDBRANCH  23  24
ENDBRANCH  22  23
BRANCH  22  26
HETATM   26  C   UNL     1      29.015  46.267  39.404  1.00  0.00     0.073 C 
BRANCH  26  27
HETATM   27  C   UNL     1      29.916  47.376  39.814  1.00  0.00     0.053 A 
HETATM   28  O   UNL     1      29.725  47.891  41.061  1.00  0.00    -0.327 OA
HETATM   29  C   UNL     1      30.644  48.875  41.227  1.00  0.00     0.142 A 
HETATM   30  C   UNL     1      31.422  49.003  40.100  1.00  0.00     0.027 A 
HETATM   31  C   UNL     1      30.954  48.031  39.185  1.00  0.00     0.034 A 
ENDBRANCH  26  27
ENDBRANCH  22  26
ENDBRANCH  21  22
ENDBRANCH   3  21
TORSDOF 9
ENDMDL
MODEL 7
REMARK VINA RESULT:      -7.7     10.729     13.810
REMARK  9 active torsions:
REMARK  status: ('A' for Active; 'I' for Inactive)
REMARK    1  A    between atoms: C_6  and  C_7 
REMARK    2  A    between atoms: C_7  and  C_8 
REMARK    3  A    between atoms: C_11  and  N_12 
REMARK       I    between atoms: N_12  and  C_13 
REMARK       I    between atoms: C_13  and  N_14 
REMARK    4  A    between atoms: N_14  and  C_15 
REMARK    5  A    between atoms: C_15  and  C_16 
REMARK    6  A    between atoms: C_16  and  C_17 
REMARK    7  A    between atoms: C_16  and  C_19 
REMARK    8  A    between atoms: C_17  and  O_18 
REMARK    9  A    between atoms: C_19  and  C_20 
ROOT
HETATM    1  N   UNL     1      30.814  48.579  42.394  1.00  0.00    -0.309 N 
HETATM    2  C   UNL     1      29.667  48.550  41.666  1.00  0.00     0.320 C 
HETATM    3  N   UNL     1      29.640  49.222  40.485  1.00  0.00    -0.342 N 
HETATM    4  O   UNL     1      28.713  47.890  42.076  1.00  0.00    -0.247 OA
HETATM    5  H   UNL     1      30.771  47.900  43.145  1.00  0.00     0.170 HD
HETATM    6  H   UNL     1      30.525  49.309  40.006  1.00  0.00     0.164 HD
ENDROOT
BRANCH   1   7
HETATM    7  C   UNL     1      31.945  49.417  42.380  1.00  0.00     0.036 A 
HETATM    8  C   UNL     1      32.145  50.503  43.232  1.00  0.00     0.030 A 
HETATM    9  C   UNL     1      33.320  51.262  43.156  1.00  0.00     0.010 A 
HETATM   10  C   UNL     1      34.330  50.929  42.245  1.00  0.00    -0.051 A 
HETATM   11  C   UNL     1      34.144  49.823  41.410  1.00  0.00     0.010 A 
HETATM   12  C   UNL     1      32.963  49.078  41.479  1.00  0.00     0.030 A 
BRANCH  10  13
HETATM   13  C   UNL     1      35.626  51.709  42.215  1.00  0.00     0.118 C 
BRANCH  13  14
HETATM   14  C   UNL     1      35.991  52.255  40.875  1.00  0.00     0.126 A 
HETATM   15  N   UNL     1      35.180  53.054  40.117  1.00  0.00    -0.263 N 
HETATM   16  N   UNL     1      35.762  53.386  38.954  1.00  0.00    -0.158 NA
HETATM   17  H   UNL     1      34.246  53.394  40.323  1.00  0.00     0.190 HD
HETATM   18  C   UNL     1      36.940  52.762  39.057  1.00  0.00     0.144 A 
HETATM   19  C   UNL     1      37.971  52.830  38.004  1.00  0.00     0.095 C 
HETATM   20  N   UNL     1      37.118  52.060  40.220  1.00  0.00    -0.217 NA
ENDBRANCH  13  14
ENDBRANCH  10  13
ENDBRANCH   1   7
BRANCH   3  21
HETATM   21  C   UNL     1      28.433  49.325  39.686  1.00  0.00     0.131 C 
BRANCH  21  22
HETATM   22  C   UNL     1      27.763  50.710  39.726  1.00  0.00     0.033 C 
BRANCH  22  23
HETATM   23  C   UNL     1      27.673  51.262  41.157  1.00  0.00     0.170 C 
BRANCH  23  24
HETATM   24  O   UNL     1      27.148  50.266  42.031  1.00  0.00    -0.400 OA
HETATM   25  H   UNL     1      26.178  50.326  41.994  1.00  0.00     0.209 HD
ENDBRANCH  23  24
ENDBRANCH  22  23
BRANCH  22  26
HETATM   26  C   UNL     1      28.523  51.718  38.837  1.00  0.00     0.073 C 
BRANCH  26  27
HETATM   27  C   UNL     1      29.561  52.496  39.565  1.00  0.00     0.053 A 
HETATM   28  O   UNL     1      30.777  51.900  39.718  1.00  0.00    -0.327 OA
HETATM   29  C   UNL     1      31.562  52.774  40.397  1.00  0.00     0.142 A 
HETATM   30  C   UNL     1      30.865  53.923  40.687  1.00  0.00     0.027 A 
HETATM   31  C   UNL     1      29.569  53.746  40.146  1.00  0.00     0.034 A 
ENDBRANCH  26  27
ENDBRANCH  22  26
ENDBRANCH  21  22
ENDBRANCH   3  21
TORSDOF 9
ENDMDL
MODEL 8
REMARK VINA RESULT:      -7.6     19.717     22.570
REMARK  9 active torsions:
REMARK  status: ('A' for Active; 'I' for Inactive)
REMARK    1  A    between atoms: C_6  and  C_7 
REMARK    2  A    between atoms: C_7  and  C_8 
REMARK    3  A    between atoms: C_11  and  N_12 
REMARK       I    between atoms: N_12  and  C_13 
REMARK       I    between atoms: C_13  and  N_14 
REMARK    4  A    between atoms: N_14  and  C_15 
REMARK    5  A    between atoms: C_15  and  C_16 
REMARK    6  A    between atoms: C_16  and  C_17 
REMARK    7  A    between atoms: C_16  and  C_19 
REMARK    8  A    between atoms: C_17  and  O_18 
REMARK    9  A    between atoms: C_19  and  C_20 
ROOT
HETATM    1  N   UNL     1      41.458  47.239  64.761  1.00  0.00    -0.309 N 
HETATM    2  C   UNL     1      41.234  46.010  64.224  1.00  0.00     0.320 C 
HETATM    3  N   UNL     1      39.971  45.704  63.828  1.00  0.00    -0.342 N 
HETATM    4  O   UNL     1      42.181  45.238  64.079  1.00  0.00    -0.247 OA
HETATM    5  H   UNL     1      42.454  47.412  64.840  1.00  0.00     0.170 HD
HETATM    6  H   UNL     1      39.400  46.483  63.530  1.00  0.00     0.164 HD
ENDROOT
BRANCH   1   7
HETATM    7  C   UNL     1      40.612  48.219  65.313  1.00  0.00     0.036 A 
HETATM    8  C   UNL     1      39.675  48.962  64.595  1.00  0.00     0.030 A 
HETATM    9  C   UNL     1      38.859  49.898  65.242  1.00  0.00     0.010 A 
HETATM   10  C   UNL     1      38.946  50.087  66.627  1.00  0.00    -0.051 A 
HETATM   11  C   UNL     1      39.864  49.322  67.354  1.00  0.00     0.010 A 
HETATM   12  C   UNL     1      40.687  48.399  66.701  1.00  0.00     0.030 A 
BRANCH  10  13
HETATM   13  C   UNL     1      38.014  51.048  67.332  1.00  0.00     0.118 C 
BRANCH  13  14
HETATM   14  C   UNL     1      38.332  52.490  67.119  1.00  0.00     0.126 A 
HETATM   15  N   UNL     1      37.828  53.252  66.101  1.00  0.00    -0.263 N 
HETATM   16  N   UNL     1      38.295  54.510  66.149  1.00  0.00    -0.158 NA
HETATM   17  H   UNL     1      37.189  52.985  65.360  1.00  0.00     0.190 HD
HETATM   18  C   UNL     1      39.082  54.463  67.229  1.00  0.00     0.144 A 
HETATM   19  C   UNL     1      39.835  55.634  67.717  1.00  0.00     0.095 C 
HETATM   20  N   UNL     1      39.130  53.242  67.851  1.00  0.00    -0.217 NA
ENDBRANCH  13  14
ENDBRANCH  10  13
ENDBRANCH   1   7
BRANCH   3  21
HETATM   21  C   UNL     1      39.617  44.387  63.333  1.00  0.00     0.131 C 
BRANCH  21  22
HETATM   22  C   UNL     1      38.359  43.782  63.980  1.00  0.00     0.033 C 
BRANCH  22  23
HETATM   23  C   UNL     1      37.253  44.830  64.171  1.00  0.00     0.170 C 
BRANCH  23  24
HETATM   24  O   UNL     1      37.153  45.651  63.010  1.00  0.00    -0.400 OA
HETATM   25  H   UNL     1      37.712  46.434  63.157  1.00  0.00     0.209 HD
ENDBRANCH  23  24
ENDBRANCH  22  23
BRANCH  22  26
HETATM   26  C   UNL     1      37.813  42.610  63.136  1.00  0.00     0.073 C 
BRANCH  26  27
HETATM   27  C   UNL     1      38.449  41.302  63.445  1.00  0.00     0.053 A 
HETATM   28  O   UNL     1      39.095  40.679  62.419  1.00  0.00    -0.327 OA
HETATM   29  C   UNL     1      39.599  39.520  62.915  1.00  0.00     0.142 A 
HETATM   30  C   UNL     1      39.280  39.388  64.246  1.00  0.00     0.027 A 
HETATM   31  C   UNL     1      38.538  40.542  64.592  1.00  0.00     0.034 A 
ENDBRANCH  26  27
ENDBRANCH  22  26
ENDBRANCH  21  22
ENDBRANCH   3  21
TORSDOF 9
ENDMDL
MODEL 9
REMARK VINA RESULT:      -7.6     11.224     13.307
REMARK  9 active torsions:
REMARK  status: ('A' for Active; 'I' for Inactive)
REMARK    1  A    between atoms: C_6  and  C_7 
REMARK    2  A    between atoms: C_7  and  C_8 
REMARK    3  A    between atoms: C_11  and  N_12 
REMARK       I    between atoms: N_12  and  C_13 
REMARK       I    between atoms: C_13  and  N_14 
REMARK    4  A    between atoms: N_14  and  C_15 
REMARK    5  A    between atoms: C_15  and  C_16 
REMARK    6  A    between atoms: C_16  and  C_17 
REMARK    7  A    between atoms: C_16  and  C_19 
REMARK    8  A    between atoms: C_17  and  O_18 
REMARK    9  A    between atoms: C_19  and  C_20 
ROOT
HETATM    1  N   UNL     1      31.457  48.193  41.016  1.00  0.00    -0.309 N 
HETATM    2  C   UNL     1      30.380  48.206  40.186  1.00  0.00     0.320 C 
HETATM    3  N   UNL     1      29.984  49.398  39.668  1.00  0.00    -0.342 N 
HETATM    4  O   UNL     1      29.828  47.143  39.904  1.00  0.00    -0.247 OA
HETATM    5  H   UNL     1      31.761  47.240  41.182  1.00  0.00     0.170 HD
HETATM    6  H   UNL     1      30.711  50.088  39.541  1.00  0.00     0.164 HD
ENDROOT
BRANCH   1   7
HETATM    7  C   UNL     1      32.122  49.193  41.749  1.00  0.00     0.036 A 
HETATM    8  C   UNL     1      31.579  49.883  42.833  1.00  0.00     0.030 A 
HETATM    9  C   UNL     1      32.333  50.846  43.516  1.00  0.00     0.010 A 
HETATM   10  C   UNL     1      33.656  51.115  43.144  1.00  0.00    -0.051 A 
HETATM   11  C   UNL     1      34.212  50.403  42.076  1.00  0.00     0.010 A 
HETATM   12  C   UNL     1      33.450  49.454  41.388  1.00  0.00     0.030 A 
BRANCH  10  13
HETATM   13  C   UNL     1      34.489  52.104  43.928  1.00  0.00     0.118 C 
BRANCH  13  14
HETATM   14  C   UNL     1      35.908  52.216  43.479  1.00  0.00     0.126 A 
HETATM   15  N   UNL     1      36.936  51.455  43.965  1.00  0.00    -0.263 N 
HETATM   16  N   UNL     1      38.104  51.779  43.388  1.00  0.00    -0.158 NA
HETATM   17  H   UNL     1      36.912  50.726  44.670  1.00  0.00     0.190 HD
HETATM   18  C   UNL     1      37.728  52.748  42.547  1.00  0.00     0.144 A 
HETATM   19  C   UNL     1      38.678  53.441  41.656  1.00  0.00     0.095 C 
HETATM   20  N   UNL     1      36.390  53.043  42.573  1.00  0.00    -0.217 NA
ENDBRANCH  13  14
ENDBRANCH  10  13
ENDBRANCH   1   7
BRANCH   3  21
HETATM   21  C   UNL     1      28.792  49.524  38.851  1.00  0.00     0.131 C 
BRANCH  21  22
HETATM   22  C   UNL     1      27.896  50.721  39.215  1.00  0.00     0.033 C 
BRANCH  22  23
HETATM   23  C   UNL     1      27.727  50.868  40.735  1.00  0.00     0.170 C 
BRANCH  23  24
HETATM   24  O   UNL     1      26.623  51.722  41.022  1.00  0.00    -0.400 OA
HETATM   25  H   UNL     1      25.923  51.521  40.378  1.00  0.00     0.209 HD
ENDBRANCH  23  24
ENDBRANCH  22  23
BRANCH  22  26
HETATM   26  C   UNL     1      28.466  52.034  38.635  1.00  0.00     0.073 C 
BRANCH  26  27
HETATM   27  C   UNL     1      29.543  52.638  39.464  1.00  0.00     0.053 A 
HETATM   28  O   UNL     1      30.778  52.070  39.371  1.00  0.00    -0.327 OA
HETATM   29  C   UNL     1      31.598  52.770  40.195  1.00  0.00     0.142 A 
HETATM   30  C   UNL     1      30.904  53.778  40.822  1.00  0.00     0.027 A 
HETATM   31  C   UNL     1      29.573  53.696  40.348  1.00  0.00     0.034 A 
ENDBRANCH  26  27
ENDBRANCH  22  26
ENDBRANCH  21  22
ENDBRANCH   3  21
TORSDOF 9
ENDMDL
MODEL 10
REMARK VINA RESULT:      -7.6     11.264     13.337
REMARK  9 active torsions:
REMARK  status: ('A' for Active; 'I' for Inactive)
REMARK    1  A    between atoms: C_6  and  C_7 
REMARK    2  A    between atoms: C_7  and  C_8 
REMARK    3  A    between atoms: C_11  and  N_12 
REMARK       I    between atoms: N_12  and  C_13 
REMARK       I    between atoms: C_13  and  N_14 
REMARK    4  A    between atoms: N_14  and  C_15 
REMARK    5  A    between atoms: C_15  and  C_16 
REMARK    6  A    between atoms: C_16  and  C_17 
REMARK    7  A    between atoms: C_16  and  C_19 
REMARK    8  A    between atoms: C_17  and  O_18 
REMARK    9  A    between atoms: C_19  and  C_20 
ROOT
HETATM    1  N   UNL     1      29.883  52.655  42.144  1.00  0.00    -0.309 N 
HETATM    2  C   UNL     1      28.787  52.058  41.605  1.00  0.00     0.320 C 
HETATM    3  N   UNL     1      28.817  50.713  41.416  1.00  0.00    -0.342 N 
HETATM    4  O   UNL     1      27.799  52.743  41.344  1.00  0.00    -0.247 OA
HETATM    5  H   UNL     1      29.670  53.611  42.404  1.00  0.00     0.170 HD
HETATM    6  H   UNL     1      29.396  50.189  42.057  1.00  0.00     0.164 HD
ENDROOT
BRANCH   1   7
HETATM    7  C   UNL     1      31.224  52.255  42.291  1.00  0.00     0.036 A 
HETATM    8  C   UNL     1      31.842  51.964  43.507  1.00  0.00     0.030 A 
HETATM    9  C   UNL     1      33.179  51.547  43.547  1.00  0.00     0.010 A 
HETATM   10  C   UNL     1      33.913  51.386  42.365  1.00  0.00    -0.051 A 
HETATM   11  C   UNL     1      33.287  51.648  41.143  1.00  0.00     0.010 A 
HETATM   12  C   UNL     1      31.957  52.079  41.110  1.00  0.00     0.030 A 
BRANCH  10  13
HETATM   13  C   UNL     1      35.334  50.868  42.408  1.00  0.00     0.118 C 
BRANCH  13  14
HETATM   14  C   UNL     1      36.314  51.795  43.049  1.00  0.00     0.126 A 
HETATM   15  N   UNL     1      37.193  51.432  44.032  1.00  0.00    -0.263 N 
HETATM   16  N   UNL     1      37.945  52.471  44.428  1.00  0.00    -0.158 NA
HETATM   17  H   UNL     1      37.325  50.526  44.468  1.00  0.00     0.190 HD
HETATM   18  C   UNL     1      37.483  53.451  43.644  1.00  0.00     0.144 A 
HETATM   19  C   UNL     1      38.011  54.827  43.695  1.00  0.00     0.095 C 
HETATM   20  N   UNL     1      36.484  53.074  42.784  1.00  0.00    -0.217 NA
ENDBRANCH  13  14
ENDBRANCH  10  13
ENDBRANCH   1   7
BRANCH   3  21
HETATM   21  C   UNL     1      27.734  50.004  40.761  1.00  0.00     0.131 C 
BRANCH  21  22
HETATM   22  C   UNL     1      28.188  49.032  39.658  1.00  0.00     0.033 C 
BRANCH  22  23
HETATM   23  C   UNL     1      29.220  49.672  38.718  1.00  0.00     0.170 C 
BRANCH  23  24
HETATM   24  O   UNL     1      28.670  50.838  38.111  1.00  0.00    -0.400 OA
HETATM   25  H   UNL     1      28.014  51.207  38.727  1.00  0.00     0.209 HD
ENDBRANCH  23  24
ENDBRANCH  22  23
BRANCH  22  26
HETATM   26  C   UNL     1      28.782  47.743  40.267  1.00  0.00     0.073 C 
BRANCH  26  27
HETATM   27  C   UNL     1      30.182  47.896  40.746  1.00  0.00     0.053 A 
HETATM   28  O   UNL     1      30.348  48.417  41.994  1.00  0.00    -0.327 OA
HETATM   29  C   UNL     1      31.684  48.465  42.227  1.00  0.00     0.142 A 
HETATM   30  C   UNL     1      32.380  47.986  41.142  1.00  0.00     0.027 A 
HETATM   31  C   UNL     1      31.408  47.615  40.182  1.00  0.00     0.034 A 
ENDBRANCH  26  27
ENDBRANCH  22  26
ENDBRANCH  21  22
ENDBRANCH   3  21
TORSDOF 9
ENDMDL
