MODEL 1
REMARK VINA RESULT:      -9.9      0.000      0.000
REMARK  10 active torsions:
REMARK  status: ('A' for Active; 'I' for Inactive)
REMARK    1  A    between atoms: C_2  and  C_3 
REMARK    2  A    between atoms: C_3  and  C_4 
REMARK    3  A    between atoms: C_4  and  O_5 
REMARK    4  A    between atoms: O_5  and  C_6 
REMARK    5  A    between atoms: C_9  and  C_10 
REMARK       I    between atoms: C_10  and  N_11 
REMARK    6  A    between atoms: N_11  and  C_12 
REMARK    7  A    between atoms: C_12  and  N_13 
REMARK    8  A    between atoms: N_13  and  C_14 
REMARK    9  A    between atoms: C_16  and  C_17 
REMARK   10  A    between atoms: C_27  and  O_28 
ROOT
HETATM    1  N   UNL     1      24.869  47.584  49.050  1.00  0.00    -0.333 N 
HETATM    2  H   UNL     1      24.811  47.224  48.100  1.00  0.00     0.168 HD
ENDROOT
BRANCH   1   3
HETATM    3  C   UNL     1      25.155  48.921  49.065  1.00  0.00     0.179 C 
HETATM    4  S   UNL     1      26.755  49.354  48.823  1.00  0.00    -0.040 SA
BRANCH   3   5
HETATM    5  N   UNL     1      24.104  49.791  49.183  1.00  0.00    -0.299 N 
HETATM    6  C   UNL     1      23.146  50.027  48.209  1.00  0.00     0.257 C 
HETATM    7  O   UNL     1      23.395  50.283  47.037  1.00  0.00    -0.267 OA
HETATM    8  H   UNL     1      23.829  49.947  50.143  1.00  0.00     0.171 HD
BRANCH   6   9
HETATM    9  C   UNL     1      21.765  50.193  48.710  1.00  0.00     0.032 A 
HETATM   10  C   UNL     1      21.090  49.077  49.210  1.00  0.00     0.020 A 
HETATM   11  C   UNL     1      19.797  49.215  49.722  1.00  0.00     0.038 A 
HETATM   12  C   UNL     1      19.185  50.470  49.755  1.00  0.00     0.068 A 
HETATM   13  C   UNL     1      19.878  51.587  49.273  1.00  0.00     0.038 A 
HETATM   14  C   UNL     1      21.165  51.454  48.742  1.00  0.00     0.020 A 
BRANCH  12  15
HETATM   15  O   UNL     1      17.940  50.739  50.253  1.00  0.00    -0.351 OA
BRANCH  15  16
HETATM   16  C   UNL     1      17.332  51.961  49.831  1.00  0.00     0.175 C 
BRANCH  16  17
HETATM   17  C   UNL     1      15.979  51.628  49.208  1.00  0.00     0.026 C 
BRANCH  17  18
HETATM   18  C   UNL     1      16.069  50.396  48.309  1.00  0.00    -0.002 C 
HETATM   19  C   UNL     1      16.641  50.739  46.943  1.00  0.00     0.005 C 
ENDBRANCH  17  18
ENDBRANCH  16  17
ENDBRANCH  15  16
ENDBRANCH  12  15
ENDBRANCH   6   9
ENDBRANCH   3   5
ENDBRANCH   1   3
BRANCH   1  20
HETATM   20  C   UNL     1      24.895  46.596  50.059  1.00  0.00     0.035 A 
HETATM   21  C   UNL     1      25.831  46.529  51.099  1.00  0.00     0.048 A 
HETATM   22  C   UNL     1      25.828  45.453  52.010  1.00  0.00     0.052 A 
HETATM   23  C   UNL     1      24.883  44.430  51.838  1.00  0.00     0.080 A 
HETATM   24  C   UNL     1      23.942  44.490  50.817  1.00  0.00     0.040 A 
HETATM   25  C   UNL     1      23.949  45.569  49.935  1.00  0.00     0.032 A 
BRANCH  22  26
HETATM   26  C   UNL     1      26.786  45.380  53.108  1.00  0.00     0.183 A 
HETATM   27  O   UNL     1      27.593  44.273  53.173  1.00  0.00    -0.289 OA
HETATM   28  C   UNL     1      28.434  44.544  54.216  1.00  0.00     0.107 A 
HETATM   29  C   UNL     1      28.082  45.779  54.735  1.00  0.00     0.093 A 
HETATM   30  C   UNL     1      29.477  43.756  54.689  1.00  0.00     0.046 A 
HETATM   31  N   UNL     1      27.043  46.310  54.015  1.00  0.00    -0.221 NA
HETATM   32  C   UNL     1      28.795  46.285  55.827  1.00  0.00     0.035 A 
HETATM   33  C   UNL     1      29.857  45.521  56.336  1.00  0.00     0.009 A 
HETATM   34  C   UNL     1      30.203  44.278  55.775  1.00  0.00    -0.059 A 
HETATM   35  C   UNL     1      31.375  43.523  56.336  1.00  0.00     0.048 C 
ENDBRANCH  22  26
BRANCH  23  36
HETATM   36  O   UNL     1      24.825  43.321  52.642  1.00  0.00    -0.360 OA
HETATM   37  H   UNL     1      25.064  42.533  52.107  1.00  0.00     0.217 HD
ENDBRANCH  23  36
ENDBRANCH   1  20
TORSDOF 10
ENDMDL
MODEL 2
REMARK VINA RESULT:      -9.6      2.068     11.416
REMARK  10 active torsions:
REMARK  status: ('A' for Active; 'I' for Inactive)
REMARK    1  A    between atoms: C_2  and  C_3 
REMARK    2  A    between atoms: C_3  and  C_4 
REMARK    3  A    between atoms: C_4  and  O_5 
REMARK    4  A    between atoms: O_5  and  C_6 
REMARK    5  A    between atoms: C_9  and  C_10 
REMARK       I    between atoms: C_10  and  N_11 
REMARK    6  A    between atoms: N_11  and  C_12 
REMARK    7  A    between atoms: C_12  and  N_13 
REMARK    8  A    between atoms: N_13  and  C_14 
REMARK    9  A    between atoms: C_16  and  C_17 
REMARK   10  A    between atoms: C_27  and  O_28 
ROOT
HETATM    1  N   UNL     1      26.050  46.522  50.327  1.00  0.00    -0.333 N 
HETATM    2  H   UNL     1      27.024  46.655  50.588  1.00  0.00     0.168 HD
ENDROOT
BRANCH   1   3
HETATM    3  C   UNL     1      25.698  45.201  50.351  1.00  0.00     0.179 C 
HETATM    4  S   UNL     1      24.786  44.639  49.062  1.00  0.00    -0.040 SA
BRANCH   3   5
HETATM    5  N   UNL     1      26.195  44.432  51.368  1.00  0.00    -0.299 N 
HETATM    6  C   UNL     1      27.262  43.553  51.262  1.00  0.00     0.257 C 
HETATM    7  O   UNL     1      27.375  42.700  50.389  1.00  0.00    -0.267 OA
HETATM    8  H   UNL     1      26.018  44.827  52.282  1.00  0.00     0.171 HD
BRANCH   6   9
HETATM    9  C   UNL     1      28.179  43.529  52.421  1.00  0.00     0.032 A 
HETATM   10  C   UNL     1      27.807  44.199  53.588  1.00  0.00     0.020 A 
HETATM   11  C   UNL     1      28.640  44.161  54.710  1.00  0.00     0.038 A 
HETATM   12  C   UNL     1      29.834  43.436  54.674  1.00  0.00     0.068 A 
HETATM   13  C   UNL     1      30.186  42.749  53.507  1.00  0.00     0.038 A 
HETATM   14  C   UNL     1      29.368  42.797  52.374  1.00  0.00     0.020 A 
BRANCH  12  15
HETATM   15  O   UNL     1      30.718  43.300  55.709  1.00  0.00    -0.351 OA
BRANCH  15  16
HETATM   16  C   UNL     1      31.229  44.506  56.278  1.00  0.00     0.175 C 
BRANCH  16  17
HETATM   17  C   UNL     1      31.433  44.278  57.773  1.00  0.00     0.026 C 
BRANCH  17  18
HETATM   18  C   UNL     1      30.452  45.107  58.601  1.00  0.00    -0.002 C 
HETATM   19  C   UNL     1      29.657  46.068  57.732  1.00  0.00     0.005 C 
ENDBRANCH  17  18
ENDBRANCH  16  17
ENDBRANCH  15  16
ENDBRANCH  12  15
ENDBRANCH   6   9
ENDBRANCH   3   5
ENDBRANCH   1   3
BRANCH   1  20
HETATM   20  C   UNL     1      25.420  47.662  49.780  1.00  0.00     0.035 A 
HETATM   21  C   UNL     1      24.051  47.946  49.864  1.00  0.00     0.048 A 
HETATM   22  C   UNL     1      23.501  49.067  49.210  1.00  0.00     0.052 A 
HETATM   23  C   UNL     1      24.351  49.883  48.446  1.00  0.00     0.080 A 
HETATM   24  C   UNL     1      25.712  49.618  48.364  1.00  0.00     0.040 A 
HETATM   25  C   UNL     1      26.242  48.515  49.030  1.00  0.00     0.032 A 
BRANCH  22  26
HETATM   26  C   UNL     1      22.080  49.384  49.302  1.00  0.00     0.183 A 
HETATM   27  O   UNL     1      21.738  50.655  49.688  1.00  0.00    -0.289 OA
HETATM   28  C   UNL     1      20.376  50.674  49.575  1.00  0.00     0.107 A 
HETATM   29  C   UNL     1      19.968  49.421  49.149  1.00  0.00     0.093 A 
HETATM   30  C   UNL     1      19.521  51.744  49.816  1.00  0.00     0.046 A 
HETATM   31  N   UNL     1      21.060  48.612  48.964  1.00  0.00    -0.221 NA
HETATM   32  C   UNL     1      18.603  49.177  48.961  1.00  0.00     0.035 A 
HETATM   33  C   UNL     1      17.706  50.231  49.193  1.00  0.00     0.009 A 
HETATM   34  C   UNL     1      18.152  51.500  49.607  1.00  0.00    -0.059 A 
HETATM   35  C   UNL     1      17.147  52.602  49.801  1.00  0.00     0.048 C 
ENDBRANCH  22  26
BRANCH  23  36
HETATM   36  O   UNL     1      23.908  50.970  47.736  1.00  0.00    -0.360 OA
HETATM   37  H   UNL     1      23.375  50.651  46.976  1.00  0.00     0.217 HD
ENDBRANCH  23  36
ENDBRANCH   1  20
TORSDOF 10
ENDMDL
MODEL 3
REMARK VINA RESULT:      -9.6      1.455      1.976
REMARK  10 active torsions:
REMARK  status: ('A' for Active; 'I' for Inactive)
REMARK    1  A    between atoms: C_2  and  C_3 
REMARK    2  A    between atoms: C_3  and  C_4 
REMARK    3  A    between atoms: C_4  and  O_5 
REMARK    4  A    between atoms: O_5  and  C_6 
REMARK    5  A    between atoms: C_9  and  C_10 
REMARK       I    between atoms: C_10  and  N_11 
REMARK    6  A    between atoms: N_11  and  C_12 
REMARK    7  A    between atoms: C_12  and  N_13 
REMARK    8  A    between atoms: N_13  and  C_14 
REMARK    9  A    between atoms: C_16  and  C_17 
REMARK   10  A    between atoms: C_27  and  O_28 
ROOT
HETATM    1  N   UNL     1      24.215  47.048  50.528  1.00  0.00    -0.333 N 
HETATM    2  H   UNL     1      23.199  47.056  50.554  1.00  0.00     0.168 HD
ENDROOT
BRANCH   1   3
HETATM    3  C   UNL     1      24.708  48.064  49.758  1.00  0.00     0.179 C 
HETATM    4  S   UNL     1      26.371  48.123  49.558  1.00  0.00    -0.040 SA
BRANCH   3   5
HETATM    5  N   UNL     1      23.804  48.888  49.142  1.00  0.00    -0.299 N 
HETATM    6  C   UNL     1      22.596  48.485  48.595  1.00  0.00     0.257 C 
HETATM    7  O   UNL     1      22.464  47.545  47.819  1.00  0.00    -0.267 OA
HETATM    8  H   UNL     1      23.865  49.846  49.461  1.00  0.00     0.171 HD
BRANCH   6   9
HETATM    9  C   UNL     1      21.464  49.411  48.810  1.00  0.00     0.032 A 
HETATM   10  C   UNL     1      20.271  48.907  49.331  1.00  0.00     0.020 A 
HETATM   11  C   UNL     1      19.198  49.768  49.578  1.00  0.00     0.038 A 
HETATM   12  C   UNL     1      19.323  51.136  49.324  1.00  0.00     0.068 A 
HETATM   13  C   UNL     1      20.531  51.635  48.823  1.00  0.00     0.038 A 
HETATM   14  C   UNL     1      21.603  50.778  48.556  1.00  0.00     0.020 A 
BRANCH  12  15
HETATM   15  O   UNL     1      18.361  52.082  49.547  1.00  0.00    -0.351 OA
BRANCH  15  16
HETATM   16  C   UNL     1      17.032  51.605  49.762  1.00  0.00     0.175 C 
BRANCH  16  17
HETATM   17  C   UNL     1      16.059  52.645  49.213  1.00  0.00     0.026 C 
BRANCH  17  18
HETATM   18  C   UNL     1      15.559  53.576  50.316  1.00  0.00    -0.002 C 
HETATM   19  C   UNL     1      14.119  53.275  50.695  1.00  0.00     0.005 C 
ENDBRANCH  17  18
ENDBRANCH  16  17
ENDBRANCH  15  16
ENDBRANCH  12  15
ENDBRANCH   6   9
ENDBRANCH   3   5
ENDBRANCH   1   3
BRANCH   1  20
HETATM   20  C   UNL     1      24.814  45.884  51.059  1.00  0.00     0.035 A 
HETATM   21  C   UNL     1      25.878  45.867  51.969  1.00  0.00     0.048 A 
HETATM   22  C   UNL     1      26.466  44.651  52.375  1.00  0.00     0.052 A 
HETATM   23  C   UNL     1      25.982  43.454  51.825  1.00  0.00     0.080 A 
HETATM   24  C   UNL     1      24.921  43.456  50.929  1.00  0.00     0.040 A 
HETATM   25  C   UNL     1      24.340  44.666  50.551  1.00  0.00     0.032 A 
BRANCH  22  26
HETATM   26  C   UNL     1      27.564  44.618  53.336  1.00  0.00     0.183 A 
HETATM   27  O   UNL     1      27.568  45.565  54.328  1.00  0.00    -0.289 OA
HETATM   28  C   UNL     1      28.629  45.212  55.112  1.00  0.00     0.107 A 
HETATM   29  C   UNL     1      29.219  44.092  54.549  1.00  0.00     0.093 A 
HETATM   30  C   UNL     1      29.061  45.828  56.281  1.00  0.00     0.046 A 
HETATM   31  N   UNL     1      28.525  43.712  53.429  1.00  0.00    -0.221 NA
HETATM   32  C   UNL     1      30.343  43.532  55.166  1.00  0.00     0.035 A 
HETATM   33  C   UNL     1      30.811  44.124  56.349  1.00  0.00     0.009 A 
HETATM   34  C   UNL     1      30.180  45.251  56.908  1.00  0.00    -0.059 A 
HETATM   35  C   UNL     1      30.703  45.818  58.199  1.00  0.00     0.048 C 
ENDBRANCH  22  26
BRANCH  23  36
HETATM   36  O   UNL     1      26.515  42.225  52.120  1.00  0.00    -0.360 OA
HETATM   37  H   UNL     1      25.857  41.534  51.886  1.00  0.00     0.217 HD
ENDBRANCH  23  36
ENDBRANCH   1  20
TORSDOF 10
ENDMDL
MODEL 4
REMARK VINA RESULT:      -9.6      2.399     11.064
REMARK  10 active torsions:
REMARK  status: ('A' for Active; 'I' for Inactive)
REMARK    1  A    between atoms: C_2  and  C_3 
REMARK    2  A    between atoms: C_3  and  C_4 
REMARK    3  A    between atoms: C_4  and  O_5 
REMARK    4  A    between atoms: O_5  and  C_6 
REMARK    5  A    between atoms: C_9  and  C_10 
REMARK       I    between atoms: C_10  and  N_11 
REMARK    6  A    between atoms: N_11  and  C_12 
REMARK    7  A    between atoms: C_12  and  N_13 
REMARK    8  A    between atoms: N_13  and  C_14 
REMARK    9  A    between atoms: C_16  and  C_17 
REMARK   10  A    between atoms: C_27  and  O_28 
ROOT
HETATM    1  N   UNL     1      25.286  44.390  49.777  1.00  0.00    -0.333 N 
HETATM    2  H   UNL     1      25.641  43.918  48.949  1.00  0.00     0.168 HD
ENDROOT
BRANCH   1   3
HETATM    3  C   UNL     1      24.815  43.499  50.702  1.00  0.00     0.179 C 
HETATM    4  S   UNL     1      23.502  42.563  50.247  1.00  0.00    -0.040 SA
BRANCH   3   5
HETATM    5  N   UNL     1      25.507  43.381  51.877  1.00  0.00    -0.299 N 
HETATM    6  C   UNL     1      26.887  43.407  52.001  1.00  0.00     0.257 C 
HETATM    7  O   UNL     1      27.658  42.731  51.329  1.00  0.00    -0.267 OA
HETATM    8  H   UNL     1      24.970  43.679  52.681  1.00  0.00     0.171 HD
BRANCH   6   9
HETATM    9  C   UNL     1      27.403  44.137  53.178  1.00  0.00     0.032 A 
HETATM   10  C   UNL     1      26.631  45.164  53.725  1.00  0.00     0.020 A 
HETATM   11  C   UNL     1      27.078  45.846  54.860  1.00  0.00     0.038 A 
HETATM   12  C   UNL     1      28.287  45.489  55.462  1.00  0.00     0.068 A 
HETATM   13  C   UNL     1      29.043  44.442  54.919  1.00  0.00     0.038 A 
HETATM   14  C   UNL     1      28.611  43.768  53.774  1.00  0.00     0.020 A 
BRANCH  12  15
HETATM   15  O   UNL     1      28.820  46.058  56.586  1.00  0.00    -0.351 OA
BRANCH  15  16
HETATM   16  C   UNL     1      30.231  45.924  56.764  1.00  0.00     0.175 C 
BRANCH  16  17
HETATM   17  C   UNL     1      30.477  45.214  58.093  1.00  0.00     0.026 C 
BRANCH  17  18
HETATM   18  C   UNL     1      31.755  44.379  58.050  1.00  0.00    -0.002 C 
HETATM   19  C   UNL     1      31.581  43.132  57.198  1.00  0.00     0.005 C 
ENDBRANCH  17  18
ENDBRANCH  16  17
ENDBRANCH  15  16
ENDBRANCH  12  15
ENDBRANCH   6   9
ENDBRANCH   3   5
ENDBRANCH   1   3
BRANCH   1  20
HETATM   20  C   UNL     1      25.142  45.789  49.648  1.00  0.00     0.035 A 
HETATM   21  C   UNL     1      23.958  46.449  49.294  1.00  0.00     0.048 A 
HETATM   22  C   UNL     1      23.936  47.846  49.105  1.00  0.00     0.052 A 
HETATM   23  C   UNL     1      25.134  48.564  49.252  1.00  0.00     0.080 A 
HETATM   24  C   UNL     1      26.312  47.922  49.613  1.00  0.00     0.040 A 
HETATM   25  C   UNL     1      26.313  46.543  49.812  1.00  0.00     0.032 A 
BRANCH  22  26
HETATM   26  C   UNL     1      22.707  48.549  48.754  1.00  0.00     0.183 A 
HETATM   27  O   UNL     1      22.302  49.571  49.575  1.00  0.00    -0.289 OA
HETATM   28  C   UNL     1      21.212  50.090  48.936  1.00  0.00     0.107 A 
HETATM   29  C   UNL     1      21.002  49.350  47.784  1.00  0.00     0.093 A 
HETATM   30  C   UNL     1      20.436  51.174  49.331  1.00  0.00     0.046 A 
HETATM   31  N   UNL     1      21.967  48.383  47.668  1.00  0.00    -0.221 NA
HETATM   32  C   UNL     1      19.930  49.681  46.949  1.00  0.00     0.035 A 
HETATM   33  C   UNL     1      19.122  50.771  47.311  1.00  0.00     0.009 A 
HETATM   34  C   UNL     1      19.371  51.515  48.479  1.00  0.00    -0.059 A 
HETATM   35  C   UNL     1      18.495  52.696  48.794  1.00  0.00     0.048 C 
ENDBRANCH  22  26
BRANCH  23  36
HETATM   36  O   UNL     1      25.226  49.917  49.047  1.00  0.00    -0.360 OA
HETATM   37  H   UNL     1      24.624  50.371  49.676  1.00  0.00     0.217 HD
ENDBRANCH  23  36
ENDBRANCH   1  20
TORSDOF 10
ENDMDL
MODEL 5
REMARK VINA RESULT:      -9.4      2.383      3.108
REMARK  10 active torsions:
REMARK  status: ('A' for Active; 'I' for Inactive)
REMARK    1  A    between atoms: C_2  and  C_3 
REMARK    2  A    between atoms: C_3  and  C_4 
REMARK    3  A    between atoms: C_4  and  O_5 
REMARK    4  A    between atoms: O_5  and  C_6 
REMARK    5  A    between atoms: C_9  and  C_10 
REMARK       I    between atoms: C_10  and  N_11 
REMARK    6  A    between atoms: N_11  and  C_12 
REMARK    7  A    between atoms: C_12  and  N_13 
REMARK    8  A    between atoms: N_13  and  C_14 
REMARK    9  A    between atoms: C_16  and  C_17 
REMARK   10  A    between atoms: C_27  and  O_28 
ROOT
HETATM    1  N   UNL     1      25.117  44.587  48.936  1.00  0.00    -0.333 N 
HETATM    2  H   UNL     1      25.779  45.243  48.530  1.00  0.00     0.168 HD
ENDROOT
BRANCH   1   3
HETATM    3  C   UNL     1      23.827  44.919  48.627  1.00  0.00     0.179 C 
HETATM    4  S   UNL     1      22.989  43.854  47.641  1.00  0.00    -0.040 SA
BRANCH   3   5
HETATM    5  N   UNL     1      23.300  46.036  49.219  1.00  0.00    -0.299 N 
HETATM    6  C   UNL     1      23.913  47.278  49.274  1.00  0.00     0.257 C 
HETATM    7  O   UNL     1      25.066  47.468  49.642  1.00  0.00    -0.267 OA
HETATM    8  H   UNL     1      22.290  46.021  49.255  1.00  0.00     0.171 HD
BRANCH   6   9
HETATM    9  C   UNL     1      23.013  48.435  49.085  1.00  0.00     0.032 A 
HETATM   10  C   UNL     1      21.641  48.208  48.958  1.00  0.00     0.020 A 
HETATM   11  C   UNL     1      20.764  49.288  48.815  1.00  0.00     0.038 A 
HETATM   12  C   UNL     1      21.256  50.595  48.820  1.00  0.00     0.068 A 
HETATM   13  C   UNL     1      22.630  50.814  48.971  1.00  0.00     0.038 A 
HETATM   14  C   UNL     1      23.515  49.738  49.097  1.00  0.00     0.020 A 
BRANCH  12  15
HETATM   15  O   UNL     1      20.503  51.733  48.716  1.00  0.00    -0.351 OA
BRANCH  15  16
HETATM   16  C   UNL     1      19.340  51.657  47.889  1.00  0.00     0.175 C 
BRANCH  16  17
HETATM   17  C   UNL     1      18.333  52.688  48.390  1.00  0.00     0.026 C 
BRANCH  17  18
HETATM   18  C   UNL     1      17.868  52.367  49.810  1.00  0.00    -0.002 C 
HETATM   19  C   UNL     1      16.423  52.781  50.034  1.00  0.00     0.005 C 
ENDBRANCH  17  18
ENDBRANCH  16  17
ENDBRANCH  15  16
ENDBRANCH  12  15
ENDBRANCH   6   9
ENDBRANCH   3   5
ENDBRANCH   1   3
BRANCH   1  20
HETATM   20  C   UNL     1      25.666  43.698  49.885  1.00  0.00     0.035 A 
HETATM   21  C   UNL     1      26.579  44.049  50.887  1.00  0.00     0.048 A 
HETATM   22  C   UNL     1      27.139  43.071  51.735  1.00  0.00     0.052 A 
HETATM   23  C   UNL     1      26.784  41.728  51.536  1.00  0.00     0.080 A 
HETATM   24  C   UNL     1      25.871  41.367  50.553  1.00  0.00     0.040 A 
HETATM   25  C   UNL     1      25.315  42.349  49.734  1.00  0.00     0.032 A 
BRANCH  22  26
HETATM   26  C   UNL     1      28.078  43.425  52.794  1.00  0.00     0.183 A 
HETATM   27  O   UNL     1      27.776  44.514  53.571  1.00  0.00    -0.289 OA
HETATM   28  C   UNL     1      28.761  44.521  54.518  1.00  0.00     0.107 A 
HETATM   29  C   UNL     1      29.611  43.460  54.255  1.00  0.00     0.093 A 
HETATM   30  C   UNL     1      28.908  45.407  55.580  1.00  0.00     0.046 A 
HETATM   31  N   UNL     1      29.160  42.759  53.166  1.00  0.00    -0.221 NA
HETATM   32  C   UNL     1      30.717  43.252  55.086  1.00  0.00     0.035 A 
HETATM   33  C   UNL     1      30.902  44.123  56.171  1.00  0.00     0.009 A 
HETATM   34  C   UNL     1      30.010  45.182  56.424  1.00  0.00    -0.059 A 
HETATM   35  C   UNL     1      30.238  46.059  57.624  1.00  0.00     0.048 C 
ENDBRANCH  22  26
BRANCH  23  36
HETATM   36  O   UNL     1      27.306  40.697  52.276  1.00  0.00    -0.360 OA
HETATM   37  H   UNL     1      27.220  40.922  53.229  1.00  0.00     0.217 HD
ENDBRANCH  23  36
ENDBRANCH   1  20
TORSDOF 10
ENDMDL
MODEL 6
REMARK VINA RESULT:      -9.3      3.339      5.119
REMARK  10 active torsions:
REMARK  status: ('A' for Active; 'I' for Inactive)
REMARK    1  A    between atoms: C_2  and  C_3 
REMARK    2  A    between atoms: C_3  and  C_4 
REMARK    3  A    between atoms: C_4  and  O_5 
REMARK    4  A    between atoms: O_5  and  C_6 
REMARK    5  A    between atoms: C_9  and  C_10 
REMARK       I    between atoms: C_10  and  N_11 
REMARK    6  A    between atoms: N_11  and  C_12 
REMARK    7  A    between atoms: C_12  and  N_13 
REMARK    8  A    between atoms: N_13  and  C_14 
REMARK    9  A    between atoms: C_16  and  C_17 
REMARK   10  A    between atoms: C_27  and  O_28 
ROOT
HETATM    1  N   UNL     1      25.678  42.184  48.207  1.00  0.00    -0.333 N 
HETATM    2  H   UNL     1      26.136  42.847  47.586  1.00  0.00     0.168 HD
ENDROOT
BRANCH   1   3
HETATM    3  C   UNL     1      24.320  42.200  48.046  1.00  0.00     0.179 C 
HETATM    4  S   UNL     1      23.605  40.780  47.520  1.00  0.00    -0.040 SA
BRANCH   3   5
HETATM    5  N   UNL     1      23.652  43.337  48.415  1.00  0.00    -0.299 N 
HETATM    6  C   UNL     1      23.769  43.974  49.641  1.00  0.00     0.257 C 
HETATM    7  O   UNL     1      23.679  43.413  50.727  1.00  0.00    -0.267 OA
HETATM    8  H   UNL     1      23.386  43.910  47.626  1.00  0.00     0.171 HD
BRANCH   6   9
HETATM    9  C   UNL     1      23.778  45.451  49.588  1.00  0.00     0.032 A 
HETATM   10  C   UNL     1      22.880  46.100  48.738  1.00  0.00     0.020 A 
HETATM   11  C   UNL     1      22.843  47.496  48.695  1.00  0.00     0.038 A 
HETATM   12  C   UNL     1      23.687  48.246  49.518  1.00  0.00     0.068 A 
HETATM   13  C   UNL     1      24.568  47.586  50.383  1.00  0.00     0.038 A 
HETATM   14  C   UNL     1      24.624  46.190  50.418  1.00  0.00     0.020 A 
BRANCH  12  15
HETATM   15  O   UNL     1      23.729  49.611  49.589  1.00  0.00    -0.351 OA
BRANCH  15  16
HETATM   16  C   UNL     1      23.002  50.327  48.589  1.00  0.00     0.175 C 
BRANCH  16  17
HETATM   17  C   UNL     1      21.779  50.956  49.249  1.00  0.00     0.026 C 
BRANCH  17  18
HETATM   18  C   UNL     1      20.661  51.194  48.236  1.00  0.00    -0.002 C 
HETATM   19  C   UNL     1      19.528  52.013  48.833  1.00  0.00     0.005 C 
ENDBRANCH  17  18
ENDBRANCH  16  17
ENDBRANCH  15  16
ENDBRANCH  12  15
ENDBRANCH   6   9
ENDBRANCH   3   5
ENDBRANCH   1   3
BRANCH   1  20
HETATM   20  C   UNL     1      26.508  41.636  49.209  1.00  0.00     0.035 A 
HETATM   21  C   UNL     1      27.087  42.357  50.261  1.00  0.00     0.048 A 
HETATM   22  C   UNL     1      27.974  41.736  51.164  1.00  0.00     0.052 A 
HETATM   23  C   UNL     1      28.290  40.382  50.971  1.00  0.00     0.080 A 
HETATM   24  C   UNL     1      27.714  39.653  49.938  1.00  0.00     0.040 A 
HETATM   25  C   UNL     1      26.827  40.279  49.064  1.00  0.00     0.032 A 
BRANCH  22  26
HETATM   26  C   UNL     1      28.571  42.470  52.275  1.00  0.00     0.183 A 
HETATM   27  O   UNL     1      27.846  43.501  52.816  1.00  0.00    -0.289 OA
HETATM   28  C   UNL     1      28.601  43.907  53.879  1.00  0.00     0.107 A 
HETATM   29  C   UNL     1      29.742  43.123  53.914  1.00  0.00     0.093 A 
HETATM   30  C   UNL     1      28.305  44.911  54.795  1.00  0.00     0.046 A 
HETATM   31  N   UNL     1      29.707  42.201  52.899  1.00  0.00    -0.221 NA
HETATM   32  C   UNL     1      30.692  43.347  54.917  1.00  0.00     0.035 A 
HETATM   33  C   UNL     1      30.430  44.351  55.862  1.00  0.00     0.009 A 
HETATM   34  C   UNL     1      29.253  45.120  55.812  1.00  0.00    -0.059 A 
HETATM   35  C   UNL     1      29.009  46.155  56.875  1.00  0.00     0.048 C 
ENDBRANCH  22  26
BRANCH  23  36
HETATM   36  O   UNL     1      29.175  39.698  51.766  1.00  0.00    -0.360 OA
HETATM   37  H   UNL     1      29.690  40.348  52.292  1.00  0.00     0.217 HD
ENDBRANCH  23  36
ENDBRANCH   1  20
TORSDOF 10
ENDMDL
MODEL 7
REMARK VINA RESULT:      -9.0      4.203      6.213
REMARK  10 active torsions:
REMARK  status: ('A' for Active; 'I' for Inactive)
REMARK    1  A    between atoms: C_2  and  C_3 
REMARK    2  A    between atoms: C_3  and  C_4 
REMARK    3  A    between atoms: C_4  and  O_5 
REMARK    4  A    between atoms: O_5  and  C_6 
REMARK    5  A    between atoms: C_9  and  C_10 
REMARK       I    between atoms: C_10  and  N_11 
REMARK    6  A    between atoms: N_11  and  C_12 
REMARK    7  A    between atoms: C_12  and  N_13 
REMARK    8  A    between atoms: N_13  and  C_14 
REMARK    9  A    between atoms: C_16  and  C_17 
REMARK   10  A    between atoms: C_27  and  O_28 
ROOT
HETATM    1  N   UNL     1      24.748  40.877  48.698  1.00  0.00    -0.333 N 
HETATM    2  H   UNL     1      23.935  40.286  48.858  1.00  0.00     0.168 HD
ENDROOT
BRANCH   1   3
HETATM    3  C   UNL     1      24.601  41.639  47.572  1.00  0.00     0.179 C 
HETATM    4  S   UNL     1      25.111  40.958  46.128  1.00  0.00    -0.040 SA
BRANCH   3   5
HETATM    5  N   UNL     1      23.970  42.847  47.702  1.00  0.00    -0.299 N 
HETATM    6  C   UNL     1      23.435  43.348  48.878  1.00  0.00     0.257 C 
HETATM    7  O   UNL     1      22.680  42.728  49.618  1.00  0.00    -0.267 OA
HETATM    8  H   UNL     1      24.267  43.522  47.010  1.00  0.00     0.171 HD
BRANCH   6   9
HETATM    9  C   UNL     1      23.632  44.797  49.095  1.00  0.00     0.032 A 
HETATM   10  C   UNL     1      22.777  45.697  48.455  1.00  0.00     0.020 A 
HETATM   11  C   UNL     1      22.919  47.070  48.672  1.00  0.00     0.038 A 
HETATM   12  C   UNL     1      23.902  47.545  49.544  1.00  0.00     0.068 A 
HETATM   13  C   UNL     1      24.740  46.634  50.199  1.00  0.00     0.038 A 
HETATM   14  C   UNL     1      24.615  45.259  49.973  1.00  0.00     0.020 A 
BRANCH  12  15
HETATM   15  O   UNL     1      24.125  48.857  49.860  1.00  0.00    -0.351 OA
BRANCH  15  16
HETATM   16  C   UNL     1      24.220  49.771  48.767  1.00  0.00     0.175 C 
BRANCH  16  17
HETATM   17  C   UNL     1      25.466  49.418  47.959  1.00  0.00     0.026 C 
BRANCH  17  18
HETATM   18  C   UNL     1      26.722  50.030  48.577  1.00  0.00    -0.002 C 
HETATM   19  C   UNL     1      27.611  48.970  49.206  1.00  0.00     0.005 C 
ENDBRANCH  17  18
ENDBRANCH  16  17
ENDBRANCH  15  16
ENDBRANCH  12  15
ENDBRANCH   6   9
ENDBRANCH   3   5
ENDBRANCH   1   3
BRANCH   1  20
HETATM   20  C   UNL     1      25.870  40.574  49.499  1.00  0.00     0.035 A 
HETATM   21  C   UNL     1      26.442  41.435  50.446  1.00  0.00     0.048 A 
HETATM   22  C   UNL     1      27.617  41.075  51.136  1.00  0.00     0.052 A 
HETATM   23  C   UNL     1      28.223  39.845  50.836  1.00  0.00     0.080 A 
HETATM   24  C   UNL     1      27.661  38.979  49.908  1.00  0.00     0.040 A 
HETATM   25  C   UNL     1      26.490  39.343  49.246  1.00  0.00     0.032 A 
BRANCH  22  26
HETATM   26  C   UNL     1      28.213  41.954  52.137  1.00  0.00     0.183 A 
HETATM   27  O   UNL     1      27.518  43.084  52.484  1.00  0.00    -0.289 OA
HETATM   28  C   UNL     1      28.260  43.626  53.495  1.00  0.00     0.107 A 
HETATM   29  C   UNL     1      29.365  42.815  53.692  1.00  0.00     0.093 A 
HETATM   30  C   UNL     1      27.981  44.773  54.230  1.00  0.00     0.046 A 
HETATM   31  N   UNL     1      29.319  41.745  52.835  1.00  0.00    -0.221 NA
HETATM   32  C   UNL     1      30.295  43.160  54.679  1.00  0.00     0.035 A 
HETATM   33  C   UNL     1      30.050  44.311  55.444  1.00  0.00     0.009 A 
HETATM   34  C   UNL     1      28.908  45.106  55.233  1.00  0.00    -0.059 A 
HETATM   35  C   UNL     1      28.679  46.305  56.111  1.00  0.00     0.048 C 
ENDBRANCH  22  26
BRANCH  23  36
HETATM   36  O   UNL     1      29.391  39.424  51.419  1.00  0.00    -0.360 OA
HETATM   37  H   UNL     1      29.826  40.195  51.844  1.00  0.00     0.217 HD
ENDBRANCH  23  36
ENDBRANCH   1  20
TORSDOF 10
ENDMDL
MODEL 8
REMARK VINA RESULT:      -9.0      2.730      4.011
REMARK  10 active torsions:
REMARK  status: ('A' for Active; 'I' for Inactive)
REMARK    1  A    between atoms: C_2  and  C_3 
REMARK    2  A    between atoms: C_3  and  C_4 
REMARK    3  A    between atoms: C_4  and  O_5 
REMARK    4  A    between atoms: O_5  and  C_6 
REMARK    5  A    between atoms: C_9  and  C_10 
REMARK       I    between atoms: C_10  and  N_11 
REMARK    6  A    between atoms: N_11  and  C_12 
REMARK    7  A    between atoms: C_12  and  N_13 
REMARK    8  A    between atoms: N_13  and  C_14 
REMARK    9  A    between atoms: C_16  and  C_17 
REMARK   10  A    between atoms: C_27  and  O_28 
ROOT
HETATM    1  N   UNL     1      25.904  44.361  49.501  1.00  0.00    -0.333 N 
HETATM    2  H   UNL     1      26.425  44.682  48.689  1.00  0.00     0.168 HD
ENDROOT
BRANCH   1   3
HETATM    3  C   UNL     1      25.046  43.345  49.180  1.00  0.00     0.179 C 
HETATM    4  S   UNL     1      25.544  41.790  49.555  1.00  0.00    -0.040 SA
BRANCH   3   5
HETATM    5  N   UNL     1      23.823  43.687  48.668  1.00  0.00    -0.299 N 
HETATM    6  C   UNL     1      22.725  44.084  49.414  1.00  0.00     0.257 C 
HETATM    7  O   UNL     1      22.292  43.480  50.389  1.00  0.00    -0.267 OA
HETATM    8  H   UNL     1      23.876  44.025  47.716  1.00  0.00     0.171 HD
BRANCH   6   9
HETATM    9  C   UNL     1      21.924  45.179  48.827  1.00  0.00     0.032 A 
HETATM   10  C   UNL     1      22.585  46.301  48.322  1.00  0.00     0.020 A 
HETATM   11  C   UNL     1      21.854  47.334  47.729  1.00  0.00     0.038 A 
HETATM   12  C   UNL     1      20.465  47.238  47.621  1.00  0.00     0.068 A 
HETATM   13  C   UNL     1      19.813  46.099  48.109  1.00  0.00     0.038 A 
HETATM   14  C   UNL     1      20.536  45.070  48.720  1.00  0.00     0.020 A 
BRANCH  12  15
HETATM   15  O   UNL     1      19.642  48.164  47.041  1.00  0.00    -0.351 OA
BRANCH  15  16
HETATM   16  C   UNL     1      19.262  49.279  47.850  1.00  0.00     0.175 C 
BRANCH  16  17
HETATM   17  C   UNL     1      19.985  50.516  47.324  1.00  0.00     0.026 C 
BRANCH  17  18
HETATM   18  C   UNL     1      20.515  51.378  48.468  1.00  0.00    -0.002 C 
HETATM   19  C   UNL     1      21.872  50.896  48.952  1.00  0.00     0.005 C 
ENDBRANCH  17  18
ENDBRANCH  16  17
ENDBRANCH  15  16
ENDBRANCH  12  15
ENDBRANCH   6   9
ENDBRANCH   3   5
ENDBRANCH   1   3
BRANCH   1  20
HETATM   20  C   UNL     1      26.009  45.188  50.641  1.00  0.00     0.035 A 
HETATM   21  C   UNL     1      26.839  44.943  51.742  1.00  0.00     0.048 A 
HETATM   22  C   UNL     1      26.810  45.784  52.874  1.00  0.00     0.052 A 
HETATM   23  C   UNL     1      25.909  46.860  52.888  1.00  0.00     0.080 A 
HETATM   24  C   UNL     1      25.088  47.120  51.798  1.00  0.00     0.040 A 
HETATM   25  C   UNL     1      25.141  46.288  50.681  1.00  0.00     0.032 A 
BRANCH  22  26
HETATM   26  C   UNL     1      27.682  45.551  54.020  1.00  0.00     0.183 A 
HETATM   27  O   UNL     1      28.573  44.512  53.939  1.00  0.00    -0.289 OA
HETATM   28  C   UNL     1      29.303  44.618  55.089  1.00  0.00     0.107 A 
HETATM   29  C   UNL     1      28.807  45.692  55.809  1.00  0.00     0.093 A 
HETATM   30  C   UNL     1      30.369  43.822  55.491  1.00  0.00     0.046 A 
HETATM   31  N   UNL     1      27.787  46.289  55.114  1.00  0.00    -0.221 NA
HETATM   32  C   UNL     1      29.386  46.010  57.042  1.00  0.00     0.035 A 
HETATM   33  C   UNL     1      30.467  45.231  57.485  1.00  0.00     0.009 A 
HETATM   34  C   UNL     1      30.961  44.156  56.722  1.00  0.00    -0.059 A 
HETATM   35  C   UNL     1      32.146  43.382  57.230  1.00  0.00     0.048 C 
ENDBRANCH  22  26
BRANCH  23  36
HETATM   36  O   UNL     1      25.772  47.708  53.957  1.00  0.00    -0.360 OA
HETATM   37  H   UNL     1      26.227  48.553  53.747  1.00  0.00     0.217 HD
ENDBRANCH  23  36
ENDBRANCH   1  20
TORSDOF 10
ENDMDL
MODEL 9
REMARK VINA RESULT:      -8.7      3.994      5.911
REMARK  10 active torsions:
REMARK  status: ('A' for Active; 'I' for Inactive)
REMARK    1  A    between atoms: C_2  and  C_3 
REMARK    2  A    between atoms: C_3  and  C_4 
REMARK    3  A    between atoms: C_4  and  O_5 
REMARK    4  A    between atoms: O_5  and  C_6 
REMARK    5  A    between atoms: C_9  and  C_10 
REMARK       I    between atoms: C_10  and  N_11 
REMARK    6  A    between atoms: N_11  and  C_12 
REMARK    7  A    between atoms: C_12  and  N_13 
REMARK    8  A    between atoms: N_13  and  C_14 
REMARK    9  A    between atoms: C_16  and  C_17 
REMARK   10  A    between atoms: C_27  and  O_28 
ROOT
HETATM    1  N   UNL     1      26.340  41.184  47.165  1.00  0.00    -0.333 N 
HETATM    2  H   UNL     1      26.923  41.695  46.506  1.00  0.00     0.168 HD
ENDROOT
BRANCH   1   3
HETATM    3  C   UNL     1      25.020  41.235  46.813  1.00  0.00     0.179 C 
HETATM    4  S   UNL     1      24.336  39.818  46.237  1.00  0.00    -0.040 SA
BRANCH   3   5
HETATM    5  N   UNL     1      24.347  42.405  47.047  1.00  0.00    -0.299 N 
HETATM    6  C   UNL     1      23.615  42.694  48.188  1.00  0.00     0.257 C 
HETATM    7  O   UNL     1      22.764  41.957  48.674  1.00  0.00    -0.267 OA
HETATM    8  H   UNL     1      24.737  43.190  46.543  1.00  0.00     0.171 HD
BRANCH   6   9
HETATM    9  C   UNL     1      23.740  44.081  48.685  1.00  0.00     0.032 A 
HETATM   10  C   UNL     1      24.906  44.453  49.358  1.00  0.00     0.020 A 
HETATM   11  C   UNL     1      25.064  45.768  49.806  1.00  0.00     0.038 A 
HETATM   12  C   UNL     1      24.068  46.716  49.562  1.00  0.00     0.068 A 
HETATM   13  C   UNL     1      22.913  46.339  48.866  1.00  0.00     0.038 A 
HETATM   14  C   UNL     1      22.740  45.022  48.432  1.00  0.00     0.020 A 
BRANCH  12  15
HETATM   15  O   UNL     1      24.115  48.035  49.924  1.00  0.00    -0.351 OA
BRANCH  15  16
HETATM   16  C   UNL     1      23.020  48.852  49.507  1.00  0.00     0.175 C 
BRANCH  16  17
HETATM   17  C   UNL     1      23.563  49.945  48.591  1.00  0.00     0.026 C 
BRANCH  17  18
HETATM   18  C   UNL     1      22.814  51.261  48.791  1.00  0.00    -0.002 C 
HETATM   19  C   UNL     1      21.368  51.158  48.335  1.00  0.00     0.005 C 
ENDBRANCH  17  18
ENDBRANCH  16  17
ENDBRANCH  15  16
ENDBRANCH  12  15
ENDBRANCH   6   9
ENDBRANCH   3   5
ENDBRANCH   1   3
BRANCH   1  20
HETATM   20  C   UNL     1      26.991  40.794  48.356  1.00  0.00     0.035 A 
HETATM   21  C   UNL     1      27.183  41.613  49.476  1.00  0.00     0.048 A 
HETATM   22  C   UNL     1      27.923  41.160  50.587  1.00  0.00     0.052 A 
HETATM   23  C   UNL     1      28.490  39.877  50.539  1.00  0.00     0.080 A 
HETATM   24  C   UNL     1      28.298  39.051  49.439  1.00  0.00     0.040 A 
HETATM   25  C   UNL     1      27.550  39.509  48.355  1.00  0.00     0.032 A 
BRANCH  22  26
HETATM   26  C   UNL     1      28.117  41.996  51.768  1.00  0.00     0.183 A 
HETATM   27  O   UNL     1      29.293  41.854  52.459  1.00  0.00    -0.289 OA
HETATM   28  C   UNL     1      29.225  42.824  53.419  1.00  0.00     0.107 A 
HETATM   29  C   UNL     1      28.016  43.483  53.272  1.00  0.00     0.093 A 
HETATM   30  C   UNL     1      30.184  43.137  54.376  1.00  0.00     0.046 A 
HETATM   31  N   UNL     1      27.324  42.960  52.210  1.00  0.00    -0.221 NA
HETATM   32  C   UNL     1      27.699  44.527  54.148  1.00  0.00     0.035 A 
HETATM   33  C   UNL     1      28.640  44.875  55.129  1.00  0.00     0.009 A 
HETATM   34  C   UNL     1      29.869  44.199  55.242  1.00  0.00    -0.059 A 
HETATM   35  C   UNL     1      30.855  44.643  56.288  1.00  0.00     0.048 C 
ENDBRANCH  22  26
BRANCH  23  36
HETATM   36  O   UNL     1      29.263  39.361  51.548  1.00  0.00    -0.360 OA
HETATM   37  H   UNL     1      28.686  38.843  52.151  1.00  0.00     0.217 HD
ENDBRANCH  23  36
ENDBRANCH   1  20
TORSDOF 10
ENDMDL
MODEL 10
REMARK VINA RESULT:      -8.7      2.990     11.191
REMARK  10 active torsions:
REMARK  status: ('A' for Active; 'I' for Inactive)
REMARK    1  A    between atoms: C_2  and  C_3 
REMARK    2  A    between atoms: C_3  and  C_4 
REMARK    3  A    between atoms: C_4  and  O_5 
REMARK    4  A    between atoms: O_5  and  C_6 
REMARK    5  A    between atoms: C_9  and  C_10 
REMARK       I    between atoms: C_10  and  N_11 
REMARK    6  A    between atoms: N_11  and  C_12 
REMARK    7  A    between atoms: C_12  and  N_13 
REMARK    8  A    between atoms: N_13  and  C_14 
REMARK    9  A    between atoms: C_16  and  C_17 
REMARK   10  A    between atoms: C_27  and  O_28 
ROOT
HETATM    1  N   UNL     1      24.886  43.380  48.563  1.00  0.00    -0.333 N 
HETATM    2  H   UNL     1      25.178  43.245  47.599  1.00  0.00     0.168 HD
ENDROOT
BRANCH   1   3
HETATM    3  C   UNL     1      24.487  42.206  49.139  1.00  0.00     0.179 C 
HETATM    4  S   UNL     1      23.135  41.464  48.483  1.00  0.00    -0.040 SA
BRANCH   3   5
HETATM    5  N   UNL     1      25.273  41.689  50.134  1.00  0.00    -0.299 N 
HETATM    6  C   UNL     1      26.654  41.577  50.088  1.00  0.00     0.257 C 
HETATM    7  O   UNL     1      27.280  41.080  49.158  1.00  0.00    -0.267 OA
HETATM    8  H   UNL     1      24.851  41.770  51.049  1.00  0.00     0.171 HD
BRANCH   6   9
HETATM    9  C   UNL     1      27.355  41.880  51.353  1.00  0.00     0.032 A 
HETATM   10  C   UNL     1      28.334  40.995  51.810  1.00  0.00     0.020 A 
HETATM   11  C   UNL     1      29.038  41.277  52.984  1.00  0.00     0.038 A 
HETATM   12  C   UNL     1      28.779  42.454  53.691  1.00  0.00     0.068 A 
HETATM   13  C   UNL     1      27.812  43.346  53.213  1.00  0.00     0.038 A 
HETATM   14  C   UNL     1      27.091  43.062  52.049  1.00  0.00     0.020 A 
BRANCH  12  15
HETATM   15  O   UNL     1      29.414  42.856  54.834  1.00  0.00    -0.351 OA
BRANCH  15  16
HETATM   16  C   UNL     1      29.398  44.256  55.117  1.00  0.00     0.175 C 
BRANCH  16  17
HETATM   17  C   UNL     1      30.777  44.652  55.637  1.00  0.00     0.026 C 
BRANCH  17  18
HETATM   18  C   UNL     1      30.969  44.220  57.089  1.00  0.00    -0.002 C 
HETATM   19  C   UNL     1      31.984  43.096  57.211  1.00  0.00     0.005 C 
ENDBRANCH  17  18
ENDBRANCH  16  17
ENDBRANCH  15  16
ENDBRANCH  12  15
ENDBRANCH   6   9
ENDBRANCH   3   5
ENDBRANCH   1   3
BRANCH   1  20
HETATM   20  C   UNL     1      24.729  44.729  48.953  1.00  0.00     0.035 A 
HETATM   21  C   UNL     1      23.601  45.518  48.693  1.00  0.00     0.048 A 
HETATM   22  C   UNL     1      23.574  46.883  49.047  1.00  0.00     0.052 A 
HETATM   23  C   UNL     1      24.714  47.446  49.641  1.00  0.00     0.080 A 
HETATM   24  C   UNL     1      25.835  46.671  49.914  1.00  0.00     0.040 A 
HETATM   25  C   UNL     1      25.839  45.320  49.572  1.00  0.00     0.032 A 
BRANCH  22  26
HETATM   26  C   UNL     1      22.400  47.712  48.798  1.00  0.00     0.183 A 
HETATM   27  O   UNL     1      22.428  49.006  49.254  1.00  0.00    -0.289 OA
HETATM   28  C   UNL     1      21.264  49.543  48.782  1.00  0.00     0.107 A 
HETATM   29  C   UNL     1      20.589  48.552  48.089  1.00  0.00     0.093 A 
HETATM   30  C   UNL     1      20.812  50.849  48.933  1.00  0.00     0.046 A 
HETATM   31  N   UNL     1      21.326  47.396  48.091  1.00  0.00    -0.221 NA
HETATM   32  C   UNL     1      19.352  48.850  47.509  1.00  0.00     0.035 A 
HETATM   33  C   UNL     1      18.859  50.159  47.638  1.00  0.00     0.009 A 
HETATM   34  C   UNL     1      19.577  51.150  48.332  1.00  0.00    -0.059 A 
HETATM   35  C   UNL     1      19.018  52.544  48.403  1.00  0.00     0.048 C 
ENDBRANCH  22  26
BRANCH  23  36
HETATM   36  O   UNL     1      24.804  48.771  49.982  1.00  0.00    -0.360 OA
HETATM   37  H   UNL     1      25.607  48.900  50.532  1.00  0.00     0.217 HD
ENDBRANCH  23  36
ENDBRANCH   1  20
TORSDOF 10
ENDMDL
