MODEL 1
REMARK VINA RESULT:      -7.4      0.000      0.000
REMARK  6 active torsions:
REMARK  status: ('A' for Active; 'I' for Inactive)
REMARK    1  A    between atoms: C_2  and  O_3 
REMARK    2  A    between atoms: O_3  and  C_4 
REMARK    3  A    between atoms: C_4  and  C_5 
REMARK    4  A    between atoms: C_6  and  O_7 
REMARK    5  A    between atoms: C_12  and  O_13 
REMARK    6  A    between atoms: C_17  and  C_18 
ROOT
HETATM    1  C   UNL     1      33.070  51.880  40.734  1.00  0.00     0.133 C 
HETATM    2  C   UNL     1      33.788  51.407  42.046  1.00  0.00     0.073 C 
HETATM    3  C   UNL     1      32.852  51.563  43.256  1.00  0.00     0.047 C 
HETATM    4  C   UNL     1      34.318  49.947  41.986  1.00  0.00     0.097 C 
HETATM    5  C   UNL     1      33.307  49.074  41.352  1.00  0.00     0.042 A 
HETATM    6  C   UNL     1      32.308  49.460  40.482  1.00  0.00     0.030 A 
HETATM    7  C   UNL     1      31.682  48.243  40.162  1.00  0.00     0.190 A 
HETATM    8  N   UNL     1      32.208  47.192  40.779  1.00  0.00    -0.149 NA
HETATM    9  N   UNL     1      33.207  47.722  41.504  1.00  0.00    -0.279 N 
HETATM   10  H   UNL     1      33.778  47.099  42.067  1.00  0.00     0.189 HD
HETATM   11  C   UNL     1      32.125  50.867  40.024  1.00  0.00     0.075 C 
ENDROOT
BRANCH  11  12
HETATM   12  C   UNL     1      30.654  51.241  40.144  1.00  0.00    -0.045 A 
HETATM   13  C   UNL     1      29.818  51.504  39.047  1.00  0.00     0.050 A 
HETATM   14  C   UNL     1      28.476  51.820  39.243  1.00  0.00     0.117 A 
HETATM   15  F   UNL     1      27.698  52.072  38.183  1.00  0.00    -0.206 F 
HETATM   16  C   UNL     1      27.929  51.879  40.519  1.00  0.00     0.042 A 
HETATM   17  C   UNL     1      28.737  51.613  41.619  1.00  0.00     0.004 A 
HETATM   18  C   UNL     1      30.085  51.291  41.432  1.00  0.00     0.008 A 
ENDBRANCH  11  12
BRANCH   1  19
HETATM   19  C   UNL     1      34.104  52.296  39.706  1.00  0.00     0.267 C 
HETATM   20  O   UNL     1      34.532  51.572  38.818  1.00  0.00    -0.265 OA
BRANCH  19  21
HETATM   21  O   UNL     1      34.484  53.586  39.922  1.00  0.00    -0.316 OA
BRANCH  21  22
HETATM   22  C   UNL     1      35.653  54.044  39.215  1.00  0.00     0.123 C 
HETATM   23  C   UNL     1      36.909  53.778  40.038  1.00  0.00     0.040 C 
HETATM   24  C   UNL     1      35.473  55.541  38.993  1.00  0.00     0.040 C 
ENDBRANCH  21  22
ENDBRANCH  19  21
ENDBRANCH   1  19
BRANCH   2  25
HETATM   25  O   UNL     1      34.890  52.287  42.344  1.00  0.00    -0.389 OA
HETATM   26  H   UNL     1      34.636  53.193  42.076  1.00  0.00     0.210 HD
ENDBRANCH   2  25
BRANCH   7  27
HETATM   27  O   UNL     1      30.651  47.998  39.351  1.00  0.00    -0.343 OA
HETATM   28  H   UNL     1      30.625  47.056  39.129  1.00  0.00     0.219 HD
ENDBRANCH   7  27
TORSDOF 6
ENDMDL
MODEL 2
REMARK VINA RESULT:      -7.3      3.058      4.586
REMARK  6 active torsions:
REMARK  status: ('A' for Active; 'I' for Inactive)
REMARK    1  A    between atoms: C_2  and  O_3 
REMARK    2  A    between atoms: O_3  and  C_4 
REMARK    3  A    between atoms: C_4  and  C_5 
REMARK    4  A    between atoms: C_6  and  O_7 
REMARK    5  A    between atoms: C_12  and  O_13 
REMARK    6  A    between atoms: C_17  and  C_18 
ROOT
HETATM    1  C   UNL     1      31.716  49.875  39.972  1.00  0.00     0.133 C 
HETATM    2  C   UNL     1      31.984  51.196  39.169  1.00  0.00     0.073 C 
HETATM    3  C   UNL     1      31.354  51.110  37.769  1.00  0.00     0.047 C 
HETATM    4  C   UNL     1      31.484  52.482  39.884  1.00  0.00     0.097 C 
HETATM    5  C   UNL     1      30.148  52.242  40.470  1.00  0.00     0.042 A 
HETATM    6  C   UNL     1      29.608  51.024  40.829  1.00  0.00     0.030 A 
HETATM    7  C   UNL     1      28.358  51.380  41.363  1.00  0.00     0.190 A 
HETATM    8  N   UNL     1      28.112  52.684  41.330  1.00  0.00    -0.149 NA
HETATM    9  N   UNL     1      29.225  53.197  40.779  1.00  0.00    -0.279 N 
HETATM   10  H   UNL     1      29.282  54.204  40.656  1.00  0.00     0.189 HD
HETATM   11  C   UNL     1      30.344  49.734  40.693  1.00  0.00     0.075 C 
ENDROOT
BRANCH  11  12
HETATM   12  C   UNL     1      29.430  48.707  40.039  1.00  0.00    -0.045 A 
HETATM   13  C   UNL     1      28.600  48.981  38.940  1.00  0.00     0.050 A 
HETATM   14  C   UNL     1      27.808  47.977  38.387  1.00  0.00     0.117 A 
HETATM   15  F   UNL     1      27.021  48.262  37.342  1.00  0.00    -0.206 F 
HETATM   16  C   UNL     1      27.817  46.687  38.901  1.00  0.00     0.042 A 
HETATM   17  C   UNL     1      28.638  46.392  39.985  1.00  0.00     0.004 A 
HETATM   18  C   UNL     1      29.441  47.391  40.544  1.00  0.00     0.008 A 
ENDBRANCH  11  12
BRANCH   1  19
HETATM   19  C   UNL     1      32.781  49.698  41.037  1.00  0.00     0.267 C 
HETATM   20  O   UNL     1      33.262  48.622  41.368  1.00  0.00    -0.265 OA
BRANCH  19  21
HETATM   21  O   UNL     1      33.115  50.906  41.569  1.00  0.00    -0.316 OA
BRANCH  21  22
HETATM   22  C   UNL     1      33.259  50.966  43.001  1.00  0.00     0.123 C 
HETATM   23  C   UNL     1      32.098  51.739  43.619  1.00  0.00     0.040 C 
HETATM   24  C   UNL     1      34.577  51.679  43.279  1.00  0.00     0.040 C 
ENDBRANCH  21  22
ENDBRANCH  19  21
ENDBRANCH   1  19
BRANCH   2  25
HETATM   25  O   UNL     1      33.395  51.330  38.907  1.00  0.00    -0.389 OA
HETATM   26  H   UNL     1      33.552  52.223  38.539  1.00  0.00     0.210 HD
ENDBRANCH   2  25
BRANCH   7  27
HETATM   27  O   UNL     1      27.398  50.610  41.881  1.00  0.00    -0.343 OA
HETATM   28  H   UNL     1      26.671  51.164  42.201  1.00  0.00     0.219 HD
ENDBRANCH   7  27
TORSDOF 6
ENDMDL
MODEL 3
REMARK VINA RESULT:      -7.2      3.529      6.497
REMARK  6 active torsions:
REMARK  status: ('A' for Active; 'I' for Inactive)
REMARK    1  A    between atoms: C_2  and  O_3 
REMARK    2  A    between atoms: O_3  and  C_4 
REMARK    3  A    between atoms: C_4  and  C_5 
REMARK    4  A    between atoms: C_6  and  O_7 
REMARK    5  A    between atoms: C_12  and  O_13 
REMARK    6  A    between atoms: C_17  and  C_18 
ROOT
HETATM    1  C   UNL     1      28.820  50.308  41.039  1.00  0.00     0.133 C 
HETATM    2  C   UNL     1      27.930  51.443  40.421  1.00  0.00     0.073 C 
HETATM    3  C   UNL     1      28.266  52.798  41.065  1.00  0.00     0.047 C 
HETATM    4  C   UNL     1      28.039  51.561  38.876  1.00  0.00     0.097 C 
HETATM    5  C   UNL     1      29.454  51.437  38.463  1.00  0.00     0.042 A 
HETATM    6  C   UNL     1      30.468  50.813  39.160  1.00  0.00     0.030 A 
HETATM    7  C   UNL     1      31.571  50.953  38.301  1.00  0.00     0.190 A 
HETATM    8  N   UNL     1      31.300  51.616  37.184  1.00  0.00    -0.149 NA
HETATM    9  N   UNL     1      29.993  51.904  37.301  1.00  0.00    -0.279 N 
HETATM   10  H   UNL     1      29.542  52.411  36.545  1.00  0.00     0.189 HD
HETATM   11  C   UNL     1      30.256  50.125  40.466  1.00  0.00     0.075 C 
ENDROOT
BRANCH  11  12
HETATM   12  C   UNL     1      31.345  50.560  41.438  1.00  0.00    -0.045 A 
HETATM   13  C   UNL     1      32.654  50.053  41.429  1.00  0.00     0.050 A 
HETATM   14  C   UNL     1      33.597  50.520  42.342  1.00  0.00     0.117 A 
HETATM   15  F   UNL     1      34.838  50.020  42.319  1.00  0.00    -0.206 F 
HETATM   16  C   UNL     1      33.273  51.496  43.277  1.00  0.00     0.042 A 
HETATM   17  C   UNL     1      31.984  52.017  43.298  1.00  0.00     0.004 A 
HETATM   18  C   UNL     1      31.031  51.558  42.383  1.00  0.00     0.008 A 
ENDBRANCH  11  12
BRANCH   1  19
HETATM   19  C   UNL     1      28.124  48.970  40.886  1.00  0.00     0.267 C 
HETATM   20  O   UNL     1      26.940  48.770  41.123  1.00  0.00    -0.265 OA
BRANCH  19  21
HETATM   21  O   UNL     1      29.010  48.029  40.453  1.00  0.00    -0.316 OA
BRANCH  21  22
HETATM   22  C   UNL     1      28.534  47.099  39.462  1.00  0.00     0.123 C 
HETATM   23  C   UNL     1      28.371  45.710  40.073  1.00  0.00     0.040 C 
HETATM   24  C   UNL     1      29.577  47.069  38.352  1.00  0.00     0.040 C 
ENDBRANCH  21  22
ENDBRANCH  19  21
ENDBRANCH   1  19
BRANCH   2  25
HETATM   25  O   UNL     1      26.549  51.225  40.773  1.00  0.00    -0.389 OA
HETATM   26  H   UNL     1      26.021  51.234  39.949  1.00  0.00     0.210 HD
ENDBRANCH   2  25
BRANCH   7  27
HETATM   27  O   UNL     1      32.829  50.531  38.448  1.00  0.00    -0.343 OA
HETATM   28  H   UNL     1      32.847  49.564  38.492  1.00  0.00     0.219 HD
ENDBRANCH   7  27
TORSDOF 6
ENDMDL
MODEL 4
REMARK VINA RESULT:      -7.2      3.187      5.712
REMARK  6 active torsions:
REMARK  status: ('A' for Active; 'I' for Inactive)
REMARK    1  A    between atoms: C_2  and  O_3 
REMARK    2  A    between atoms: O_3  and  C_4 
REMARK    3  A    between atoms: C_4  and  C_5 
REMARK    4  A    between atoms: C_6  and  O_7 
REMARK    5  A    between atoms: C_12  and  O_13 
REMARK    6  A    between atoms: C_17  and  C_18 
ROOT
HETATM    1  C   UNL     1      30.728  51.761  40.620  1.00  0.00     0.133 C 
HETATM    2  C   UNL     1      30.968  51.482  39.095  1.00  0.00     0.073 C 
HETATM    3  C   UNL     1      32.401  51.874  38.697  1.00  0.00     0.047 C 
HETATM    4  C   UNL     1      30.697  50.011  38.672  1.00  0.00     0.097 C 
HETATM    5  C   UNL     1      31.259  49.088  39.680  1.00  0.00     0.042 A 
HETATM    6  C   UNL     1      31.512  49.366  41.008  1.00  0.00     0.030 A 
HETATM    7  C   UNL     1      31.990  48.140  41.500  1.00  0.00     0.190 A 
HETATM    8  N   UNL     1      32.059  47.184  40.581  1.00  0.00    -0.149 NA
HETATM    9  N   UNL     1      31.603  47.785  39.470  1.00  0.00    -0.279 N 
HETATM   10  H   UNL     1      31.550  47.241  38.615  1.00  0.00     0.189 HD
HETATM   11  C   UNL     1      31.211  50.685  41.636  1.00  0.00     0.075 C 
ENDROOT
BRANCH  11  12
HETATM   12  C   UNL     1      32.418  51.133  42.449  1.00  0.00    -0.045 A 
HETATM   13  C   UNL     1      33.732  51.156  41.958  1.00  0.00     0.050 A 
HETATM   14  C   UNL     1      34.779  51.600  42.763  1.00  0.00     0.117 A 
HETATM   15  F   UNL     1      36.026  51.609  42.276  1.00  0.00    -0.206 F 
HETATM   16  C   UNL     1      34.553  52.033  44.064  1.00  0.00     0.042 A 
HETATM   17  C   UNL     1      33.257  52.027  44.568  1.00  0.00     0.004 A 
HETATM   18  C   UNL     1      32.199  51.587  43.766  1.00  0.00     0.008 A 
ENDBRANCH  11  12
BRANCH   1  19
HETATM   19  C   UNL     1      29.247  51.959  40.878  1.00  0.00     0.267 C 
HETATM   20  O   UNL     1      28.781  52.746  41.691  1.00  0.00    -0.265 OA
BRANCH  19  21
HETATM   21  O   UNL     1      28.519  51.132  40.077  1.00  0.00    -0.316 OA
BRANCH  21  22
HETATM   22  C   UNL     1      27.398  50.462  40.686  1.00  0.00     0.123 C 
HETATM   23  C   UNL     1      27.876  49.273  41.514  1.00  0.00     0.040 C 
HETATM   24  C   UNL     1      26.500  49.988  39.550  1.00  0.00     0.040 C 
ENDBRANCH  21  22
ENDBRANCH  19  21
ENDBRANCH   1  19
BRANCH   2  25
HETATM   25  O   UNL     1      30.137  52.353  38.303  1.00  0.00    -0.389 OA
HETATM   26  H   UNL     1      30.591  52.515  37.452  1.00  0.00     0.210 HD
ENDBRANCH   2  25
BRANCH   7  27
HETATM   27  O   UNL     1      32.385  47.807  42.731  1.00  0.00    -0.343 OA
HETATM   28  H   UNL     1      33.207  48.271  42.948  1.00  0.00     0.219 HD
ENDBRANCH   7  27
TORSDOF 6
ENDMDL
MODEL 5
REMARK VINA RESULT:      -6.9     13.154     15.920
REMARK  6 active torsions:
REMARK  status: ('A' for Active; 'I' for Inactive)
REMARK    1  A    between atoms: C_2  and  O_3 
REMARK    2  A    between atoms: O_3  and  C_4 
REMARK    3  A    between atoms: C_4  and  C_5 
REMARK    4  A    between atoms: C_6  and  O_7 
REMARK    5  A    between atoms: C_12  and  O_13 
REMARK    6  A    between atoms: C_17  and  C_18 
ROOT
HETATM    1  C   UNL     1      19.590  48.291  46.874  1.00  0.00     0.133 C 
HETATM    2  C   UNL     1      18.888  46.959  47.315  1.00  0.00     0.073 C 
HETATM    3  C   UNL     1      19.936  45.906  47.713  1.00  0.00     0.047 C 
HETATM    4  C   UNL     1      17.865  47.136  48.471  1.00  0.00     0.097 C 
HETATM    5  C   UNL     1      18.424  48.041  49.498  1.00  0.00     0.042 A 
HETATM    6  C   UNL     1      19.400  48.998  49.316  1.00  0.00     0.030 A 
HETATM    7  C   UNL     1      19.510  49.582  50.589  1.00  0.00     0.190 A 
HETATM    8  N   UNL     1      18.707  49.041  51.498  1.00  0.00    -0.149 NA
HETATM    9  N   UNL     1      18.046  48.097  50.808  1.00  0.00    -0.279 N 
HETATM   10  H   UNL     1      17.350  47.542  51.296  1.00  0.00     0.189 HD
HETATM   11  C   UNL     1      20.030  49.279  47.993  1.00  0.00     0.075 C 
ENDROOT
BRANCH  11  12
HETATM   12  C   UNL     1      21.541  49.348  48.167  1.00  0.00    -0.045 A 
HETATM   13  C   UNL     1      22.320  48.302  48.686  1.00  0.00     0.050 A 
HETATM   14  C   UNL     1      23.703  48.439  48.794  1.00  0.00     0.117 A 
HETATM   15  F   UNL     1      24.426  47.431  49.295  1.00  0.00    -0.206 F 
HETATM   16  C   UNL     1      24.344  49.604  48.391  1.00  0.00     0.042 A 
HETATM   17  C   UNL     1      23.592  50.649  47.867  1.00  0.00     0.004 A 
HETATM   18  C   UNL     1      22.204  50.520  47.750  1.00  0.00     0.008 A 
ENDBRANCH  11  12
BRANCH   1  19
HETATM   19  C   UNL     1      18.677  49.070  45.948  1.00  0.00     0.267 C 
HETATM   20  O   UNL     1      18.408  48.745  44.800  1.00  0.00    -0.265 OA
BRANCH  19  21
HETATM   21  O   UNL     1      18.207  50.181  46.582  1.00  0.00    -0.316 OA
BRANCH  21  22
HETATM   22  C   UNL     1      16.807  50.477  46.418  1.00  0.00     0.123 C 
HETATM   23  C   UNL     1      16.627  51.835  45.746  1.00  0.00     0.040 C 
HETATM   24  C   UNL     1      16.195  50.493  47.814  1.00  0.00     0.040 C 
ENDBRANCH  21  22
ENDBRANCH  19  21
ENDBRANCH   1  19
BRANCH   2  25
HETATM   25  O   UNL     1      18.213  46.367  46.186  1.00  0.00    -0.389 OA
HETATM   26  H   UNL     1      17.249  46.452  46.330  1.00  0.00     0.210 HD
ENDBRANCH   2  25
BRANCH   7  27
HETATM   27  O   UNL     1      20.296  50.576  51.011  1.00  0.00    -0.343 OA
HETATM   28  H   UNL     1      19.855  51.426  50.866  1.00  0.00     0.219 HD
ENDBRANCH   7  27
TORSDOF 6
ENDMDL
MODEL 6
REMARK VINA RESULT:      -6.6     13.224     16.022
REMARK  6 active torsions:
REMARK  status: ('A' for Active; 'I' for Inactive)
REMARK    1  A    between atoms: C_2  and  O_3 
REMARK    2  A    between atoms: O_3  and  C_4 
REMARK    3  A    between atoms: C_4  and  C_5 
REMARK    4  A    between atoms: C_6  and  O_7 
REMARK    5  A    between atoms: C_12  and  O_13 
REMARK    6  A    between atoms: C_17  and  C_18 
ROOT
HETATM    1  C   UNL     1      18.652  49.773  48.451  1.00  0.00     0.133 C 
HETATM    2  C   UNL     1      18.635  50.258  49.943  1.00  0.00     0.073 C 
HETATM    3  C   UNL     1      18.583  49.054  50.898  1.00  0.00     0.047 C 
HETATM    4  C   UNL     1      19.832  51.172  50.324  1.00  0.00     0.097 C 
HETATM    5  C   UNL     1      21.080  50.627  49.749  1.00  0.00     0.042 A 
HETATM    6  C   UNL     1      21.193  49.798  48.651  1.00  0.00     0.030 A 
HETATM    7  C   UNL     1      22.583  49.631  48.526  1.00  0.00     0.190 A 
HETATM    8  N   UNL     1      23.285  50.266  49.456  1.00  0.00    -0.149 NA
HETATM    9  N   UNL     1      22.344  50.874  50.198  1.00  0.00    -0.279 N 
HETATM   10  H   UNL     1      22.643  51.443  50.983  1.00  0.00     0.189 HD
HETATM   11  C   UNL     1      20.022  49.345  47.847  1.00  0.00     0.075 C 
ENDROOT
BRANCH  11  12
HETATM   12  C   UNL     1      20.129  47.844  47.616  1.00  0.00    -0.045 A 
HETATM   13  C   UNL     1      20.390  46.910  48.630  1.00  0.00     0.050 A 
HETATM   14  C   UNL     1      20.452  45.549  48.337  1.00  0.00     0.117 A 
HETATM   15  F   UNL     1      20.706  44.676  49.319  1.00  0.00    -0.206 F 
HETATM   16  C   UNL     1      20.255  45.082  47.043  1.00  0.00     0.042 A 
HETATM   17  C   UNL     1      19.988  45.990  46.025  1.00  0.00     0.004 A 
HETATM   18  C   UNL     1      19.919  47.357  46.310  1.00  0.00     0.008 A 
ENDBRANCH  11  12
BRANCH   1  19
HETATM   19  C   UNL     1      18.108  50.864  47.550  1.00  0.00     0.267 C 
HETATM   20  O   UNL     1      18.702  51.896  47.270  1.00  0.00    -0.265 OA
BRANCH  19  21
HETATM   21  O   UNL     1      16.865  50.527  47.107  1.00  0.00    -0.316 OA
BRANCH  21  22
HETATM   22  C   UNL     1      16.605  49.124  46.910  1.00  0.00     0.123 C 
HETATM   23  C   UNL     1      16.586  48.792  45.421  1.00  0.00     0.040 C 
HETATM   24  C   UNL     1      15.244  48.837  47.533  1.00  0.00     0.040 C 
ENDBRANCH  21  22
ENDBRANCH  19  21
ENDBRANCH   1  19
BRANCH   2  25
HETATM   25  O   UNL     1      17.408  50.967  50.210  1.00  0.00    -0.389 OA
HETATM   26  H   UNL     1      17.516  51.889  49.902  1.00  0.00     0.210 HD
ENDBRANCH   2  25
BRANCH   7  27
HETATM   27  O   UNL     1      23.284  48.934  47.628  1.00  0.00    -0.343 OA
HETATM   28  H   UNL     1      23.238  47.990  47.838  1.00  0.00     0.219 HD
ENDBRANCH   7  27
TORSDOF 6
ENDMDL
MODEL 7
REMARK VINA RESULT:      -6.6      3.809      5.744
REMARK  6 active torsions:
REMARK  status: ('A' for Active; 'I' for Inactive)
REMARK    1  A    between atoms: C_2  and  O_3 
REMARK    2  A    between atoms: O_3  and  C_4 
REMARK    3  A    between atoms: C_4  and  C_5 
REMARK    4  A    between atoms: C_6  and  O_7 
REMARK    5  A    between atoms: C_12  and  O_13 
REMARK    6  A    between atoms: C_17  and  C_18 
ROOT
HETATM    1  C   UNL     1      28.197  49.234  39.288  1.00  0.00     0.133 C 
HETATM    2  C   UNL     1      27.658  49.836  40.633  1.00  0.00     0.073 C 
HETATM    3  C   UNL     1      26.841  48.784  41.402  1.00  0.00     0.047 C 
HETATM    4  C   UNL     1      28.767  50.408  41.559  1.00  0.00     0.097 C 
HETATM    5  C   UNL     1      29.923  49.487  41.583  1.00  0.00     0.042 A 
HETATM    6  C   UNL     1      30.269  48.566  40.616  1.00  0.00     0.030 A 
HETATM    7  C   UNL     1      31.454  48.007  41.123  1.00  0.00     0.190 A 
HETATM    8  N   UNL     1      31.818  48.500  42.301  1.00  0.00    -0.149 NA
HETATM    9  N   UNL     1      30.866  49.410  42.567  1.00  0.00    -0.279 N 
HETATM   10  H   UNL     1      30.933  49.941  43.429  1.00  0.00     0.189 HD
HETATM   11  C   UNL     1      29.504  48.390  39.348  1.00  0.00     0.075 C 
ENDROOT
BRANCH  11  12
HETATM   12  C   UNL     1      29.264  46.904  39.117  1.00  0.00    -0.045 A 
HETATM   13  C   UNL     1      29.743  46.195  38.004  1.00  0.00     0.050 A 
HETATM   14  C   UNL     1      29.495  44.830  37.878  1.00  0.00     0.117 A 
HETATM   15  F   UNL     1      29.958  44.174  36.806  1.00  0.00    -0.206 F 
HETATM   16  C   UNL     1      28.776  44.136  38.843  1.00  0.00     0.042 A 
HETATM   17  C   UNL     1      28.299  44.817  39.958  1.00  0.00     0.004 A 
HETATM   18  C   UNL     1      28.546  46.187  40.096  1.00  0.00     0.008 A 
ENDBRANCH  11  12
BRANCH   1  19
HETATM   19  C   UNL     1      28.453  50.350  38.294  1.00  0.00     0.267 C 
HETATM   20  O   UNL     1      27.608  51.145  37.907  1.00  0.00    -0.265 OA
BRANCH  19  21
HETATM   21  O   UNL     1      29.756  50.330  37.896  1.00  0.00    -0.316 OA
BRANCH  21  22
HETATM   22  C   UNL     1      30.446  51.595  37.875  1.00  0.00     0.123 C 
HETATM   23  C   UNL     1      31.956  51.374  37.861  1.00  0.00     0.040 C 
HETATM   24  C   UNL     1      30.033  52.341  39.137  1.00  0.00     0.040 C 
ENDBRANCH  21  22
ENDBRANCH  19  21
ENDBRANCH   1  19
BRANCH   2  25
HETATM   25  O   UNL     1      26.704  50.880  40.353  1.00  0.00    -0.389 OA
HETATM   26  H   UNL     1      27.192  51.724  40.273  1.00  0.00     0.210 HD
ENDBRANCH   2  25
BRANCH   7  27
HETATM   27  O   UNL     1      32.247  47.066  40.606  1.00  0.00    -0.343 OA
HETATM   28  H   UNL     1      32.746  47.431  39.861  1.00  0.00     0.219 HD
ENDBRANCH   7  27
TORSDOF 6
ENDMDL
MODEL 8
REMARK VINA RESULT:      -6.6     13.527     15.778
REMARK  6 active torsions:
REMARK  status: ('A' for Active; 'I' for Inactive)
REMARK    1  A    between atoms: C_2  and  O_3 
REMARK    2  A    between atoms: O_3  and  C_4 
REMARK    3  A    between atoms: C_4  and  C_5 
REMARK    4  A    between atoms: C_6  and  O_7 
REMARK    5  A    between atoms: C_12  and  O_13 
REMARK    6  A    between atoms: C_17  and  C_18 
ROOT
HETATM    1  C   UNL     1      19.271  47.593  48.303  1.00  0.00     0.133 C 
HETATM    2  C   UNL     1      18.224  46.455  48.033  1.00  0.00     0.073 C 
HETATM    3  C   UNL     1      16.853  46.839  48.612  1.00  0.00     0.047 C 
HETATM    4  C   UNL     1      18.068  46.084  46.532  1.00  0.00     0.097 C 
HETATM    5  C   UNL     1      18.036  47.315  45.713  1.00  0.00     0.042 A 
HETATM    6  C   UNL     1      18.562  48.546  46.047  1.00  0.00     0.030 A 
HETATM    7  C   UNL     1      18.292  49.322  44.908  1.00  0.00     0.190 A 
HETATM    8  N   UNL     1      17.641  48.667  43.954  1.00  0.00    -0.149 NA
HETATM    9  N   UNL     1      17.494  47.434  44.467  1.00  0.00    -0.279 N 
HETATM   10  H   UNL     1      17.024  46.731  43.905  1.00  0.00     0.189 HD
HETATM   11  C   UNL     1      19.291  48.802  47.322  1.00  0.00     0.075 C 
ENDROOT
BRANCH  11  12
HETATM   12  C   UNL     1      18.762  50.085  47.947  1.00  0.00    -0.045 A 
HETATM   13  C   UNL     1      17.467  50.230  48.469  1.00  0.00     0.050 A 
HETATM   14  C   UNL     1      17.068  51.435  49.043  1.00  0.00     0.117 A 
HETATM   15  F   UNL     1      15.827  51.552  49.530  1.00  0.00    -0.206 F 
HETATM   16  C   UNL     1      17.935  52.518  49.118  1.00  0.00     0.042 A 
HETATM   17  C   UNL     1      19.225  52.394  48.615  1.00  0.00     0.004 A 
HETATM   18  C   UNL     1      19.637  51.187  48.041  1.00  0.00     0.008 A 
ENDBRANCH  11  12
BRANCH   1  19
HETATM   19  C   UNL     1      20.671  47.013  48.299  1.00  0.00     0.267 C 
HETATM   20  O   UNL     1      20.992  45.973  47.740  1.00  0.00    -0.265 OA
BRANCH  19  21
HETATM   21  O   UNL     1      21.511  47.816  49.011  1.00  0.00    -0.316 OA
BRANCH  21  22
HETATM   22  C   UNL     1      22.840  47.992  48.484  1.00  0.00     0.123 C 
HETATM   23  C   UNL     1      23.881  47.702  49.561  1.00  0.00     0.040 C 
HETATM   24  C   UNL     1      22.942  49.441  48.026  1.00  0.00     0.040 C 
ENDBRANCH  21  22
ENDBRANCH  19  21
ENDBRANCH   1  19
BRANCH   2  25
HETATM   25  O   UNL     1      18.592  45.270  48.767  1.00  0.00    -0.389 OA
HETATM   26  H   UNL     1      18.357  45.410  49.706  1.00  0.00     0.210 HD
ENDBRANCH   2  25
BRANCH   7  27
HETATM   27  O   UNL     1      18.583  50.601  44.654  1.00  0.00    -0.343 OA
HETATM   28  H   UNL     1      18.637  51.095  45.485  1.00  0.00     0.219 HD
ENDBRANCH   7  27
TORSDOF 6
ENDMDL
MODEL 9
REMARK VINA RESULT:      -6.5     25.418     26.882
REMARK  6 active torsions:
REMARK  status: ('A' for Active; 'I' for Inactive)
REMARK    1  A    between atoms: C_2  and  O_3 
REMARK    2  A    between atoms: O_3  and  C_4 
REMARK    3  A    between atoms: C_4  and  C_5 
REMARK    4  A    between atoms: C_6  and  O_7 
REMARK    5  A    between atoms: C_12  and  O_13 
REMARK    6  A    between atoms: C_17  and  C_18 
ROOT
HETATM    1  C   UNL     1      38.270  44.723  65.323  1.00  0.00     0.133 C 
HETATM    2  C   UNL     1      37.521  44.967  66.680  1.00  0.00     0.073 C 
HETATM    3  C   UNL     1      38.528  45.068  67.838  1.00  0.00     0.047 C 
HETATM    4  C   UNL     1      36.604  46.221  66.680  1.00  0.00     0.097 C 
HETATM    5  C   UNL     1      37.295  47.346  66.016  1.00  0.00     0.042 A 
HETATM    6  C   UNL     1      38.313  47.262  65.089  1.00  0.00     0.030 A 
HETATM    7  C   UNL     1      38.557  48.608  64.767  1.00  0.00     0.190 A 
HETATM    8  N   UNL     1      37.794  49.465  65.433  1.00  0.00    -0.149 NA
HETATM    9  N   UNL     1      37.023  48.671  66.195  1.00  0.00    -0.279 N 
HETATM   10  H   UNL     1      36.333  49.105  66.799  1.00  0.00     0.189 HD
HETATM   11  C   UNL     1      38.856  45.965  64.590  1.00  0.00     0.075 C 
ENDROOT
BRANCH  11  12
HETATM   12  C   UNL     1      40.377  46.017  64.628  1.00  0.00    -0.045 A 
HETATM   13  C   UNL     1      41.114  46.865  65.469  1.00  0.00     0.050 A 
HETATM   14  C   UNL     1      42.507  46.835  65.455  1.00  0.00     0.117 A 
HETATM   15  F   UNL     1      43.190  47.656  66.263  1.00  0.00    -0.206 F 
HETATM   16  C   UNL     1      43.201  45.970  64.619  1.00  0.00     0.042 A 
HETATM   17  C   UNL     1      42.490  45.115  63.784  1.00  0.00     0.004 A 
HETATM   18  C   UNL     1      41.092  45.134  63.793  1.00  0.00     0.008 A 
ENDBRANCH  11  12
BRANCH   1  19
HETATM   19  C   UNL     1      37.339  44.044  64.339  1.00  0.00     0.267 C 
HETATM   20  O   UNL     1      36.669  44.628  63.498  1.00  0.00    -0.265 OA
BRANCH  19  21
HETATM   21  O   UNL     1      37.358  42.695  64.533  1.00  0.00    -0.316 OA
BRANCH  21  22
HETATM   22  C   UNL     1      38.622  42.030  64.342  1.00  0.00     0.123 C 
HETATM   23  C   UNL     1      39.039  42.097  62.876  1.00  0.00     0.040 C 
HETATM   24  C   UNL     1      38.424  40.582  64.770  1.00  0.00     0.040 C 
ENDBRANCH  21  22
ENDBRANCH  19  21
ENDBRANCH   1  19
BRANCH   2  25
HETATM   25  O   UNL     1      36.726  43.811  67.012  1.00  0.00    -0.389 OA
HETATM   26  H   UNL     1      37.322  43.125  67.372  1.00  0.00     0.210 HD
ENDBRANCH   2  25
BRANCH   7  27
HETATM   27  O   UNL     1      39.434  49.138  63.911  1.00  0.00    -0.343 OA
HETATM   28  H   UNL     1      39.927  49.849  64.345  1.00  0.00     0.219 HD
ENDBRANCH   7  27
TORSDOF 6
ENDMDL
MODEL 10
REMARK VINA RESULT:      -6.5     13.526     15.188
REMARK  6 active torsions:
REMARK  status: ('A' for Active; 'I' for Inactive)
REMARK    1  A    between atoms: C_2  and  O_3 
REMARK    2  A    between atoms: O_3  and  C_4 
REMARK    3  A    between atoms: C_4  and  C_5 
REMARK    4  A    between atoms: C_6  and  O_7 
REMARK    5  A    between atoms: C_12  and  O_13 
REMARK    6  A    between atoms: C_17  and  C_18 
ROOT
HETATM    1  C   UNL     1      20.486  50.398  48.140  1.00  0.00     0.133 C 
HETATM    2  C   UNL     1      20.096  50.482  49.657  1.00  0.00     0.073 C 
HETATM    3  C   UNL     1      19.070  51.604  49.886  1.00  0.00     0.047 C 
HETATM    4  C   UNL     1      19.547  49.151  50.244  1.00  0.00     0.097 C 
HETATM    5  C   UNL     1      18.612  48.529  49.283  1.00  0.00     0.042 A 
HETATM    6  C   UNL     1      18.576  48.724  47.918  1.00  0.00     0.030 A 
HETATM    7  C   UNL     1      17.540  47.869  47.505  1.00  0.00     0.190 A 
HETATM    8  N   UNL     1      16.957  47.213  48.502  1.00  0.00    -0.149 NA
HETATM    9  N   UNL     1      17.631  47.631  49.586  1.00  0.00    -0.279 N 
HETATM   10  H   UNL     1      17.370  47.252  50.492  1.00  0.00     0.189 HD
HETATM   11  C   UNL     1      19.538  49.605  47.194  1.00  0.00     0.075 C 
ENDROOT
BRANCH  11  12
HETATM   12  C   UNL     1      18.765  50.502  46.237  1.00  0.00    -0.045 A 
HETATM   13  C   UNL     1      18.801  50.375  44.839  1.00  0.00     0.050 A 
HETATM   14  C   UNL     1      18.047  51.226  44.034  1.00  0.00     0.117 A 
HETATM   15  F   UNL     1      18.100  51.090  42.703  1.00  0.00    -0.206 F 
HETATM   16  C   UNL     1      17.241  52.213  44.586  1.00  0.00     0.042 A 
HETATM   17  C   UNL     1      17.184  52.351  45.969  1.00  0.00     0.004 A 
HETATM   18  C   UNL     1      17.934  51.499  46.786  1.00  0.00     0.008 A 
ENDBRANCH  11  12
BRANCH   1  19
HETATM   19  C   UNL     1      21.858  49.768  47.998  1.00  0.00     0.267 C 
HETATM   20  O   UNL     1      22.720  50.147  47.216  1.00  0.00    -0.265 OA
BRANCH  19  21
HETATM   21  O   UNL     1      21.983  48.722  48.861  1.00  0.00    -0.316 OA
BRANCH  21  22
HETATM   22  C   UNL     1      22.589  47.522  48.342  1.00  0.00     0.123 C 
HETATM   23  C   UNL     1      21.548  46.414  48.218  1.00  0.00     0.040 C 
HETATM   24  C   UNL     1      23.678  47.118  49.328  1.00  0.00     0.040 C 
ENDBRANCH  21  22
ENDBRANCH  19  21
ENDBRANCH   1  19
BRANCH   2  25
HETATM   25  O   UNL     1      21.240  50.893  50.433  1.00  0.00    -0.389 OA
HETATM   26  H   UNL     1      20.915  51.364  51.226  1.00  0.00     0.210 HD
ENDBRANCH   2  25
BRANCH   7  27
HETATM   27  O   UNL     1      17.061  47.632  46.282  1.00  0.00    -0.343 OA
HETATM   28  H   UNL     1      16.197  47.198  46.346  1.00  0.00     0.219 HD
ENDBRANCH   7  27
TORSDOF 6
ENDMDL
