MODEL 1
REMARK VINA RESULT:      -8.8      0.000      0.000
REMARK  5 active torsions:
REMARK  status: ('A' for Active; 'I' for Inactive)
REMARK    1  A    between atoms: O_2  and  C_3 
REMARK    2  A    between atoms: C_5  and  C_6 
REMARK    3  A    between atoms: C_12  and  C_13 
REMARK    4  A    between atoms: C_15  and  O_16 
REMARK    5  A    between atoms: C_18  and  O_19 
ROOT
HETATM    1  C   UNL     1      27.883  42.652  53.199  1.00  0.00     0.098 A 
HETATM    2  N   UNL     1      27.539  41.453  53.738  1.00  0.00    -0.173 NA
HETATM    3  N   UNL     1      27.141  40.685  52.696  1.00  0.00    -0.272 N 
HETATM    4  H   UNL     1      26.854  39.726  52.868  1.00  0.00     0.189 HD
HETATM    5  C   UNL     1      27.204  41.359  51.540  1.00  0.00     0.128 A 
HETATM    6  C   UNL     1      27.643  42.624  51.812  1.00  0.00     0.034 A 
HETATM    7  C   UNL     1      27.730  43.397  50.553  1.00  0.00     0.156 A 
HETATM    8  N   UNL     1      27.294  42.369  49.590  1.00  0.00    -0.343 N 
HETATM    9  C   UNL     1      26.959  41.149  50.166  1.00  0.00     0.271 A 
HETATM   10  O   UNL     1      26.542  40.154  49.605  1.00  0.00    -0.266 OA
HETATM   11  H   UNL     1      27.181  42.531  48.600  1.00  0.00     0.163 HD
ENDROOT
BRANCH   7  12
HETATM   12  C   UNL     1      26.773  44.563  50.614  1.00  0.00    -0.028 A 
HETATM   13  C   UNL     1      27.048  45.803  49.994  1.00  0.00     0.049 A 
HETATM   14  C   UNL     1      26.159  46.874  50.103  1.00  0.00     0.101 A 
HETATM   15  C   UNL     1      24.984  46.701  50.841  1.00  0.00     0.099 A 
HETATM   16  C   UNL     1      24.687  45.496  51.460  1.00  0.00     0.040 A 
HETATM   17  C   UNL     1      25.581  44.431  51.350  1.00  0.00     0.012 A 
BRANCH  14  18
HETATM   18  O   UNL     1      26.320  48.121  49.557  1.00  0.00    -0.353 OA
HETATM   19  C   UNL     1      27.617  48.440  49.064  1.00  0.00     0.210 C 
ENDBRANCH  14  18
BRANCH  15  20
HETATM   20  O   UNL     1      24.095  47.732  50.975  1.00  0.00    -0.358 OA
HETATM   21  H   UNL     1      23.902  47.774  51.931  1.00  0.00     0.218 HD
ENDBRANCH  15  20
ENDBRANCH   7  12
BRANCH   1  22
HETATM   22  C   UNL     1      28.420  43.726  54.042  1.00  0.00    -0.002 A 
HETATM   23  C   UNL     1      29.611  43.521  54.765  1.00  0.00     0.050 A 
HETATM   24  C   UNL     1      30.154  44.535  55.558  1.00  0.00     0.069 A 
HETATM   25  C   UNL     1      29.496  45.762  55.645  1.00  0.00     0.037 A 
HETATM   26  C   UNL     1      28.321  45.985  54.931  1.00  0.00     0.004 A 
HETATM   27  C   UNL     1      27.791  44.975  54.125  1.00  0.00     0.014 A 
BRANCH  24  28
HETATM   28  O   UNL     1      31.307  44.452  56.291  1.00  0.00    -0.356 OA
HETATM   29  C   UNL     1      31.492  43.267  57.057  1.00  0.00     0.210 C 
ENDBRANCH  24  28
ENDBRANCH   1  22
TORSDOF 5
ENDMDL
MODEL 2
REMARK VINA RESULT:      -8.7      1.059      1.924
REMARK  5 active torsions:
REMARK  status: ('A' for Active; 'I' for Inactive)
REMARK    1  A    between atoms: O_2  and  C_3 
REMARK    2  A    between atoms: C_5  and  C_6 
REMARK    3  A    between atoms: C_12  and  C_13 
REMARK    4  A    between atoms: C_15  and  O_16 
REMARK    5  A    between atoms: C_18  and  O_19 
ROOT
HETATM    1  C   UNL     1      27.970  42.708  53.352  1.00  0.00     0.098 A 
HETATM    2  N   UNL     1      27.637  41.524  53.929  1.00  0.00    -0.173 NA
HETATM    3  N   UNL     1      27.230  40.725  52.914  1.00  0.00    -0.272 N 
HETATM    4  H   UNL     1      26.948  39.770  53.117  1.00  0.00     0.189 HD
HETATM    5  C   UNL     1      27.278  41.365  51.739  1.00  0.00     0.128 A 
HETATM    6  C   UNL     1      27.715  42.638  51.969  1.00  0.00     0.034 A 
HETATM    7  C   UNL     1      27.786  43.376  50.687  1.00  0.00     0.156 A 
HETATM    8  N   UNL     1      27.343  42.318  49.760  1.00  0.00    -0.343 N 
HETATM    9  C   UNL     1      27.018  41.115  50.374  1.00  0.00     0.271 A 
HETATM   10  O   UNL     1      26.598  40.103  49.847  1.00  0.00    -0.266 OA
HETATM   11  H   UNL     1      27.218  42.451  48.767  1.00  0.00     0.163 HD
ENDROOT
BRANCH   7  12
HETATM   12  C   UNL     1      26.826  44.539  50.725  1.00  0.00    -0.028 A 
HETATM   13  C   UNL     1      27.015  45.705  49.948  1.00  0.00     0.049 A 
HETATM   14  C   UNL     1      26.129  46.780  50.036  1.00  0.00     0.101 A 
HETATM   15  C   UNL     1      25.043  46.687  50.912  1.00  0.00     0.099 A 
HETATM   16  C   UNL     1      24.831  45.556  51.686  1.00  0.00     0.040 A 
HETATM   17  C   UNL     1      25.722  44.487  51.595  1.00  0.00     0.012 A 
BRANCH  14  18
HETATM   18  O   UNL     1      26.214  47.961  49.344  1.00  0.00    -0.353 OA
HETATM   19  C   UNL     1      27.509  48.541  49.228  1.00  0.00     0.210 C 
ENDBRANCH  14  18
BRANCH  15  20
HETATM   20  O   UNL     1      24.160  47.726  51.029  1.00  0.00    -0.358 OA
HETATM   21  H   UNL     1      23.672  47.735  50.183  1.00  0.00     0.218 HD
ENDBRANCH  15  20
ENDBRANCH   7  12
BRANCH   1  22
HETATM   22  C   UNL     1      28.514  43.807  54.157  1.00  0.00    -0.002 A 
HETATM   23  C   UNL     1      27.791  45.009  54.282  1.00  0.00     0.050 A 
HETATM   24  C   UNL     1      28.277  46.064  55.059  1.00  0.00     0.069 A 
HETATM   25  C   UNL     1      29.506  45.925  55.706  1.00  0.00     0.037 A 
HETATM   26  C   UNL     1      30.231  44.741  55.600  1.00  0.00     0.004 A 
HETATM   27  C   UNL     1      29.732  43.683  54.837  1.00  0.00     0.014 A 
BRANCH  24  28
HETATM   28  O   UNL     1      27.658  47.266  55.261  1.00  0.00    -0.356 OA
HETATM   29  C   UNL     1      26.495  47.524  54.481  1.00  0.00     0.210 C 
ENDBRANCH  24  28
ENDBRANCH   1  22
TORSDOF 5
ENDMDL
MODEL 3
REMARK VINA RESULT:      -8.2      1.329      5.876
REMARK  5 active torsions:
REMARK  status: ('A' for Active; 'I' for Inactive)
REMARK    1  A    between atoms: O_2  and  C_3 
REMARK    2  A    between atoms: C_5  and  C_6 
REMARK    3  A    between atoms: C_12  and  C_13 
REMARK    4  A    between atoms: C_15  and  O_16 
REMARK    5  A    between atoms: C_18  and  O_19 
ROOT
HETATM    1  C   UNL     1      27.205  42.676  50.620  1.00  0.00     0.098 A 
HETATM    2  N   UNL     1      27.724  42.208  49.456  1.00  0.00    -0.173 NA
HETATM    3  N   UNL     1      28.443  41.110  49.791  1.00  0.00    -0.272 N 
HETATM    4  H   UNL     1      28.910  40.581  49.061  1.00  0.00     0.189 HD
HETATM    5  C   UNL     1      28.409  40.889  51.112  1.00  0.00     0.128 A 
HETATM    6  C   UNL     1      27.657  41.875  51.686  1.00  0.00     0.034 A 
HETATM    7  C   UNL     1      27.592  41.658  53.149  1.00  0.00     0.156 A 
HETATM    8  N   UNL     1      28.395  40.426  53.260  1.00  0.00    -0.343 N 
HETATM    9  C   UNL     1      28.905  39.962  52.054  1.00  0.00     0.271 A 
HETATM   10  O   UNL     1      29.620  38.995  51.874  1.00  0.00    -0.266 OA
HETATM   11  H   UNL     1      28.621  39.974  54.134  1.00  0.00     0.163 HD
ENDROOT
BRANCH   7  12
HETATM   12  C   UNL     1      28.238  42.824  53.857  1.00  0.00    -0.028 A 
HETATM   13  C   UNL     1      29.525  42.743  54.434  1.00  0.00     0.049 A 
HETATM   14  C   UNL     1      30.078  43.828  55.117  1.00  0.00     0.101 A 
HETATM   15  C   UNL     1      29.332  45.006  55.224  1.00  0.00     0.099 A 
HETATM   16  C   UNL     1      28.066  45.116  54.668  1.00  0.00     0.040 A 
HETATM   17  C   UNL     1      27.519  44.027  53.990  1.00  0.00     0.012 A 
BRANCH  14  18
HETATM   18  O   UNL     1      31.307  43.865  55.723  1.00  0.00    -0.353 OA
HETATM   19  C   UNL     1      31.422  43.198  56.976  1.00  0.00     0.210 C 
ENDBRANCH  14  18
BRANCH  15  20
HETATM   20  O   UNL     1      29.840  46.085  55.894  1.00  0.00    -0.358 OA
HETATM   21  H   UNL     1      29.271  46.834  55.629  1.00  0.00     0.218 HD
ENDBRANCH  15  20
ENDBRANCH   7  12
BRANCH   1  22
HETATM   22  C   UNL     1      26.313  43.841  50.628  1.00  0.00    -0.002 A 
HETATM   23  C   UNL     1      26.650  44.989  49.886  1.00  0.00     0.050 A 
HETATM   24  C   UNL     1      25.807  46.103  49.861  1.00  0.00     0.069 A 
HETATM   25  C   UNL     1      24.623  46.080  50.597  1.00  0.00     0.037 A 
HETATM   26  C   UNL     1      24.268  44.950  51.332  1.00  0.00     0.004 A 
HETATM   27  C   UNL     1      25.105  43.833  51.339  1.00  0.00     0.014 A 
BRANCH  24  28
HETATM   28  O   UNL     1      26.027  47.262  49.168  1.00  0.00    -0.356 OA
HETATM   29  C   UNL     1      26.847  48.238  49.802  1.00  0.00     0.210 C 
ENDBRANCH  24  28
ENDBRANCH   1  22
TORSDOF 5
ENDMDL
MODEL 4
REMARK VINA RESULT:      -8.0      1.651      2.073
REMARK  5 active torsions:
REMARK  status: ('A' for Active; 'I' for Inactive)
REMARK    1  A    between atoms: O_2  and  C_3 
REMARK    2  A    between atoms: C_5  and  C_6 
REMARK    3  A    between atoms: C_12  and  C_13 
REMARK    4  A    between atoms: C_15  and  O_16 
REMARK    5  A    between atoms: C_18  and  O_19 
ROOT
HETATM    1  C   UNL     1      27.893  42.624  52.986  1.00  0.00     0.098 A 
HETATM    2  N   UNL     1      28.166  41.536  53.751  1.00  0.00    -0.173 NA
HETATM    3  N   UNL     1      28.250  40.495  52.890  1.00  0.00    -0.272 N 
HETATM    4  H   UNL     1      28.470  39.570  53.249  1.00  0.00     0.189 HD
HETATM    5  C   UNL     1      28.021  40.885  51.629  1.00  0.00     0.128 A 
HETATM    6  C   UNL     1      27.762  42.226  51.642  1.00  0.00     0.034 A 
HETATM    7  C   UNL     1      27.510  42.694  50.260  1.00  0.00     0.156 A 
HETATM    8  N   UNL     1      27.686  41.427  49.526  1.00  0.00    -0.343 N 
HETATM    9  C   UNL     1      27.975  40.332  50.331  1.00  0.00     0.271 A 
HETATM   10  O   UNL     1      28.132  39.177  49.984  1.00  0.00    -0.266 OA
HETATM   11  H   UNL     1      27.551  41.326  48.530  1.00  0.00     0.163 HD
ENDROOT
BRANCH   7  12
HETATM   12  C   UNL     1      26.098  43.219  50.159  1.00  0.00    -0.028 A 
HETATM   13  C   UNL     1      25.811  44.557  49.806  1.00  0.00     0.049 A 
HETATM   14  C   UNL     1      24.495  45.023  49.760  1.00  0.00     0.101 A 
HETATM   15  C   UNL     1      23.458  44.138  50.073  1.00  0.00     0.099 A 
HETATM   16  C   UNL     1      23.709  42.820  50.422  1.00  0.00     0.040 A 
HETATM   17  C   UNL     1      25.026  42.363  50.469  1.00  0.00     0.012 A 
BRANCH  14  18
HETATM   18  O   UNL     1      24.094  46.295  49.443  1.00  0.00    -0.353 OA
HETATM   19  C   UNL     1      24.568  47.342  50.283  1.00  0.00     0.210 C 
ENDBRANCH  14  18
BRANCH  15  20
HETATM   20  O   UNL     1      22.158  44.564  50.045  1.00  0.00    -0.358 OA
HETATM   21  H   UNL     1      21.677  43.937  50.620  1.00  0.00     0.218 HD
ENDBRANCH  15  20
ENDBRANCH   7  12
BRANCH   1  22
HETATM   22  C   UNL     1      27.788  43.958  53.589  1.00  0.00    -0.002 A 
HETATM   23  C   UNL     1      28.821  44.437  54.416  1.00  0.00     0.050 A 
HETATM   24  C   UNL     1      28.754  45.711  54.986  1.00  0.00     0.069 A 
HETATM   25  C   UNL     1      27.638  46.511  54.742  1.00  0.00     0.037 A 
HETATM   26  C   UNL     1      26.609  46.057  53.919  1.00  0.00     0.004 A 
HETATM   27  C   UNL     1      26.689  44.790  53.338  1.00  0.00     0.014 A 
BRANCH  24  28
HETATM   28  O   UNL     1      29.701  46.283  55.792  1.00  0.00    -0.356 OA
HETATM   29  C   UNL     1      29.914  45.670  57.059  1.00  0.00     0.210 C 
ENDBRANCH  24  28
ENDBRANCH   1  22
TORSDOF 5
ENDMDL
MODEL 5
REMARK VINA RESULT:      -8.0     12.304     14.238
REMARK  5 active torsions:
REMARK  status: ('A' for Active; 'I' for Inactive)
REMARK    1  A    between atoms: O_2  and  C_3 
REMARK    2  A    between atoms: C_5  and  C_6 
REMARK    3  A    between atoms: C_12  and  C_13 
REMARK    4  A    between atoms: C_15  and  O_16 
REMARK    5  A    between atoms: C_18  and  O_19 
ROOT
HETATM    1  C   UNL     1      31.314  48.343  40.884  1.00  0.00     0.098 A 
HETATM    2  N   UNL     1      32.577  47.846  40.825  1.00  0.00    -0.173 NA
HETATM    3  N   UNL     1      33.338  48.691  41.560  1.00  0.00    -0.272 N 
HETATM    4  H   UNL     1      34.328  48.497  41.671  1.00  0.00     0.189 HD
HETATM    5  C   UNL     1      32.608  49.699  42.056  1.00  0.00     0.128 A 
HETATM    6  C   UNL     1      31.320  49.537  41.630  1.00  0.00     0.034 A 
HETATM    7  C   UNL     1      30.481  50.634  42.165  1.00  0.00     0.156 A 
HETATM    8  N   UNL     1      31.495  51.377  42.935  1.00  0.00    -0.343 N 
HETATM    9  C   UNL     1      32.775  50.842  42.867  1.00  0.00     0.271 A 
HETATM   10  O   UNL     1      33.789  51.276  43.378  1.00  0.00    -0.266 OA
HETATM   11  H   UNL     1      31.313  52.240  43.428  1.00  0.00     0.163 HD
ENDROOT
BRANCH   7  12
HETATM   12  C   UNL     1      29.928  51.446  41.019  1.00  0.00    -0.028 A 
HETATM   13  C   UNL     1      29.089  50.886  40.029  1.00  0.00     0.049 A 
HETATM   14  C   UNL     1      28.626  51.656  38.960  1.00  0.00     0.101 A 
HETATM   15  C   UNL     1      29.009  52.998  38.882  1.00  0.00     0.099 A 
HETATM   16  C   UNL     1      29.830  53.575  39.839  1.00  0.00     0.040 A 
HETATM   17  C   UNL     1      30.291  52.800  40.902  1.00  0.00     0.012 A 
BRANCH  14  18
HETATM   18  O   UNL     1      27.819  51.224  37.938  1.00  0.00    -0.353 OA
HETATM   19  C   UNL     1      27.083  50.028  38.168  1.00  0.00     0.210 C 
ENDBRANCH  14  18
BRANCH  15  20
HETATM   20  O   UNL     1      28.579  53.779  37.843  1.00  0.00    -0.358 OA
HETATM   21  H   UNL     1      28.144  54.543  38.268  1.00  0.00     0.218 HD
ENDBRANCH  15  20
ENDBRANCH   7  12
BRANCH   1  22
HETATM   22  C   UNL     1      30.201  47.641  40.236  1.00  0.00    -0.002 A 
HETATM   23  C   UNL     1      29.009  47.408  40.948  1.00  0.00     0.050 A 
HETATM   24  C   UNL     1      27.927  46.759  40.347  1.00  0.00     0.069 A 
HETATM   25  C   UNL     1      28.039  46.323  39.027  1.00  0.00     0.037 A 
HETATM   26  C   UNL     1      29.208  46.552  38.304  1.00  0.00     0.004 A 
HETATM   27  C   UNL     1      30.280  47.216  38.903  1.00  0.00     0.014 A 
BRANCH  24  28
HETATM   28  O   UNL     1      26.721  46.492  40.937  1.00  0.00    -0.356 OA
HETATM   29  C   UNL     1      25.669  47.417  40.685  1.00  0.00     0.210 C 
ENDBRANCH  24  28
ENDBRANCH   1  22
TORSDOF 5
ENDMDL
MODEL 6
REMARK VINA RESULT:      -7.9      2.126      5.936
REMARK  5 active torsions:
REMARK  status: ('A' for Active; 'I' for Inactive)
REMARK    1  A    between atoms: O_2  and  C_3 
REMARK    2  A    between atoms: C_5  and  C_6 
REMARK    3  A    between atoms: C_12  and  C_13 
REMARK    4  A    between atoms: C_15  and  O_16 
REMARK    5  A    between atoms: C_18  and  O_19 
ROOT
HETATM    1  C   UNL     1      26.212  43.964  50.288  1.00  0.00     0.098 A 
HETATM    2  N   UNL     1      26.978  43.350  49.349  1.00  0.00    -0.173 NA
HETATM    3  N   UNL     1      27.678  42.400  50.013  1.00  0.00    -0.272 N 
HETATM    4  H   UNL     1      28.311  41.798  49.495  1.00  0.00     0.189 HD
HETATM    5  C   UNL     1      27.395  42.410  51.322  1.00  0.00     0.128 A 
HETATM    6  C   UNL     1      26.489  43.406  51.550  1.00  0.00     0.034 A 
HETATM    7  C   UNL     1      26.148  43.443  52.991  1.00  0.00     0.156 A 
HETATM    8  N   UNL     1      26.982  42.330  53.479  1.00  0.00    -0.343 N 
HETATM    9  C   UNL     1      27.748  41.712  52.497  1.00  0.00     0.271 A 
HETATM   10  O   UNL     1      28.539  40.800  52.638  1.00  0.00    -0.266 OA
HETATM   11  H   UNL     1      27.056  42.060  54.449  1.00  0.00     0.163 HD
ENDROOT
BRANCH   7  12
HETATM   12  C   UNL     1      26.571  44.770  53.572  1.00  0.00    -0.028 A 
HETATM   13  C   UNL     1      27.812  44.951  54.224  1.00  0.00     0.049 A 
HETATM   14  C   UNL     1      28.157  46.181  54.787  1.00  0.00     0.101 A 
HETATM   15  C   UNL     1      27.249  47.240  54.695  1.00  0.00     0.099 A 
HETATM   16  C   UNL     1      26.024  47.094  54.061  1.00  0.00     0.040 A 
HETATM   17  C   UNL     1      25.685  45.861  53.504  1.00  0.00     0.012 A 
BRANCH  14  18
HETATM   18  O   UNL     1      29.321  46.473  55.449  1.00  0.00    -0.353 OA
HETATM   19  C   UNL     1      29.453  45.954  56.768  1.00  0.00     0.210 C 
ENDBRANCH  14  18
BRANCH  15  20
HETATM   20  O   UNL     1      27.552  48.457  55.242  1.00  0.00    -0.358 OA
HETATM   21  H   UNL     1      28.496  48.597  55.036  1.00  0.00     0.218 HD
ENDBRANCH  15  20
ENDBRANCH   7  12
BRANCH   1  22
HETATM   22  C   UNL     1      25.270  45.024  49.910  1.00  0.00    -0.002 A 
HETATM   23  C   UNL     1      25.655  46.374  50.013  1.00  0.00     0.050 A 
HETATM   24  C   UNL     1      24.784  47.401  49.641  1.00  0.00     0.069 A 
HETATM   25  C   UNL     1      23.508  47.080  49.177  1.00  0.00     0.037 A 
HETATM   26  C   UNL     1      23.112  45.749  49.061  1.00  0.00     0.004 A 
HETATM   27  C   UNL     1      23.992  44.726  49.418  1.00  0.00     0.014 A 
BRANCH  24  28
HETATM   28  O   UNL     1      25.055  48.742  49.686  1.00  0.00    -0.356 OA
HETATM   29  C   UNL     1      24.617  49.519  48.577  1.00  0.00     0.210 C 
ENDBRANCH  24  28
ENDBRANCH   1  22
TORSDOF 5
ENDMDL
MODEL 7
REMARK VINA RESULT:      -7.9      2.596      4.763
REMARK  5 active torsions:
REMARK  status: ('A' for Active; 'I' for Inactive)
REMARK    1  A    between atoms: O_2  and  C_3 
REMARK    2  A    between atoms: C_5  and  C_6 
REMARK    3  A    between atoms: C_12  and  C_13 
REMARK    4  A    between atoms: C_15  and  O_16 
REMARK    5  A    between atoms: C_18  and  O_19 
ROOT
HETATM    1  C   UNL     1      26.462  44.983  52.246  1.00  0.00     0.098 A 
HETATM    2  N   UNL     1      26.165  46.264  51.909  1.00  0.00    -0.173 NA
HETATM    3  N   UNL     1      25.087  46.187  51.092  1.00  0.00    -0.272 N 
HETATM    4  H   UNL     1      24.677  47.042  50.730  1.00  0.00     0.189 HD
HETATM    5  C   UNL     1      24.717  44.915  50.892  1.00  0.00     0.128 A 
HETATM    6  C   UNL     1      25.578  44.110  51.583  1.00  0.00     0.034 A 
HETATM    7  C   UNL     1      25.194  42.694  51.389  1.00  0.00     0.156 A 
HETATM    8  N   UNL     1      24.014  42.866  50.521  1.00  0.00    -0.343 N 
HETATM    9  C   UNL     1      23.725  44.187  50.200  1.00  0.00     0.271 A 
HETATM   10  O   UNL     1      22.835  44.598  49.481  1.00  0.00    -0.266 OA
HETATM   11  H   UNL     1      23.482  42.102  50.129  1.00  0.00     0.163 HD
ENDROOT
BRANCH   7  12
HETATM   12  C   UNL     1      26.314  41.962  50.690  1.00  0.00    -0.028 A 
HETATM   13  C   UNL     1      26.572  42.114  49.309  1.00  0.00     0.049 A 
HETATM   14  C   UNL     1      27.591  41.392  48.684  1.00  0.00     0.101 A 
HETATM   15  C   UNL     1      28.356  40.509  49.451  1.00  0.00     0.099 A 
HETATM   16  C   UNL     1      28.126  40.338  50.808  1.00  0.00     0.040 A 
HETATM   17  C   UNL     1      27.105  41.061  51.424  1.00  0.00     0.012 A 
BRANCH  14  18
HETATM   18  O   UNL     1      27.929  41.448  47.356  1.00  0.00    -0.353 OA
HETATM   19  C   UNL     1      27.125  40.688  46.461  1.00  0.00     0.210 C 
ENDBRANCH  14  18
BRANCH  15  20
HETATM   20  O   UNL     1      29.357  39.779  48.868  1.00  0.00    -0.358 OA
HETATM   21  H   UNL     1      29.862  40.426  48.338  1.00  0.00     0.218 HD
ENDBRANCH  15  20
ENDBRANCH   7  12
BRANCH   1  22
HETATM   22  C   UNL     1      27.556  44.688  53.179  1.00  0.00    -0.002 A 
HETATM   23  C   UNL     1      27.660  45.403  54.387  1.00  0.00     0.050 A 
HETATM   24  C   UNL     1      28.681  45.127  55.301  1.00  0.00     0.069 A 
HETATM   25  C   UNL     1      29.617  44.138  55.000  1.00  0.00     0.037 A 
HETATM   26  C   UNL     1      29.525  43.414  53.814  1.00  0.00     0.004 A 
HETATM   27  C   UNL     1      28.494  43.682  52.911  1.00  0.00     0.014 A 
BRANCH  24  28
HETATM   28  O   UNL     1      28.871  45.747  56.505  1.00  0.00    -0.356 OA
HETATM   29  C   UNL     1      30.158  45.610  57.097  1.00  0.00     0.210 C 
ENDBRANCH  24  28
ENDBRANCH   1  22
TORSDOF 5
ENDMDL
MODEL 8
REMARK VINA RESULT:      -7.7     13.155     15.408
REMARK  5 active torsions:
REMARK  status: ('A' for Active; 'I' for Inactive)
REMARK    1  A    between atoms: O_2  and  C_3 
REMARK    2  A    between atoms: C_5  and  C_6 
REMARK    3  A    between atoms: C_12  and  C_13 
REMARK    4  A    between atoms: C_15  and  O_16 
REMARK    5  A    between atoms: C_18  and  O_19 
ROOT
HETATM    1  C   UNL     1      28.239  51.437  40.343  1.00  0.00     0.098 A 
HETATM    2  N   UNL     1      27.614  52.332  41.151  1.00  0.00    -0.173 NA
HETATM    3  N   UNL     1      28.503  53.337  41.340  1.00  0.00    -0.272 N 
HETATM    4  H   UNL     1      28.235  54.136  41.906  1.00  0.00     0.189 HD
HETATM    5  C   UNL     1      29.655  53.095  40.702  1.00  0.00     0.128 A 
HETATM    6  C   UNL     1      29.546  51.886  40.076  1.00  0.00     0.034 A 
HETATM    7  C   UNL     1      30.804  51.589  39.354  1.00  0.00     0.156 A 
HETATM    8  N   UNL     1      31.575  52.805  39.672  1.00  0.00    -0.343 N 
HETATM    9  C   UNL     1      30.909  53.708  40.491  1.00  0.00     0.271 A 
HETATM   10  O   UNL     1      31.329  54.764  40.926  1.00  0.00    -0.266 OA
HETATM   11  H   UNL     1      32.530  52.963  39.384  1.00  0.00     0.163 HD
ENDROOT
BRANCH   7  12
HETATM   12  C   UNL     1      31.434  50.346  39.935  1.00  0.00    -0.028 A 
HETATM   13  C   UNL     1      30.909  49.054  39.711  1.00  0.00     0.049 A 
HETATM   14  C   UNL     1      31.493  47.928  40.296  1.00  0.00     0.101 A 
HETATM   15  C   UNL     1      32.613  48.101  41.115  1.00  0.00     0.099 A 
HETATM   16  C   UNL     1      33.150  49.357  41.354  1.00  0.00     0.040 A 
HETATM   17  C   UNL     1      32.560  50.477  40.769  1.00  0.00     0.012 A 
BRANCH  14  18
HETATM   18  O   UNL     1      31.070  46.631  40.160  1.00  0.00    -0.353 OA
HETATM   19  C   UNL     1      29.861  46.426  39.437  1.00  0.00     0.210 C 
ENDBRANCH  14  18
BRANCH  15  20
HETATM   20  O   UNL     1      33.204  47.021  41.711  1.00  0.00    -0.358 OA
HETATM   21  H   UNL     1      32.589  46.759  42.423  1.00  0.00     0.218 HD
ENDBRANCH  15  20
ENDBRANCH   7  12
BRANCH   1  22
HETATM   22  C   UNL     1      27.542  50.232  39.879  1.00  0.00    -0.002 A 
HETATM   23  C   UNL     1      27.165  50.116  38.527  1.00  0.00     0.050 A 
HETATM   24  C   UNL     1      26.518  48.971  38.056  1.00  0.00     0.069 A 
HETATM   25  C   UNL     1      26.230  47.935  38.945  1.00  0.00     0.037 A 
HETATM   26  C   UNL     1      26.603  48.029  40.284  1.00  0.00     0.004 A 
HETATM   27  C   UNL     1      27.264  49.168  40.746  1.00  0.00     0.014 A 
BRANCH  24  28
HETATM   28  O   UNL     1      26.118  48.745  36.767  1.00  0.00    -0.356 OA
HETATM   29  C   UNL     1      25.040  47.834  36.584  1.00  0.00     0.210 C 
ENDBRANCH  24  28
ENDBRANCH   1  22
TORSDOF 5
ENDMDL
MODEL 9
REMARK VINA RESULT:      -7.6      8.301     11.120
REMARK  5 active torsions:
REMARK  status: ('A' for Active; 'I' for Inactive)
REMARK    1  A    between atoms: O_2  and  C_3 
REMARK    2  A    between atoms: C_5  and  C_6 
REMARK    3  A    between atoms: C_12  and  C_13 
REMARK    4  A    between atoms: C_15  and  O_16 
REMARK    5  A    between atoms: C_18  and  O_19 
ROOT
HETATM    1  C   UNL     1      18.805  50.184  47.744  1.00  0.00     0.098 A 
HETATM    2  N   UNL     1      18.286  51.021  46.809  1.00  0.00    -0.173 NA
HETATM    3  N   UNL     1      17.025  50.583  46.584  1.00  0.00    -0.272 N 
HETATM    4  H   UNL     1      16.437  51.082  45.924  1.00  0.00     0.189 HD
HETATM    5  C   UNL     1      16.745  49.502  47.324  1.00  0.00     0.128 A 
HETATM    6  C   UNL     1      17.856  49.192  48.058  1.00  0.00     0.034 A 
HETATM    7  C   UNL     1      17.580  48.002  48.894  1.00  0.00     0.156 A 
HETATM    8  N   UNL     1      16.179  47.741  48.512  1.00  0.00    -0.343 N 
HETATM    9  C   UNL     1      15.670  48.618  47.561  1.00  0.00     0.271 A 
HETATM   10  O   UNL     1      14.565  48.602  47.055  1.00  0.00    -0.266 OA
HETATM   11  H   UNL     1      15.636  46.961  48.851  1.00  0.00     0.163 HD
ENDROOT
BRANCH   7  12
HETATM   12  C   UNL     1      18.501  46.879  48.485  1.00  0.00    -0.028 A 
HETATM   13  C   UNL     1      19.866  46.846  48.850  1.00  0.00     0.049 A 
HETATM   14  C   UNL     1      20.700  45.812  48.422  1.00  0.00     0.101 A 
HETATM   15  C   UNL     1      20.162  44.802  47.619  1.00  0.00     0.099 A 
HETATM   16  C   UNL     1      18.827  44.806  47.245  1.00  0.00     0.040 A 
HETATM   17  C   UNL     1      17.999  45.844  47.674  1.00  0.00     0.012 A 
BRANCH  14  18
HETATM   18  O   UNL     1      22.036  45.678  48.702  1.00  0.00    -0.353 OA
HETATM   19  C   UNL     1      22.813  46.870  48.691  1.00  0.00     0.210 C 
ENDBRANCH  14  18
BRANCH  15  20
HETATM   20  O   UNL     1      20.954  43.778  47.176  1.00  0.00    -0.358 OA
HETATM   21  H   UNL     1      20.715  43.666  46.235  1.00  0.00     0.218 HD
ENDBRANCH  15  20
ENDBRANCH   7  12
BRANCH   1  22
HETATM   22  C   UNL     1      20.156  50.397  48.275  1.00  0.00    -0.002 A 
HETATM   23  C   UNL     1      21.275  50.203  47.443  1.00  0.00     0.050 A 
HETATM   24  C   UNL     1      22.571  50.420  47.919  1.00  0.00     0.069 A 
HETATM   25  C   UNL     1      22.755  50.818  49.243  1.00  0.00     0.037 A 
HETATM   26  C   UNL     1      21.659  51.022  50.079  1.00  0.00     0.004 A 
HETATM   27  C   UNL     1      20.365  50.822  49.594  1.00  0.00     0.014 A 
BRANCH  24  28
HETATM   28  O   UNL     1      23.726  50.275  47.200  1.00  0.00    -0.356 OA
HETATM   29  C   UNL     1      24.913  50.022  47.944  1.00  0.00     0.210 C 
ENDBRANCH  24  28
ENDBRANCH   1  22
TORSDOF 5
ENDMDL
MODEL 10
REMARK VINA RESULT:      -7.6     15.741     17.762
REMARK  5 active torsions:
REMARK  status: ('A' for Active; 'I' for Inactive)
REMARK    1  A    between atoms: O_2  and  C_3 
REMARK    2  A    between atoms: C_5  and  C_6 
REMARK    3  A    between atoms: C_12  and  C_13 
REMARK    4  A    between atoms: C_15  and  O_16 
REMARK    5  A    between atoms: C_18  and  O_19 
ROOT
HETATM    1  C   UNL     1      37.594  42.512  64.651  1.00  0.00     0.098 A 
HETATM    2  N   UNL     1      36.669  42.373  65.636  1.00  0.00    -0.173 NA
HETATM    3  N   UNL     1      36.123  43.601  65.802  1.00  0.00    -0.272 N 
HETATM    4  H   UNL     1      35.383  43.727  66.486  1.00  0.00     0.189 HD
HETATM    5  C   UNL     1      36.681  44.498  64.978  1.00  0.00     0.128 A 
HETATM    6  C   UNL     1      37.642  43.860  64.246  1.00  0.00     0.034 A 
HETATM    7  C   UNL     1      38.277  44.822  63.318  1.00  0.00     0.156 A 
HETATM    8  N   UNL     1      37.514  46.040  63.652  1.00  0.00    -0.343 N 
HETATM    9  C   UNL     1      36.568  45.868  64.654  1.00  0.00     0.271 A 
HETATM   10  O   UNL     1      35.836  46.711  65.136  1.00  0.00    -0.266 OA
HETATM   11  H   UNL     1      37.689  46.947  63.245  1.00  0.00     0.163 HD
ENDROOT
BRANCH   7  12
HETATM   12  C   UNL     1      39.741  44.956  63.660  1.00  0.00    -0.028 A 
HETATM   13  C   UNL     1      40.268  46.097  64.307  1.00  0.00     0.049 A 
HETATM   14  C   UNL     1      41.634  46.207  64.574  1.00  0.00     0.101 A 
HETATM   15  C   UNL     1      42.480  45.163  64.187  1.00  0.00     0.099 A 
HETATM   16  C   UNL     1      41.993  44.031  63.551  1.00  0.00     0.040 A 
HETATM   17  C   UNL     1      40.628  43.930  63.285  1.00  0.00     0.012 A 
BRANCH  14  18
HETATM   18  O   UNL     1      42.260  47.263  65.184  1.00  0.00    -0.353 OA
HETATM   19  C   UNL     1      41.785  47.626  66.476  1.00  0.00     0.210 C 
ENDBRANCH  14  18
BRANCH  15  20
HETATM   20  O   UNL     1      43.825  45.242  64.426  1.00  0.00    -0.358 OA
HETATM   21  H   UNL     1      44.206  44.468  63.968  1.00  0.00     0.218 HD
ENDBRANCH  15  20
ENDBRANCH   7  12
BRANCH   1  22
HETATM   22  C   UNL     1      38.351  41.354  64.165  1.00  0.00    -0.002 A 
HETATM   23  C   UNL     1      38.767  40.357  65.069  1.00  0.00     0.050 A 
HETATM   24  C   UNL     1      39.472  39.234  64.628  1.00  0.00     0.069 A 
HETATM   25  C   UNL     1      39.781  39.110  63.274  1.00  0.00     0.037 A 
HETATM   26  C   UNL     1      39.371  40.082  62.363  1.00  0.00     0.004 A 
HETATM   27  C   UNL     1      38.652  41.194  62.806  1.00  0.00     0.014 A 
BRANCH  24  28
HETATM   28  O   UNL     1      39.913  38.203  65.412  1.00  0.00    -0.356 OA
HETATM   29  C   UNL     1      41.095  37.536  64.983  1.00  0.00     0.210 C 
ENDBRANCH  24  28
ENDBRANCH   1  22
TORSDOF 5
ENDMDL
