MODEL 1
REMARK VINA RESULT:      -9.1      0.000      0.000
REMARK  5 active torsions:
REMARK  status: ('A' for Active; 'I' for Inactive)
REMARK    1  A    between atoms: C_8  and  C_9 
REMARK    2  A    between atoms: C_13  and  C_14 
REMARK    3  A    between atoms: C_14  and  O_15 
REMARK    4  A    between atoms: O_15  and  C_16 
REMARK    5  A    between atoms: C_27  and  N_28 
ROOT
HETATM    1  C   UNL     1      26.586  47.752  50.539  1.00  0.00     0.073 C 
HETATM    2  C   UNL     1      25.247  47.331  50.058  1.00  0.00     0.062 A 
HETATM    3  N   UNL     1      24.261  48.233  49.914  1.00  0.00    -0.177 NA
HETATM    4  N   UNL     1      23.208  47.510  49.481  1.00  0.00    -0.256 N 
HETATM    5  H   UNL     1      22.330  47.982  49.304  1.00  0.00     0.191 HD
HETATM    6  C   UNL     1      23.504  46.194  49.328  1.00  0.00     0.175 A 
HETATM    7  C   UNL     1      24.810  46.034  49.706  1.00  0.00     0.035 A 
HETATM    8  C   UNL     1      25.452  44.686  49.674  1.00  0.00     0.112 A 
HETATM    9  C   UNL     1      24.470  43.669  49.060  1.00  0.00     0.081 A 
HETATM   10  C   UNL     1      24.979  42.359  48.828  1.00  0.00     0.100 C 
HETATM   11  N   UNL     1      25.389  41.296  48.603  1.00  0.00    -0.191 NA
HETATM   12  C   UNL     1      23.186  43.977  48.725  1.00  0.00     0.140 A 
HETATM   13  O   UNL     1      22.661  45.271  48.888  1.00  0.00    -0.279 OA
ENDROOT
BRANCH   8  14
HETATM   14  C   UNL     1      25.934  44.287  51.057  1.00  0.00    -0.003 A 
HETATM   15  S   UNL     1      24.980  44.629  52.434  1.00  0.00    -0.098 SA
HETATM   16  C   UNL     1      26.122  43.929  53.496  1.00  0.00    -0.013 A 
HETATM   17  C   UNL     1      25.847  43.899  54.965  1.00  0.00     0.057 C 
HETATM   18  C   UNL     1      27.235  43.447  52.825  1.00  0.00    -0.020 A 
HETATM   19  C   UNL     1      27.109  43.653  51.412  1.00  0.00     0.026 A 
BRANCH  18  20
HETATM   20  C   UNL     1      28.422  42.780  53.468  1.00  0.00     0.215 C 
BRANCH  20  21
HETATM   21  O   UNL     1      29.503  43.707  53.581  1.00  0.00    -0.347 OA
BRANCH  21  22
HETATM   22  C   UNL     1      29.945  44.001  54.841  1.00  0.00     0.069 A 
HETATM   23  C   UNL     1      30.871  43.262  55.582  1.00  0.00     0.040 A 
HETATM   24  C   UNL     1      31.230  43.682  56.867  1.00  0.00     0.045 A 
HETATM   25  C   UNL     1      30.667  44.835  57.401  1.00  0.00     0.116 A 
HETATM   26  F   UNL     1      31.016  45.231  58.631  1.00  0.00    -0.206 F 
HETATM   27  C   UNL     1      29.750  45.581  56.674  1.00  0.00     0.045 A 
HETATM   28  C   UNL     1      29.391  45.162  55.393  1.00  0.00     0.040 A 
ENDBRANCH  21  22
ENDBRANCH  20  21
ENDBRANCH  18  20
ENDBRANCH   8  14
BRANCH  12  29
HETATM   29  N   UNL     1      22.270  43.103  48.185  1.00  0.00    -0.282 NA
HETATM   30  H   UNL     1      21.928  42.377  48.811  1.00  0.00     0.126 HD
HETATM   31  H   UNL     1      22.567  42.742  47.282  1.00  0.00     0.126 HD
ENDBRANCH  12  29
TORSDOF 5
ENDMDL
MODEL 2
REMARK VINA RESULT:      -8.8      3.831      5.785
REMARK  5 active torsions:
REMARK  status: ('A' for Active; 'I' for Inactive)
REMARK    1  A    between atoms: C_8  and  C_9 
REMARK    2  A    between atoms: C_13  and  C_14 
REMARK    3  A    between atoms: C_14  and  O_15 
REMARK    4  A    between atoms: O_15  and  C_16 
REMARK    5  A    between atoms: C_27  and  N_28 
ROOT
HETATM    1  C   UNL     1      20.517  51.132  49.854  1.00  0.00     0.073 C 
HETATM    2  C   UNL     1      19.840  49.818  49.974  1.00  0.00     0.062 A 
HETATM    3  N   UNL     1      18.898  49.621  50.912  1.00  0.00    -0.177 NA
HETATM    4  N   UNL     1      18.520  48.337  50.740  1.00  0.00    -0.256 N 
HETATM    5  H   UNL     1      17.808  47.951  51.349  1.00  0.00     0.191 HD
HETATM    6  C   UNL     1      19.173  47.732  49.716  1.00  0.00     0.175 A 
HETATM    7  C   UNL     1      20.048  48.651  49.204  1.00  0.00     0.035 A 
HETATM    8  C   UNL     1      20.945  48.295  48.064  1.00  0.00     0.112 A 
HETATM    9  C   UNL     1      20.599  46.878  47.568  1.00  0.00     0.081 A 
HETATM   10  C   UNL     1      21.271  46.438  46.390  1.00  0.00     0.100 C 
HETATM   11  N   UNL     1      21.786  46.079  45.414  1.00  0.00    -0.191 NA
HETATM   12  C   UNL     1      19.692  46.070  48.183  1.00  0.00     0.140 A 
HETATM   13  O   UNL     1      18.969  46.485  49.316  1.00  0.00    -0.279 OA
ENDROOT
BRANCH   8  14
HETATM   14  C   UNL     1      22.403  48.449  48.457  1.00  0.00    -0.003 A 
HETATM   15  S   UNL     1      23.354  49.692  47.769  1.00  0.00    -0.098 SA
HETATM   16  C   UNL     1      24.744  49.222  48.648  1.00  0.00    -0.013 A 
HETATM   17  C   UNL     1      26.017  49.987  48.484  1.00  0.00     0.057 C 
HETATM   18  C   UNL     1      24.506  48.120  49.453  1.00  0.00    -0.020 A 
HETATM   19  C   UNL     1      23.144  47.687  49.339  1.00  0.00     0.026 A 
BRANCH  18  20
HETATM   20  C   UNL     1      25.520  47.456  50.346  1.00  0.00     0.215 C 
BRANCH  20  21
HETATM   21  O   UNL     1      25.111  47.555  51.711  1.00  0.00    -0.347 OA
BRANCH  21  22
HETATM   22  C   UNL     1      25.868  46.897  52.640  1.00  0.00     0.069 A 
HETATM   23  C   UNL     1      26.213  47.373  53.908  1.00  0.00     0.040 A 
HETATM   24  C   UNL     1      26.999  46.588  54.758  1.00  0.00     0.045 A 
HETATM   25  C   UNL     1      27.432  45.335  54.339  1.00  0.00     0.116 A 
HETATM   26  F   UNL     1      28.184  44.589  55.157  1.00  0.00    -0.206 F 
HETATM   27  C   UNL     1      27.093  44.848  53.084  1.00  0.00     0.045 A 
HETATM   28  C   UNL     1      26.309  45.631  52.236  1.00  0.00     0.040 A 
ENDBRANCH  21  22
ENDBRANCH  20  21
ENDBRANCH  18  20
ENDBRANCH   8  14
BRANCH  12  29
HETATM   29  N   UNL     1      19.359  44.794  47.786  1.00  0.00    -0.282 NA
HETATM   30  H   UNL     1      19.041  44.699  46.824  1.00  0.00     0.126 HD
HETATM   31  H   UNL     1      18.751  44.329  48.455  1.00  0.00     0.126 HD
ENDBRANCH  12  29
TORSDOF 5
ENDMDL
MODEL 3
REMARK VINA RESULT:      -8.6      4.985      8.733
REMARK  5 active torsions:
REMARK  status: ('A' for Active; 'I' for Inactive)
REMARK    1  A    between atoms: C_8  and  C_9 
REMARK    2  A    between atoms: C_13  and  C_14 
REMARK    3  A    between atoms: C_14  and  O_15 
REMARK    4  A    between atoms: O_15  and  C_16 
REMARK    5  A    between atoms: C_27  and  N_28 
ROOT
HETATM    1  C   UNL     1      25.690  46.641  53.636  1.00  0.00     0.073 C 
HETATM    2  C   UNL     1      26.518  45.611  52.961  1.00  0.00     0.062 A 
HETATM    3  N   UNL     1      27.651  45.168  53.533  1.00  0.00    -0.177 NA
HETATM    4  N   UNL     1      28.138  44.268  52.654  1.00  0.00    -0.256 N 
HETATM    5  H   UNL     1      29.008  43.796  52.869  1.00  0.00     0.191 HD
HETATM    6  C   UNL     1      27.341  44.116  51.566  1.00  0.00     0.175 A 
HETATM    7  C   UNL     1      26.290  44.978  51.718  1.00  0.00     0.035 A 
HETATM    8  C   UNL     1      25.226  45.074  50.674  1.00  0.00     0.112 A 
HETATM    9  C   UNL     1      25.480  44.009  49.590  1.00  0.00     0.081 A 
HETATM   10  C   UNL     1      24.474  43.872  48.590  1.00  0.00     0.100 C 
HETATM   11  N   UNL     1      23.648  43.728  47.787  1.00  0.00    -0.191 NA
HETATM   12  C   UNL     1      26.582  43.209  49.571  1.00  0.00     0.140 A 
HETATM   13  O   UNL     1      27.571  43.275  50.567  1.00  0.00    -0.279 OA
ENDROOT
BRANCH   8  14
HETATM   14  C   UNL     1      25.145  46.483  50.116  1.00  0.00    -0.003 A 
HETATM   15  S   UNL     1      26.568  47.305  49.642  1.00  0.00    -0.098 SA
HETATM   16  C   UNL     1      25.699  48.702  49.174  1.00  0.00    -0.013 A 
HETATM   17  C   UNL     1      26.433  49.878  48.616  1.00  0.00     0.057 C 
HETATM   18  C   UNL     1      24.336  48.566  49.385  1.00  0.00    -0.020 A 
HETATM   19  C   UNL     1      24.028  47.273  49.923  1.00  0.00     0.026 A 
BRANCH  18  20
HETATM   20  C   UNL     1      23.297  49.612  49.084  1.00  0.00     0.215 C 
BRANCH  20  21
HETATM   21  O   UNL     1      21.988  49.053  49.205  1.00  0.00    -0.347 OA
BRANCH  21  22
HETATM   22  C   UNL     1      20.942  49.927  49.310  1.00  0.00     0.069 A 
HETATM   23  C   UNL     1      19.827  49.782  50.141  1.00  0.00     0.040 A 
HETATM   24  C   UNL     1      18.827  50.759  50.143  1.00  0.00     0.045 A 
HETATM   25  C   UNL     1      18.947  51.874  49.321  1.00  0.00     0.116 A 
HETATM   26  F   UNL     1      17.985  52.805  49.328  1.00  0.00    -0.206 F 
HETATM   27  C   UNL     1      20.050  52.033  48.494  1.00  0.00     0.045 A 
HETATM   28  C   UNL     1      21.048  51.058  48.492  1.00  0.00     0.040 A 
ENDBRANCH  21  22
ENDBRANCH  20  21
ENDBRANCH  18  20
ENDBRANCH   8  14
BRANCH  12  29
HETATM   29  N   UNL     1      26.858  42.253  48.619  1.00  0.00    -0.282 NA
HETATM   30  H   UNL     1      26.209  41.470  48.576  1.00  0.00     0.126 HD
HETATM   31  H   UNL     1      27.832  41.962  48.636  1.00  0.00     0.126 HD
ENDBRANCH  12  29
TORSDOF 5
ENDMDL
MODEL 4
REMARK VINA RESULT:      -8.1      2.460      3.586
REMARK  5 active torsions:
REMARK  status: ('A' for Active; 'I' for Inactive)
REMARK    1  A    between atoms: C_8  and  C_9 
REMARK    2  A    between atoms: C_13  and  C_14 
REMARK    3  A    between atoms: C_14  and  O_15 
REMARK    4  A    between atoms: O_15  and  C_16 
REMARK    5  A    between atoms: C_27  and  N_28 
ROOT
HETATM    1  C   UNL     1      25.321  49.818  48.220  1.00  0.00     0.073 C 
HETATM    2  C   UNL     1      23.892  49.860  48.618  1.00  0.00     0.062 A 
HETATM    3  N   UNL     1      23.299  51.033  48.899  1.00  0.00    -0.177 NA
HETATM    4  N   UNL     1      22.034  50.696  49.227  1.00  0.00    -0.256 N 
HETATM    5  H   UNL     1      21.385  51.429  49.489  1.00  0.00     0.191 HD
HETATM    6  C   UNL     1      21.809  49.361  49.140  1.00  0.00     0.175 A 
HETATM    7  C   UNL     1      22.991  48.781  48.763  1.00  0.00     0.035 A 
HETATM    8  C   UNL     1      23.093  47.301  48.592  1.00  0.00     0.112 A 
HETATM    9  C   UNL     1      21.698  46.671  48.776  1.00  0.00     0.081 A 
HETATM   10  C   UNL     1      21.595  45.275  48.506  1.00  0.00     0.100 C 
HETATM   11  N   UNL     1      21.488  44.146  48.259  1.00  0.00    -0.191 NA
HETATM   12  C   UNL     1      20.599  47.381  49.153  1.00  0.00     0.140 A 
HETATM   13  O   UNL     1      20.647  48.768  49.377  1.00  0.00    -0.279 OA
ENDROOT
BRANCH   8  14
HETATM   14  C   UNL     1      24.136  46.722  49.530  1.00  0.00    -0.003 A 
HETATM   15  S   UNL     1      24.932  45.261  49.135  1.00  0.00    -0.098 SA
HETATM   16  C   UNL     1      25.861  45.288  50.571  1.00  0.00    -0.013 A 
HETATM   17  C   UNL     1      26.845  44.195  50.838  1.00  0.00     0.057 C 
HETATM   18  C   UNL     1      25.568  46.387  51.364  1.00  0.00    -0.020 A 
HETATM   19  C   UNL     1      24.573  47.214  50.745  1.00  0.00     0.026 A 
BRANCH  18  20
HETATM   20  C   UNL     1      26.204  46.701  52.691  1.00  0.00     0.215 C 
BRANCH  20  21
HETATM   21  O   UNL     1      26.266  45.523  53.497  1.00  0.00    -0.347 OA
BRANCH  21  22
HETATM   22  C   UNL     1      27.422  45.301  54.191  1.00  0.00     0.069 A 
HETATM   23  C   UNL     1      28.230  44.163  54.103  1.00  0.00     0.040 A 
HETATM   24  C   UNL     1      29.390  44.069  54.878  1.00  0.00     0.045 A 
HETATM   25  C   UNL     1      29.738  45.110  55.731  1.00  0.00     0.116 A 
HETATM   26  F   UNL     1      30.850  45.013  56.470  1.00  0.00    -0.206 F 
HETATM   27  C   UNL     1      28.948  46.248  55.825  1.00  0.00     0.045 A 
HETATM   28  C   UNL     1      27.790  46.341  55.052  1.00  0.00     0.040 A 
ENDBRANCH  21  22
ENDBRANCH  20  21
ENDBRANCH  18  20
ENDBRANCH   8  14
BRANCH  12  29
HETATM   29  N   UNL     1      19.338  46.862  49.341  1.00  0.00    -0.282 NA
HETATM   30  H   UNL     1      18.710  47.420  49.914  1.00  0.00     0.126 HD
HETATM   31  H   UNL     1      19.363  45.882  49.614  1.00  0.00     0.126 HD
ENDBRANCH  12  29
TORSDOF 5
ENDMDL
MODEL 5
REMARK VINA RESULT:      -8.0      1.373      2.112
REMARK  5 active torsions:
REMARK  status: ('A' for Active; 'I' for Inactive)
REMARK    1  A    between atoms: C_8  and  C_9 
REMARK    2  A    between atoms: C_13  and  C_14 
REMARK    3  A    between atoms: C_14  and  O_15 
REMARK    4  A    between atoms: O_15  and  C_16 
REMARK    5  A    between atoms: C_27  and  N_28 
ROOT
HETATM    1  C   UNL     1      24.404  46.882  49.649  1.00  0.00     0.073 C 
HETATM    2  C   UNL     1      23.701  45.664  49.175  1.00  0.00     0.062 A 
HETATM    3  N   UNL     1      22.399  45.717  48.843  1.00  0.00    -0.177 NA
HETATM    4  N   UNL     1      22.097  44.453  48.479  1.00  0.00    -0.256 N 
HETATM    5  H   UNL     1      21.150  44.242  48.187  1.00  0.00     0.191 HD
HETATM    6  C   UNL     1      23.165  43.619  48.548  1.00  0.00     0.175 A 
HETATM    7  C   UNL     1      24.220  44.360  49.010  1.00  0.00     0.035 A 
HETATM    8  C   UNL     1      25.557  43.731  49.222  1.00  0.00     0.112 A 
HETATM    9  C   UNL     1      25.517  42.272  48.727  1.00  0.00     0.081 A 
HETATM   10  C   UNL     1      26.757  41.570  48.729  1.00  0.00     0.100 C 
HETATM   11  N   UNL     1      27.765  40.995  48.694  1.00  0.00    -0.191 NA
HETATM   12  C   UNL     1      24.383  41.662  48.285  1.00  0.00     0.140 A 
HETATM   13  O   UNL     1      23.150  42.336  48.218  1.00  0.00    -0.279 OA
ENDROOT
BRANCH   8  14
HETATM   14  C   UNL     1      25.987  43.857  50.672  1.00  0.00    -0.003 A 
HETATM   15  S   UNL     1      24.819  43.854  51.920  1.00  0.00    -0.098 SA
HETATM   16  C   UNL     1      26.006  44.023  53.139  1.00  0.00    -0.013 A 
HETATM   17  C   UNL     1      25.593  44.076  54.574  1.00  0.00     0.057 C 
HETATM   18  C   UNL     1      27.288  44.098  52.616  1.00  0.00    -0.020 A 
HETATM   19  C   UNL     1      27.263  43.991  51.186  1.00  0.00     0.026 A 
BRANCH  18  20
HETATM   20  C   UNL     1      28.552  44.255  53.417  1.00  0.00     0.215 C 
BRANCH  20  21
HETATM   21  O   UNL     1      28.404  45.314  54.364  1.00  0.00    -0.347 OA
BRANCH  21  22
HETATM   22  C   UNL     1      29.171  45.254  55.494  1.00  0.00     0.069 A 
HETATM   23  C   UNL     1      29.037  46.065  56.624  1.00  0.00     0.040 A 
HETATM   24  C   UNL     1      29.898  45.893  57.713  1.00  0.00     0.045 A 
HETATM   25  C   UNL     1      30.882  44.912  57.668  1.00  0.00     0.116 A 
HETATM   26  F   UNL     1      31.703  44.753  58.714  1.00  0.00    -0.206 F 
HETATM   27  C   UNL     1      31.023  44.096  56.555  1.00  0.00     0.045 A 
HETATM   28  C   UNL     1      30.165  44.268  55.468  1.00  0.00     0.040 A 
ENDBRANCH  21  22
ENDBRANCH  20  21
ENDBRANCH  18  20
ENDBRANCH   8  14
BRANCH  12  29
HETATM   29  N   UNL     1      24.295  40.361  47.846  1.00  0.00    -0.282 NA
HETATM   30  H   UNL     1      24.069  40.240  46.861  1.00  0.00     0.126 HD
HETATM   31  H   UNL     1      23.724  39.785  48.460  1.00  0.00     0.126 HD
ENDBRANCH  12  29
TORSDOF 5
ENDMDL
MODEL 6
REMARK VINA RESULT:      -8.0      5.694      9.498
REMARK  5 active torsions:
REMARK  status: ('A' for Active; 'I' for Inactive)
REMARK    1  A    between atoms: C_8  and  C_9 
REMARK    2  A    between atoms: C_13  and  C_14 
REMARK    3  A    between atoms: C_14  and  O_15 
REMARK    4  A    between atoms: O_15  and  C_16 
REMARK    5  A    between atoms: C_27  and  N_28 
ROOT
HETATM    1  C   UNL     1      23.836  50.564  48.655  1.00  0.00     0.073 C 
HETATM    2  C   UNL     1      25.071  49.742  48.655  1.00  0.00     0.062 A 
HETATM    3  N   UNL     1      26.198  50.209  48.089  1.00  0.00    -0.177 NA
HETATM    4  N   UNL     1      27.093  49.213  48.259  1.00  0.00    -0.256 N 
HETATM    5  H   UNL     1      28.033  49.334  47.902  1.00  0.00     0.191 HD
HETATM    6  C   UNL     1      26.574  48.153  48.929  1.00  0.00     0.175 A 
HETATM    7  C   UNL     1      25.263  48.448  49.190  1.00  0.00     0.035 A 
HETATM    8  C   UNL     1      24.391  47.471  49.906  1.00  0.00     0.112 A 
HETATM    9  C   UNL     1      25.239  46.265  50.354  1.00  0.00     0.081 A 
HETATM   10  C   UNL     1      24.584  45.303  51.177  1.00  0.00     0.100 C 
HETATM   11  N   UNL     1      24.074  44.527  51.874  1.00  0.00    -0.191 NA
HETATM   12  C   UNL     1      26.549  46.106  50.020  1.00  0.00     0.140 A 
HETATM   13  O   UNL     1      27.246  47.057  49.255  1.00  0.00    -0.279 OA
ENDROOT
BRANCH   8  14
HETATM   14  C   UNL     1      23.204  47.078  49.046  1.00  0.00    -0.003 A 
HETATM   15  S   UNL     1      23.217  45.602  48.183  1.00  0.00    -0.098 SA
HETATM   16  C   UNL     1      21.665  45.884  47.522  1.00  0.00    -0.013 A 
HETATM   17  C   UNL     1      21.052  44.869  46.613  1.00  0.00     0.057 C 
HETATM   18  C   UNL     1      21.133  47.096  47.933  1.00  0.00    -0.020 A 
HETATM   19  C   UNL     1      22.031  47.774  48.823  1.00  0.00     0.026 A 
BRANCH  18  20
HETATM   20  C   UNL     1      19.791  47.644  47.528  1.00  0.00     0.215 C 
BRANCH  20  21
HETATM   21  O   UNL     1      19.909  49.023  47.177  1.00  0.00    -0.347 OA
BRANCH  21  22
HETATM   22  C   UNL     1      19.297  49.931  47.995  1.00  0.00     0.069 A 
HETATM   23  C   UNL     1      18.329  49.646  48.963  1.00  0.00     0.040 A 
HETATM   24  C   UNL     1      17.784  50.680  49.731  1.00  0.00     0.045 A 
HETATM   25  C   UNL     1      18.209  51.988  49.531  1.00  0.00     0.116 A 
HETATM   26  F   UNL     1      17.682  52.973  50.269  1.00  0.00    -0.206 F 
HETATM   27  C   UNL     1      19.172  52.285  48.577  1.00  0.00     0.045 A 
HETATM   28  C   UNL     1      19.716  51.253  47.811  1.00  0.00     0.040 A 
ENDBRANCH  21  22
ENDBRANCH  20  21
ENDBRANCH  18  20
ENDBRANCH   8  14
BRANCH  12  29
HETATM   29  N   UNL     1      27.343  45.042  50.385  1.00  0.00    -0.282 NA
HETATM   30  H   UNL     1      28.242  45.281  50.797  1.00  0.00     0.126 HD
HETATM   31  H   UNL     1      27.414  44.344  49.649  1.00  0.00     0.126 HD
ENDBRANCH  12  29
TORSDOF 5
ENDMDL
MODEL 7
REMARK VINA RESULT:      -7.7      4.726      7.362
REMARK  5 active torsions:
REMARK  status: ('A' for Active; 'I' for Inactive)
REMARK    1  A    between atoms: C_8  and  C_9 
REMARK    2  A    between atoms: C_13  and  C_14 
REMARK    3  A    between atoms: C_14  and  O_15 
REMARK    4  A    between atoms: O_15  and  C_16 
REMARK    5  A    between atoms: C_27  and  N_28 
ROOT
HETATM    1  C   UNL     1      20.698  45.780  45.819  1.00  0.00     0.073 C 
HETATM    2  C   UNL     1      19.716  46.890  45.759  1.00  0.00     0.062 A 
HETATM    3  N   UNL     1      19.115  47.204  44.598  1.00  0.00    -0.177 NA
HETATM    4  N   UNL     1      18.315  48.246  44.907  1.00  0.00    -0.256 N 
HETATM    5  H   UNL     1      17.755  48.666  44.176  1.00  0.00     0.191 HD
HETATM    6  C   UNL     1      18.376  48.580  46.221  1.00  0.00     0.175 A 
HETATM    7  C   UNL     1      19.283  47.737  46.805  1.00  0.00     0.035 A 
HETATM    8  C   UNL     1      19.603  47.851  48.259  1.00  0.00     0.112 A 
HETATM    9  C   UNL     1      18.686  48.910  48.900  1.00  0.00     0.081 A 
HETATM   10  C   UNL     1      18.766  49.043  50.317  1.00  0.00     0.100 C 
HETATM   11  N   UNL     1      18.797  49.140  51.473  1.00  0.00    -0.191 NA
HETATM   12  C   UNL     1      17.819  49.680  48.186  1.00  0.00     0.140 A 
HETATM   13  O   UNL     1      17.670  49.544  46.794  1.00  0.00    -0.279 OA
ENDROOT
BRANCH   8  14
HETATM   14  C   UNL     1      21.079  48.139  48.464  1.00  0.00    -0.003 A 
HETATM   15  S   UNL     1      21.746  49.627  47.952  1.00  0.00    -0.098 SA
HETATM   16  C   UNL     1      23.312  49.201  48.490  1.00  0.00    -0.013 A 
HETATM   17  C   UNL     1      24.440  50.168  48.326  1.00  0.00     0.057 C 
HETATM   18  C   UNL     1      23.348  47.932  49.046  1.00  0.00    -0.020 A 
HETATM   19  C   UNL     1      22.045  47.331  49.032  1.00  0.00     0.026 A 
BRANCH  18  20
HETATM   20  C   UNL     1      24.570  47.258  49.608  1.00  0.00     0.215 C 
BRANCH  20  21
HETATM   21  O   UNL     1      24.858  47.769  50.910  1.00  0.00    -0.347 OA
BRANCH  21  22
HETATM   22  C   UNL     1      25.169  46.861  51.883  1.00  0.00     0.069 A 
HETATM   23  C   UNL     1      25.741  47.149  53.126  1.00  0.00     0.040 A 
HETATM   24  C   UNL     1      26.009  46.114  54.028  1.00  0.00     0.045 A 
HETATM   25  C   UNL     1      25.702  44.802  53.685  1.00  0.00     0.116 A 
HETATM   26  F   UNL     1      25.961  43.816  54.553  1.00  0.00    -0.206 F 
HETATM   27  C   UNL     1      25.130  44.502  52.457  1.00  0.00     0.045 A 
HETATM   28  C   UNL     1      24.864  45.534  51.557  1.00  0.00     0.040 A 
ENDBRANCH  21  22
ENDBRANCH  20  21
ENDBRANCH  18  20
ENDBRANCH   8  14
BRANCH  12  29
HETATM   29  N   UNL     1      16.989  50.645  48.710  1.00  0.00    -0.282 NA
HETATM   30  H   UNL     1      17.450  51.403  49.209  1.00  0.00     0.126 HD
HETATM   31  H   UNL     1      16.210  50.244  49.227  1.00  0.00     0.126 HD
ENDBRANCH  12  29
TORSDOF 5
ENDMDL
MODEL 8
REMARK VINA RESULT:      -7.6      4.190      6.970
REMARK  5 active torsions:
REMARK  status: ('A' for Active; 'I' for Inactive)
REMARK    1  A    between atoms: C_8  and  C_9 
REMARK    2  A    between atoms: C_13  and  C_14 
REMARK    3  A    between atoms: C_14  and  O_15 
REMARK    4  A    between atoms: O_15  and  C_16 
REMARK    5  A    between atoms: C_27  and  N_28 
ROOT
HETATM    1  C   UNL     1      28.356  41.460  52.363  1.00  0.00     0.073 C 
HETATM    2  C   UNL     1      27.650  42.541  53.094  1.00  0.00     0.062 A 
HETATM    3  N   UNL     1      27.460  42.451  54.422  1.00  0.00    -0.177 NA
HETATM    4  N   UNL     1      26.788  43.578  54.739  1.00  0.00    -0.256 N 
HETATM    5  H   UNL     1      26.523  43.734  55.705  1.00  0.00     0.191 HD
HETATM    6  C   UNL     1      26.573  44.379  53.665  1.00  0.00     0.175 A 
HETATM    7  C   UNL     1      27.101  43.737  52.577  1.00  0.00     0.035 A 
HETATM    8  C   UNL     1      27.014  44.346  51.217  1.00  0.00     0.112 A 
HETATM    9  C   UNL     1      26.396  45.753  51.329  1.00  0.00     0.081 A 
HETATM   10  C   UNL     1      26.372  46.530  50.134  1.00  0.00     0.100 C 
HETATM   11  N   UNL     1      26.374  47.186  49.176  1.00  0.00    -0.191 NA
HETATM   12  C   UNL     1      25.911  46.268  52.493  1.00  0.00     0.140 A 
HETATM   13  O   UNL     1      25.965  45.556  53.704  1.00  0.00    -0.279 OA
ENDROOT
BRANCH   8  14
HETATM   14  C   UNL     1      26.256  43.437  50.267  1.00  0.00    -0.003 A 
HETATM   15  S   UNL     1      24.561  43.263  50.411  1.00  0.00    -0.098 SA
HETATM   16  C   UNL     1      24.484  42.168  49.100  1.00  0.00    -0.013 A 
HETATM   17  C   UNL     1      23.163  41.609  48.678  1.00  0.00     0.057 C 
HETATM   18  C   UNL     1      25.733  41.914  48.555  1.00  0.00    -0.020 A 
HETATM   19  C   UNL     1      26.749  42.662  49.236  1.00  0.00     0.026 A 
BRANCH  18  20
HETATM   20  C   UNL     1      26.010  40.993  47.397  1.00  0.00     0.215 C 
BRANCH  20  21
HETATM   21  O   UNL     1      25.908  39.632  47.816  1.00  0.00    -0.347 OA
BRANCH  21  22
HETATM   22  C   UNL     1      27.005  39.078  48.415  1.00  0.00     0.069 A 
HETATM   23  C   UNL     1      28.321  39.538  48.309  1.00  0.00     0.040 A 
HETATM   24  C   UNL     1      29.350  38.868  48.978  1.00  0.00     0.045 A 
HETATM   25  C   UNL     1      29.060  37.748  49.749  1.00  0.00     0.116 A 
HETATM   26  F   UNL     1      30.051  37.112  50.386  1.00  0.00    -0.206 F 
HETATM   27  C   UNL     1      27.758  37.283  49.866  1.00  0.00     0.045 A 
HETATM   28  C   UNL     1      26.731  37.951  49.198  1.00  0.00     0.040 A 
ENDBRANCH  21  22
ENDBRANCH  20  21
ENDBRANCH  18  20
ENDBRANCH   8  14
BRANCH  12  29
HETATM   29  N   UNL     1      25.341  47.512  52.639  1.00  0.00    -0.282 NA
HETATM   30  H   UNL     1      24.366  47.588  52.360  1.00  0.00     0.126 HD
HETATM   31  H   UNL     1      25.925  48.251  52.255  1.00  0.00     0.126 HD
ENDBRANCH  12  29
TORSDOF 5
ENDMDL
MODEL 9
REMARK VINA RESULT:      -7.6     12.207     13.767
REMARK  5 active torsions:
REMARK  status: ('A' for Active; 'I' for Inactive)
REMARK    1  A    between atoms: C_8  and  C_9 
REMARK    2  A    between atoms: C_13  and  C_14 
REMARK    3  A    between atoms: C_14  and  O_15 
REMARK    4  A    between atoms: O_15  and  C_16 
REMARK    5  A    between atoms: C_27  and  N_28 
ROOT
HETATM    1  C   UNL     1      30.104  53.725  40.209  1.00  0.00     0.073 C 
HETATM    2  C   UNL     1      29.090  52.749  40.676  1.00  0.00     0.062 A 
HETATM    3  N   UNL     1      27.853  53.160  41.006  1.00  0.00    -0.177 NA
HETATM    4  N   UNL     1      27.218  52.033  41.390  1.00  0.00    -0.256 N 
HETATM    5  H   UNL     1      26.254  52.094  41.695  1.00  0.00     0.191 HD
HETATM    6  C   UNL     1      28.004  50.930  41.290  1.00  0.00     0.175 A 
HETATM    7  C   UNL     1      29.228  51.353  40.846  1.00  0.00     0.035 A 
HETATM    8  C   UNL     1      30.342  50.379  40.645  1.00  0.00     0.112 A 
HETATM    9  C   UNL     1      29.819  48.950  40.886  1.00  0.00     0.081 A 
HETATM   10  C   UNL     1      30.724  47.888  40.597  1.00  0.00     0.100 C 
HETATM   11  N   UNL     1      31.439  47.012  40.336  1.00  0.00    -0.191 NA
HETATM   12  C   UNL     1      28.560  48.679  41.328  1.00  0.00     0.140 A 
HETATM   13  O   UNL     1      27.619  49.694  41.573  1.00  0.00    -0.279 OA
ENDROOT
BRANCH   8  14
HETATM   14  C   UNL     1      31.531  50.733  41.521  1.00  0.00    -0.003 A 
HETATM   15  S   UNL     1      31.286  51.369  43.089  1.00  0.00    -0.098 SA
HETATM   16  C   UNL     1      32.966  51.493  43.386  1.00  0.00    -0.013 A 
HETATM   17  C   UNL     1      33.449  52.013  44.700  1.00  0.00     0.057 C 
HETATM   18  C   UNL     1      33.722  51.071  42.303  1.00  0.00    -0.020 A 
HETATM   19  C   UNL     1      32.878  50.626  41.232  1.00  0.00     0.026 A 
BRANCH  18  20
HETATM   20  C   UNL     1      35.225  51.058  42.239  1.00  0.00     0.215 C 
BRANCH  20  21
HETATM   21  O   UNL     1      35.718  52.382  42.025  1.00  0.00    -0.347 OA
BRANCH  21  22
HETATM   22  C   UNL     1      36.657  52.848  42.903  1.00  0.00     0.069 A 
HETATM   23  C   UNL     1      37.004  52.265  44.124  1.00  0.00     0.040 A 
HETATM   24  C   UNL     1      37.987  52.855  44.926  1.00  0.00     0.045 A 
HETATM   25  C   UNL     1      38.618  54.019  44.502  1.00  0.00     0.116 A 
HETATM   26  F   UNL     1      39.557  54.579  45.274  1.00  0.00    -0.206 F 
HETATM   27  C   UNL     1      38.287  54.607  43.289  1.00  0.00     0.045 A 
HETATM   28  C   UNL     1      37.306  54.018  42.490  1.00  0.00     0.040 A 
ENDBRANCH  21  22
ENDBRANCH  20  21
ENDBRANCH  18  20
ENDBRANCH   8  14
BRANCH  12  29
HETATM   29  N   UNL     1      28.051  47.422  41.568  1.00  0.00    -0.282 NA
HETATM   30  H   UNL     1      27.460  47.333  42.392  1.00  0.00     0.126 HD
HETATM   31  H   UNL     1      28.765  46.700  41.510  1.00  0.00     0.126 HD
ENDBRANCH  12  29
TORSDOF 5
ENDMDL
MODEL 10
REMARK VINA RESULT:      -7.5      7.308     10.204
REMARK  5 active torsions:
REMARK  status: ('A' for Active; 'I' for Inactive)
REMARK    1  A    between atoms: C_8  and  C_9 
REMARK    2  A    between atoms: C_13  and  C_14 
REMARK    3  A    between atoms: C_14  and  O_15 
REMARK    4  A    between atoms: O_15  and  C_16 
REMARK    5  A    between atoms: C_27  and  N_28 
ROOT
HETATM    1  C   UNL     1      18.811  51.955  49.936  1.00  0.00     0.073 C 
HETATM    2  C   UNL     1      17.545  51.996  49.163  1.00  0.00     0.062 A 
HETATM    3  N   UNL     1      16.393  52.344  49.763  1.00  0.00    -0.177 NA
HETATM    4  N   UNL     1      15.470  52.261  48.783  1.00  0.00    -0.256 N 
HETATM    5  H   UNL     1      14.504  52.476  49.001  1.00  0.00     0.191 HD
HETATM    6  C   UNL     1      16.004  51.898  47.589  1.00  0.00     0.175 A 
HETATM    7  C   UNL     1      17.343  51.701  47.796  1.00  0.00     0.035 A 
HETATM    8  C   UNL     1      18.231  51.270  46.676  1.00  0.00     0.112 A 
HETATM    9  C   UNL     1      17.419  51.240  45.366  1.00  0.00     0.081 A 
HETATM   10  C   UNL     1      18.154  50.983  44.172  1.00  0.00     0.100 C 
HETATM   11  N   UNL     1      18.744  50.807  43.188  1.00  0.00    -0.191 NA
HETATM   12  C   UNL     1      16.077  51.463  45.312  1.00  0.00     0.140 A 
HETATM   13  O   UNL     1      15.324  51.772  46.458  1.00  0.00    -0.279 OA
ENDROOT
BRANCH   8  14
HETATM   14  C   UNL     1      18.895  49.943  46.995  1.00  0.00    -0.003 A 
HETATM   15  S   UNL     1      17.970  48.506  47.039  1.00  0.00    -0.098 SA
HETATM   16  C   UNL     1      19.331  47.550  47.437  1.00  0.00    -0.013 A 
HETATM   17  C   UNL     1      19.173  46.074  47.616  1.00  0.00     0.057 C 
HETATM   18  C   UNL     1      20.487  48.306  47.553  1.00  0.00    -0.020 A 
HETATM   19  C   UNL     1      20.221  49.690  47.287  1.00  0.00     0.026 A 
BRANCH  18  20
HETATM   20  C   UNL     1      21.851  47.770  47.898  1.00  0.00     0.215 C 
BRANCH  20  21
HETATM   21  O   UNL     1      22.417  48.523  48.972  1.00  0.00    -0.347 OA
BRANCH  21  22
HETATM   22  C   UNL     1      23.772  48.699  48.965  1.00  0.00     0.069 A 
HETATM   23  C   UNL     1      24.704  47.948  49.688  1.00  0.00     0.040 A 
HETATM   24  C   UNL     1      26.067  48.242  49.586  1.00  0.00     0.045 A 
HETATM   25  C   UNL     1      26.491  49.279  48.764  1.00  0.00     0.116 A 
HETATM   26  F   UNL     1      27.798  49.555  48.672  1.00  0.00    -0.206 F 
HETATM   27  C   UNL     1      25.578  50.030  48.037  1.00  0.00     0.045 A 
HETATM   28  C   UNL     1      24.218  49.737  48.139  1.00  0.00     0.040 A 
ENDBRANCH  21  22
ENDBRANCH  20  21
ENDBRANCH  18  20
ENDBRANCH   8  14
BRANCH  12  29
HETATM   29  N   UNL     1      15.308  51.435  44.170  1.00  0.00    -0.282 NA
HETATM   30  H   UNL     1      14.305  51.345  44.314  1.00  0.00     0.126 HD
HETATM   31  H   UNL     1      15.672  50.786  43.477  1.00  0.00     0.126 HD
ENDBRANCH  12  29
TORSDOF 5
ENDMDL
