MODEL 1
REMARK VINA RESULT:      -9.0      0.000      0.000
REMARK  6 active torsions:
REMARK  status: ('A' for Active; 'I' for Inactive)
REMARK    1  A    between atoms: C_2  and  O_3 
REMARK    2  A    between atoms: O_3  and  C_4 
REMARK    3  A    between atoms: C_4  and  C_5 
REMARK    4  A    between atoms: C_10  and  N_11 
REMARK       I    between atoms: N_11  and  C_12 
REMARK    5  A    between atoms: C_12  and  C_13 
REMARK    6  A    between atoms: C_13  and  N_14 
ROOT
HETATM    1  N   UNL     1      27.293  42.931  52.627  1.00  0.00    -0.322 N 
HETATM    2  C   UNL     1      27.379  43.014  51.255  1.00  0.00     0.253 C 
HETATM    3  O   UNL     1      27.822  43.994  50.662  1.00  0.00    -0.271 OA
HETATM    4  H   UNL     1      27.298  42.020  53.081  1.00  0.00     0.169 HD
ENDROOT
BRANCH   2   5
HETATM    5  C   UNL     1      26.860  41.778  50.445  1.00  0.00     0.275 C 
HETATM    6  C   UNL     1      25.337  41.806  50.232  1.00  0.00     0.050 C 
BRANCH   5   7
HETATM    7  N   UNL     1      27.200  40.347  51.048  1.00  0.00    -0.058 N 
HETATM    8  H   UNL     1      27.056  40.499  52.055  1.00  0.00     0.281 HD
HETATM    9  C   UNL     1      26.207  39.254  50.651  1.00  0.00     0.246 C 
HETATM   10  C   UNL     1      26.626  38.445  49.405  1.00  0.00     0.062 C 
HETATM   11  C   UNL     1      28.008  37.843  49.624  1.00  0.00     0.020 C 
HETATM   12  C   UNL     1      26.600  39.293  48.151  1.00  0.00     0.020 A 
HETATM   13  C   UNL     1      28.986  39.001  49.768  1.00  0.00     0.031 C 
HETATM   14  C   UNL     1      29.038  39.764  48.445  1.00  0.00     0.138 C 
HETATM   15  C   UNL     1      28.631  39.837  51.003  1.00  0.00     0.242 C 
HETATM   16  N   UNL     1      27.750  39.999  47.788  1.00  0.00    -0.317 N 
HETATM   17  C   UNL     1      27.792  40.825  46.653  1.00  0.00     0.247 A 
HETATM   18  O   UNL     1      28.780  41.460  46.299  1.00  0.00    -0.268 OA
HETATM   19  C   UNL     1      26.540  40.925  45.865  1.00  0.00     0.074 A 
HETATM   20  C   UNL     1      25.458  40.230  46.232  1.00  0.00     0.007 A 
HETATM   21  C   UNL     1      25.488  39.392  47.401  1.00  0.00     0.026 A 
ENDBRANCH   5   7
ENDBRANCH   2   5
BRANCH   1  22
HETATM   22  C   UNL     1      27.481  43.978  53.529  1.00  0.00     0.080 A 
HETATM   23  C   UNL     1      26.569  45.025  53.589  1.00  0.00     0.137 A 
HETATM   24  N   UNL     1      27.005  45.892  54.559  1.00  0.00    -0.349 N 
HETATM   25  H   UNL     1      26.523  46.742  54.824  1.00  0.00     0.166 HD
HETATM   26  C   UNL     1      28.192  45.463  55.101  1.00  0.00     0.045 A 
HETATM   27  C   UNL     1      28.531  44.262  54.465  1.00  0.00     0.023 A 
HETATM   28  C   UNL     1      28.983  46.064  56.090  1.00  0.00     0.033 A 
HETATM   29  C   UNL     1      29.759  43.664  54.824  1.00  0.00     0.058 A 
HETATM   30  C   UNL     1      30.551  44.254  55.810  1.00  0.00     0.117 A 
HETATM   31  C   UNL     1      30.174  45.430  56.439  1.00  0.00     0.044 A 
HETATM   32  F   UNL     1      31.708  43.672  56.152  1.00  0.00    -0.206 F 
BRANCH  23  33
HETATM   33  C   UNL     1      25.359  45.196  52.822  1.00  0.00     0.312 C 
HETATM   34  O   UNL     1      24.541  44.301  52.634  1.00  0.00    -0.258 OA
BRANCH  33  35
HETATM   35  O   UNL     1      25.271  46.472  52.364  1.00  0.00    -0.317 OA
BRANCH  35  36
HETATM   36  C   UNL     1      24.975  46.618  50.967  1.00  0.00     0.175 C 
HETATM   37  C   UNL     1      26.050  47.443  50.285  1.00  0.00     0.034 C 
ENDBRANCH  35  36
ENDBRANCH  33  35
ENDBRANCH  23  33
ENDBRANCH   1  22
TORSDOF 6
ENDMDL
MODEL 2
REMARK VINA RESULT:      -8.9      5.114      9.124
REMARK  6 active torsions:
REMARK  status: ('A' for Active; 'I' for Inactive)
REMARK    1  A    between atoms: C_2  and  O_3 
REMARK    2  A    between atoms: O_3  and  C_4 
REMARK    3  A    between atoms: C_4  and  C_5 
REMARK    4  A    between atoms: C_10  and  N_11 
REMARK       I    between atoms: N_11  and  C_12 
REMARK    5  A    between atoms: C_12  and  C_13 
REMARK    6  A    between atoms: C_13  and  N_14 
ROOT
HETATM    1  N   UNL     1      23.888  46.404  50.105  1.00  0.00    -0.322 N 
HETATM    2  C   UNL     1      23.902  47.726  49.719  1.00  0.00     0.253 C 
HETATM    3  O   UNL     1      24.878  48.460  49.852  1.00  0.00    -0.271 OA
HETATM    4  H   UNL     1      23.252  45.751  49.652  1.00  0.00     0.169 HD
ENDROOT
BRANCH   2   5
HETATM    5  C   UNL     1      22.579  48.287  49.100  1.00  0.00     0.275 C 
HETATM    6  C   UNL     1      22.115  47.492  47.868  1.00  0.00     0.050 C 
BRANCH   5   7
HETATM    7  N   UNL     1      22.598  49.815  48.662  1.00  0.00    -0.058 N 
HETATM    8  H   UNL     1      23.592  49.963  48.445  1.00  0.00     0.281 HD
HETATM    9  C   UNL     1      21.847  50.098  47.360  1.00  0.00     0.246 C 
HETATM   10  C   UNL     1      20.381  50.535  47.561  1.00  0.00     0.062 C 
HETATM   11  C   UNL     1      20.327  51.754  48.472  1.00  0.00     0.020 C 
HETATM   12  C   UNL     1      19.532  49.409  48.116  1.00  0.00     0.020 A 
HETATM   13  C   UNL     1      20.867  51.326  49.830  1.00  0.00     0.031 C 
HETATM   14  C   UNL     1      19.922  50.283  50.426  1.00  0.00     0.138 C 
HETATM   15  C   UNL     1      22.332  50.894  49.699  1.00  0.00     0.242 C 
HETATM   16  N   UNL     1      19.430  49.259  49.502  1.00  0.00    -0.317 N 
HETATM   17  C   UNL     1      18.683  48.225  50.088  1.00  0.00     0.247 A 
HETATM   18  O   UNL     1      18.566  48.058  51.297  1.00  0.00    -0.268 OA
HETATM   19  C   UNL     1      18.018  47.283  49.154  1.00  0.00     0.074 A 
HETATM   20  C   UNL     1      18.127  47.458  47.833  1.00  0.00     0.007 A 
HETATM   21  C   UNL     1      18.899  48.547  47.300  1.00  0.00     0.026 A 
ENDBRANCH   5   7
ENDBRANCH   2   5
BRANCH   1  22
HETATM   22  C   UNL     1      24.859  45.759  50.873  1.00  0.00     0.080 A 
HETATM   23  C   UNL     1      25.341  44.513  50.491  1.00  0.00     0.137 A 
HETATM   24  N   UNL     1      26.277  44.135  51.421  1.00  0.00    -0.349 N 
HETATM   25  H   UNL     1      26.800  43.269  51.386  1.00  0.00     0.166 HD
HETATM   26  C   UNL     1      26.385  45.075  52.416  1.00  0.00     0.045 A 
HETATM   27  C   UNL     1      25.493  46.111  52.110  1.00  0.00     0.023 A 
HETATM   28  C   UNL     1      27.195  45.065  53.560  1.00  0.00     0.033 A 
HETATM   29  C   UNL     1      25.390  47.171  53.037  1.00  0.00     0.058 A 
HETATM   30  C   UNL     1      26.196  47.170  54.178  1.00  0.00     0.117 A 
HETATM   31  C   UNL     1      27.087  46.142  54.439  1.00  0.00     0.044 A 
HETATM   32  F   UNL     1      26.098  48.187  55.046  1.00  0.00    -0.206 F 
BRANCH  23  33
HETATM   33  C   UNL     1      24.985  43.739  49.327  1.00  0.00     0.312 C 
HETATM   34  O   UNL     1      24.037  44.006  48.596  1.00  0.00    -0.258 OA
BRANCH  33  35
HETATM   35  O   UNL     1      25.849  42.701  49.172  1.00  0.00    -0.317 OA
BRANCH  35  36
HETATM   36  C   UNL     1      25.284  41.389  49.307  1.00  0.00     0.175 C 
HETATM   37  C   UNL     1      26.041  40.595  50.355  1.00  0.00     0.034 C 
ENDBRANCH  35  36
ENDBRANCH  33  35
ENDBRANCH  23  33
ENDBRANCH   1  22
TORSDOF 6
ENDMDL
MODEL 3
REMARK VINA RESULT:      -8.7     12.809     15.640
REMARK  6 active torsions:
REMARK  status: ('A' for Active; 'I' for Inactive)
REMARK    1  A    between atoms: C_2  and  O_3 
REMARK    2  A    between atoms: O_3  and  C_4 
REMARK    3  A    between atoms: C_4  and  C_5 
REMARK    4  A    between atoms: C_10  and  N_11 
REMARK       I    between atoms: N_11  and  C_12 
REMARK    5  A    between atoms: C_12  and  C_13 
REMARK    6  A    between atoms: C_13  and  N_14 
ROOT
HETATM    1  N   UNL     1      29.425  47.983  39.509  1.00  0.00    -0.322 N 
HETATM    2  C   UNL     1      30.522  48.783  39.277  1.00  0.00     0.253 C 
HETATM    3  O   UNL     1      30.766  49.298  38.189  1.00  0.00    -0.271 OA
HETATM    4  H   UNL     1      29.050  47.898  40.451  1.00  0.00     0.169 HD
ENDROOT
BRANCH   2   5
HETATM    5  C   UNL     1      31.492  49.007  40.485  1.00  0.00     0.275 C 
HETATM    6  C   UNL     1      32.185  47.711  40.940  1.00  0.00     0.050 C 
BRANCH   5   7
HETATM    7  N   UNL     1      30.855  49.654  41.790  1.00  0.00    -0.058 N 
HETATM    8  H   UNL     1      30.105  48.987  42.015  1.00  0.00     0.281 HD
HETATM    9  C   UNL     1      31.786  49.651  43.002  1.00  0.00     0.246 C 
HETATM   10  C   UNL     1      32.598  50.952  43.176  1.00  0.00     0.062 C 
HETATM   11  C   UNL     1      31.651  52.144  43.245  1.00  0.00     0.020 C 
HETATM   12  C   UNL     1      33.611  51.133  42.065  1.00  0.00     0.020 A 
HETATM   13  C   UNL     1      30.934  52.227  41.904  1.00  0.00     0.031 C 
HETATM   14  C   UNL     1      31.963  52.538  40.818  1.00  0.00     0.138 C 
HETATM   15  C   UNL     1      30.094  50.965  41.680  1.00  0.00     0.242 C 
HETATM   16  N   UNL     1      33.228  51.806  40.902  1.00  0.00    -0.317 N 
HETATM   17  C   UNL     1      34.106  51.989  39.821  1.00  0.00     0.247 A 
HETATM   18  O   UNL     1      33.810  52.574  38.785  1.00  0.00    -0.268 OA
HETATM   19  C   UNL     1      35.464  51.410  39.971  1.00  0.00     0.074 A 
HETATM   20  C   UNL     1      35.804  50.780  41.100  1.00  0.00     0.007 A 
HETATM   21  C   UNL     1      34.858  50.639  42.174  1.00  0.00     0.026 A 
ENDBRANCH   5   7
ENDBRANCH   2   5
BRANCH   1  22
HETATM   22  C   UNL     1      28.561  47.467  38.542  1.00  0.00     0.080 A 
HETATM   23  C   UNL     1      27.429  48.179  38.163  1.00  0.00     0.137 A 
HETATM   24  N   UNL     1      26.784  47.438  37.204  1.00  0.00    -0.349 N 
HETATM   25  H   UNL     1      25.929  47.724  36.741  1.00  0.00     0.166 HD
HETATM   26  C   UNL     1      27.437  46.252  36.980  1.00  0.00     0.045 A 
HETATM   27  C   UNL     1      28.560  46.229  37.818  1.00  0.00     0.023 A 
HETATM   28  C   UNL     1      27.100  45.205  36.111  1.00  0.00     0.033 A 
HETATM   29  C   UNL     1      29.356  45.063  37.801  1.00  0.00     0.058 A 
HETATM   30  C   UNL     1      29.029  44.017  36.936  1.00  0.00     0.117 A 
HETATM   31  C   UNL     1      27.926  44.081  36.100  1.00  0.00     0.044 A 
HETATM   32  F   UNL     1      29.799  42.920  36.919  1.00  0.00    -0.206 F 
BRANCH  23  33
HETATM   33  C   UNL     1      26.990  49.470  38.632  1.00  0.00     0.312 C 
HETATM   34  O   UNL     1      26.135  49.625  39.498  1.00  0.00    -0.258 OA
BRANCH  33  35
HETATM   35  O   UNL     1      27.665  50.458  37.986  1.00  0.00    -0.317 OA
BRANCH  35  36
HETATM   36  C   UNL     1      27.964  51.626  38.765  1.00  0.00     0.175 C 
HETATM   37  C   UNL     1      29.076  52.424  38.109  1.00  0.00     0.034 C 
ENDBRANCH  35  36
ENDBRANCH  33  35
ENDBRANCH  23  33
ENDBRANCH   1  22
TORSDOF 6
ENDMDL
MODEL 4
REMARK VINA RESULT:      -8.5     13.950     16.371
REMARK  6 active torsions:
REMARK  status: ('A' for Active; 'I' for Inactive)
REMARK    1  A    between atoms: C_2  and  O_3 
REMARK    2  A    between atoms: O_3  and  C_4 
REMARK    3  A    between atoms: C_4  and  C_5 
REMARK    4  A    between atoms: C_10  and  N_11 
REMARK       I    between atoms: N_11  and  C_12 
REMARK    5  A    between atoms: C_12  and  C_13 
REMARK    6  A    between atoms: C_13  and  N_14 
ROOT
HETATM    1  N   UNL     1      34.517  52.101  39.676  1.00  0.00    -0.322 N 
HETATM    2  C   UNL     1      33.309  52.762  39.637  1.00  0.00     0.253 C 
HETATM    3  O   UNL     1      33.191  53.970  39.824  1.00  0.00    -0.271 OA
HETATM    4  H   UNL     1      34.636  51.233  39.159  1.00  0.00     0.169 HD
ENDROOT
BRANCH   2   5
HETATM    5  C   UNL     1      32.043  51.886  39.354  1.00  0.00     0.275 C 
HETATM    6  C   UNL     1      32.055  51.260  37.949  1.00  0.00     0.050 C 
BRANCH   5   7
HETATM    7  N   UNL     1      30.636  52.611  39.507  1.00  0.00    -0.058 N 
HETATM    8  H   UNL     1      30.830  53.541  39.112  1.00  0.00     0.281 HD
HETATM    9  C   UNL     1      29.533  52.016  38.631  1.00  0.00     0.246 C 
HETATM   10  C   UNL     1      28.670  50.952  39.343  1.00  0.00     0.062 C 
HETATM   11  C   UNL     1      28.070  51.540  40.613  1.00  0.00     0.020 C 
HETATM   12  C   UNL     1      29.465  49.701  39.651  1.00  0.00     0.020 A 
HETATM   13  C   UNL     1      29.229  51.884  41.540  1.00  0.00     0.031 C 
HETATM   14  C   UNL     1      29.936  50.590  41.939  1.00  0.00     0.138 C 
HETATM   15  C   UNL     1      30.117  52.953  40.894  1.00  0.00     0.242 C 
HETATM   16  N   UNL     1      30.150  49.617  40.866  1.00  0.00    -0.317 N 
HETATM   17  C   UNL     1      30.927  48.499  41.210  1.00  0.00     0.247 A 
HETATM   18  O   UNL     1      31.542  48.385  42.265  1.00  0.00    -0.268 OA
HETATM   19  C   UNL     1      31.001  47.413  40.202  1.00  0.00     0.074 A 
HETATM   20  C   UNL     1      30.327  47.518  39.052  1.00  0.00     0.007 A 
HETATM   21  C   UNL     1      29.538  48.687  38.769  1.00  0.00     0.026 A 
ENDBRANCH   5   7
ENDBRANCH   2   5
BRANCH   1  22
HETATM   22  C   UNL     1      35.729  52.626  40.125  1.00  0.00     0.080 A 
HETATM   23  C   UNL     1      36.235  52.259  41.367  1.00  0.00     0.137 A 
HETATM   24  N   UNL     1      37.426  52.920  41.534  1.00  0.00    -0.349 N 
HETATM   25  H   UNL     1      38.019  52.830  42.350  1.00  0.00     0.166 HD
HETATM   26  C   UNL     1      37.688  53.735  40.461  1.00  0.00     0.045 A 
HETATM   27  C   UNL     1      36.630  53.586  39.555  1.00  0.00     0.023 A 
HETATM   28  C   UNL     1      38.774  54.595  40.246  1.00  0.00     0.033 A 
HETATM   29  C   UNL     1      36.658  54.384  38.390  1.00  0.00     0.058 A 
HETATM   30  C   UNL     1      37.737  55.241  38.167  1.00  0.00     0.117 A 
HETATM   31  C   UNL     1      38.782  55.347  39.071  1.00  0.00     0.044 A 
HETATM   32  F   UNL     1      37.759  55.985  37.053  1.00  0.00    -0.206 F 
BRANCH  23  33
HETATM   33  C   UNL     1      35.670  51.336  42.320  1.00  0.00     0.312 C 
HETATM   34  O   UNL     1      36.047  50.176  42.449  1.00  0.00    -0.258 OA
BRANCH  33  35
HETATM   35  O   UNL     1      34.688  51.944  43.036  1.00  0.00    -0.317 OA
BRANCH  35  36
HETATM   36  C   UNL     1      33.427  51.260  43.079  1.00  0.00     0.175 C 
HETATM   37  C   UNL     1      32.604  51.746  44.257  1.00  0.00     0.034 C 
ENDBRANCH  35  36
ENDBRANCH  33  35
ENDBRANCH  23  33
ENDBRANCH   1  22
TORSDOF 6
ENDMDL
MODEL 5
REMARK VINA RESULT:      -8.5      3.052      5.498
REMARK  6 active torsions:
REMARK  status: ('A' for Active; 'I' for Inactive)
REMARK    1  A    between atoms: C_2  and  O_3 
REMARK    2  A    between atoms: O_3  and  C_4 
REMARK    3  A    between atoms: C_4  and  C_5 
REMARK    4  A    between atoms: C_10  and  N_11 
REMARK       I    between atoms: N_11  and  C_12 
REMARK    5  A    between atoms: C_12  and  C_13 
REMARK    6  A    between atoms: C_13  and  N_14 
ROOT
HETATM    1  N   UNL     1      28.267  45.043  53.950  1.00  0.00    -0.322 N 
HETATM    2  C   UNL     1      26.979  44.558  53.885  1.00  0.00     0.253 C 
HETATM    3  O   UNL     1      26.543  43.691  54.637  1.00  0.00    -0.271 OA
HETATM    4  H   UNL     1      28.474  45.978  53.607  1.00  0.00     0.169 HD
ENDROOT
BRANCH   2   5
HETATM    5  C   UNL     1      26.062  45.159  52.768  1.00  0.00     0.275 C 
HETATM    6  C   UNL     1      25.227  46.353  53.263  1.00  0.00     0.050 C 
BRANCH   5   7
HETATM    7  N   UNL     1      25.039  44.156  52.079  1.00  0.00    -0.058 N 
HETATM    8  H   UNL     1      24.687  43.623  52.885  1.00  0.00     0.281 HD
HETATM    9  C   UNL     1      23.814  44.838  51.470  1.00  0.00     0.246 C 
HETATM   10  C   UNL     1      23.960  45.170  49.970  1.00  0.00     0.062 C 
HETATM   11  C   UNL     1      24.295  43.904  49.192  1.00  0.00     0.020 C 
HETATM   12  C   UNL     1      25.004  46.242  49.732  1.00  0.00     0.020 A 
HETATM   13  C   UNL     1      25.651  43.418  49.686  1.00  0.00     0.031 C 
HETATM   14  C   UNL     1      26.708  44.460  49.319  1.00  0.00     0.138 C 
HETATM   15  C   UNL     1      25.567  43.055  51.173  1.00  0.00     0.242 C 
HETATM   16  N   UNL     1      26.333  45.859  49.534  1.00  0.00    -0.317 N 
HETATM   17  C   UNL     1      27.358  46.797  49.333  1.00  0.00     0.247 A 
HETATM   18  O   UNL     1      28.536  46.504  49.155  1.00  0.00    -0.268 OA
HETATM   19  C   UNL     1      26.958  48.225  49.361  1.00  0.00     0.074 A 
HETATM   20  C   UNL     1      25.677  48.560  49.543  1.00  0.00     0.007 A 
HETATM   21  C   UNL     1      24.674  47.546  49.731  1.00  0.00     0.026 A 
ENDBRANCH   5   7
ENDBRANCH   2   5
BRANCH   1  22
HETATM   22  C   UNL     1      29.312  44.506  54.703  1.00  0.00     0.080 A 
HETATM   23  C   UNL     1      29.996  43.384  54.251  1.00  0.00     0.137 A 
HETATM   24  N   UNL     1      30.961  43.092  55.182  1.00  0.00    -0.349 N 
HETATM   25  H   UNL     1      31.618  42.325  55.104  1.00  0.00     0.166 HD
HETATM   26  C   UNL     1      30.897  43.962  56.242  1.00  0.00     0.045 A 
HETATM   27  C   UNL     1      29.857  44.864  55.980  1.00  0.00     0.023 A 
HETATM   28  C   UNL     1      31.675  43.998  57.408  1.00  0.00     0.033 A 
HETATM   29  C   UNL     1      29.567  45.823  56.975  1.00  0.00     0.058 A 
HETATM   30  C   UNL     1      30.339  45.867  58.137  1.00  0.00     0.117 A 
HETATM   31  C   UNL     1      31.378  44.977  58.355  1.00  0.00     0.044 A 
HETATM   32  F   UNL     1      30.062  46.789  59.069  1.00  0.00    -0.206 F 
BRANCH  23  33
HETATM   33  C   UNL     1      29.792  42.650  53.026  1.00  0.00     0.312 C 
HETATM   34  O   UNL     1      29.936  43.136  51.909  1.00  0.00    -0.258 OA
BRANCH  33  35
HETATM   35  O   UNL     1      29.435  41.368  53.302  1.00  0.00    -0.317 OA
BRANCH  35  36
HETATM   36  C   UNL     1      28.154  40.953  52.806  1.00  0.00     0.175 C 
HETATM   37  C   UNL     1      28.281  40.438  51.384  1.00  0.00     0.034 C 
ENDBRANCH  35  36
ENDBRANCH  33  35
ENDBRANCH  23  33
ENDBRANCH   1  22
TORSDOF 6
ENDMDL
MODEL 6
REMARK VINA RESULT:      -8.5      7.519     10.603
REMARK  6 active torsions:
REMARK  status: ('A' for Active; 'I' for Inactive)
REMARK    1  A    between atoms: C_2  and  O_3 
REMARK    2  A    between atoms: O_3  and  C_4 
REMARK    3  A    between atoms: C_4  and  C_5 
REMARK    4  A    between atoms: C_10  and  N_11 
REMARK       I    between atoms: N_11  and  C_12 
REMARK    5  A    between atoms: C_12  and  C_13 
REMARK    6  A    between atoms: C_13  and  N_14 
ROOT
HETATM    1  N   UNL     1      21.824  47.760  49.183  1.00  0.00    -0.322 N 
HETATM    2  C   UNL     1      21.143  47.494  48.015  1.00  0.00     0.253 C 
HETATM    3  O   UNL     1      21.690  47.112  46.984  1.00  0.00    -0.271 OA
HETATM    4  H   UNL     1      21.342  47.694  50.077  1.00  0.00     0.169 HD
ENDROOT
BRANCH   2   5
HETATM    5  C   UNL     1      19.594  47.721  48.042  1.00  0.00     0.275 C 
HETATM    6  C   UNL     1      19.033  47.819  49.471  1.00  0.00     0.050 C 
BRANCH   5   7
HETATM    7  N   UNL     1      18.710  46.635  47.289  1.00  0.00    -0.058 N 
HETATM    8  H   UNL     1      19.169  45.757  47.564  1.00  0.00     0.281 HD
HETATM    9  C   UNL     1      17.277  46.531  47.812  1.00  0.00     0.246 C 
HETATM   10  C   UNL     1      16.259  47.392  47.035  1.00  0.00     0.062 C 
HETATM   11  C   UNL     1      16.304  47.033  45.555  1.00  0.00     0.020 C 
HETATM   12  C   UNL     1      16.506  48.872  47.238  1.00  0.00     0.020 A 
HETATM   13  C   UNL     1      17.693  47.396  45.047  1.00  0.00     0.031 C 
HETATM   14  C   UNL     1      17.869  48.910  45.143  1.00  0.00     0.138 C 
HETATM   15  C   UNL     1      18.752  46.558  45.772  1.00  0.00     0.242 C 
HETATM   16  N   UNL     1      17.376  49.538  46.371  1.00  0.00    -0.317 N 
HETATM   17  C   UNL     1      17.673  50.903  46.513  1.00  0.00     0.247 A 
HETATM   18  O   UNL     1      18.428  51.526  45.774  1.00  0.00    -0.268 OA
HETATM   19  C   UNL     1      17.027  51.602  47.651  1.00  0.00     0.074 A 
HETATM   20  C   UNL     1      16.192  50.940  48.459  1.00  0.00     0.007 A 
HETATM   21  C   UNL     1      15.922  49.543  48.248  1.00  0.00     0.026 A 
ENDBRANCH   5   7
ENDBRANCH   2   5
BRANCH   1  22
HETATM   22  C   UNL     1      23.209  47.846  49.328  1.00  0.00     0.080 A 
HETATM   23  C   UNL     1      23.892  48.970  48.880  1.00  0.00     0.137 A 
HETATM   24  N   UNL     1      25.222  48.777  49.158  1.00  0.00    -0.349 N 
HETATM   25  H   UNL     1      25.953  49.446  48.949  1.00  0.00     0.166 HD
HETATM   26  C   UNL     1      25.428  47.547  49.733  1.00  0.00     0.045 A 
HETATM   27  C   UNL     1      24.179  46.924  49.844  1.00  0.00     0.023 A 
HETATM   28  C   UNL     1      26.629  46.950  50.141  1.00  0.00     0.033 A 
HETATM   29  C   UNL     1      24.155  45.609  50.358  1.00  0.00     0.058 A 
HETATM   30  C   UNL     1      25.346  45.008  50.770  1.00  0.00     0.117 A 
HETATM   31  C   UNL     1      26.564  45.662  50.671  1.00  0.00     0.044 A 
HETATM   32  F   UNL     1      25.311  43.764  51.268  1.00  0.00    -0.206 F 
BRANCH  23  33
HETATM   33  C   UNL     1      23.349  50.157  48.266  1.00  0.00     0.312 C 
HETATM   34  O   UNL     1      23.649  50.538  47.139  1.00  0.00    -0.258 OA
BRANCH  33  35
HETATM   35  O   UNL     1      22.470  50.760  49.108  1.00  0.00    -0.317 OA
BRANCH  35  36
HETATM   36  C   UNL     1      21.238  51.203  48.518  1.00  0.00     0.175 C 
HETATM   37  C   UNL     1      20.162  51.328  49.580  1.00  0.00     0.034 C 
ENDBRANCH  35  36
ENDBRANCH  33  35
ENDBRANCH  23  33
ENDBRANCH   1  22
TORSDOF 6
ENDMDL
MODEL 7
REMARK VINA RESULT:      -8.5     13.455     15.494
REMARK  6 active torsions:
REMARK  status: ('A' for Active; 'I' for Inactive)
REMARK    1  A    between atoms: C_2  and  O_3 
REMARK    2  A    between atoms: O_3  and  C_4 
REMARK    3  A    between atoms: C_4  and  C_5 
REMARK    4  A    between atoms: C_10  and  N_11 
REMARK       I    between atoms: N_11  and  C_12 
REMARK    5  A    between atoms: C_12  and  C_13 
REMARK    6  A    between atoms: C_13  and  N_14 
ROOT
HETATM    1  N   UNL     1      35.003  52.008  42.306  1.00  0.00    -0.322 N 
HETATM    2  C   UNL     1      34.504  50.747  42.067  1.00  0.00     0.253 C 
HETATM    3  O   UNL     1      35.209  49.784  41.775  1.00  0.00    -0.271 OA
HETATM    4  H   UNL     1      34.484  52.654  42.898  1.00  0.00     0.169 HD
ENDROOT
BRANCH   2   5
HETATM    5  C   UNL     1      32.951  50.578  42.167  1.00  0.00     0.275 C 
HETATM    6  C   UNL     1      32.344  51.352  43.350  1.00  0.00     0.050 C 
BRANCH   5   7
HETATM    7  N   UNL     1      32.410  49.088  42.284  1.00  0.00    -0.058 N 
HETATM    8  H   UNL     1      33.047  48.684  42.982  1.00  0.00     0.281 HD
HETATM    9  C   UNL     1      31.011  48.982  42.893  1.00  0.00     0.246 C 
HETATM   10  C   UNL     1      29.872  48.944  41.853  1.00  0.00     0.062 C 
HETATM   11  C   UNL     1      30.106  47.800  40.875  1.00  0.00     0.020 C 
HETATM   12  C   UNL     1      29.740  50.263  41.119  1.00  0.00     0.020 A 
HETATM   13  C   UNL     1      31.398  48.103  40.128  1.00  0.00     0.031 C 
HETATM   14  C   UNL     1      31.196  49.368  39.294  1.00  0.00     0.138 C 
HETATM   15  C   UNL     1      32.575  48.138  41.110  1.00  0.00     0.242 C 
HETATM   16  N   UNL     1      30.482  50.464  39.951  1.00  0.00    -0.317 N 
HETATM   17  C   UNL     1      30.429  51.669  39.232  1.00  0.00     0.247 A 
HETATM   18  O   UNL     1      31.062  51.886  38.204  1.00  0.00    -0.268 OA
HETATM   19  C   UNL     1      29.556  52.731  39.789  1.00  0.00     0.074 A 
HETATM   20  C   UNL     1      28.852  52.505  40.903  1.00  0.00     0.007 A 
HETATM   21  C   UNL     1      28.943  51.241  41.584  1.00  0.00     0.026 A 
ENDBRANCH   5   7
ENDBRANCH   2   5
BRANCH   1  22
HETATM   22  C   UNL     1      36.306  52.440  42.058  1.00  0.00     0.080 A 
HETATM   23  C   UNL     1      36.671  52.876  40.790  1.00  0.00     0.137 A 
HETATM   24  N   UNL     1      37.993  53.239  40.848  1.00  0.00    -0.349 N 
HETATM   25  H   UNL     1      38.520  53.606  40.064  1.00  0.00     0.166 HD
HETATM   26  C   UNL     1      38.508  53.014  42.100  1.00  0.00     0.045 A 
HETATM   27  C   UNL     1      37.473  52.496  42.890  1.00  0.00     0.023 A 
HETATM   28  C   UNL     1      39.812  53.218  42.572  1.00  0.00     0.033 A 
HETATM   29  C   UNL     1      37.793  52.129  44.216  1.00  0.00     0.058 A 
HETATM   30  C   UNL     1      39.089  52.333  44.694  1.00  0.00     0.117 A 
HETATM   31  C   UNL     1      40.084  52.871  43.895  1.00  0.00     0.044 A 
HETATM   32  F   UNL     1      39.378  51.992  45.957  1.00  0.00    -0.206 F 
BRANCH  23  33
HETATM   33  C   UNL     1      35.844  52.979  39.612  1.00  0.00     0.312 C 
HETATM   34  O   UNL     1      35.850  52.156  38.703  1.00  0.00    -0.258 OA
BRANCH  33  35
HETATM   35  O   UNL     1      35.075  54.098  39.676  1.00  0.00    -0.317 OA
BRANCH  35  36
HETATM   36  C   UNL     1      35.605  55.262  39.025  1.00  0.00     0.175 C 
HETATM   37  C   UNL     1      34.842  56.500  39.457  1.00  0.00     0.034 C 
ENDBRANCH  35  36
ENDBRANCH  33  35
ENDBRANCH  23  33
ENDBRANCH   1  22
TORSDOF 6
ENDMDL
MODEL 8
REMARK VINA RESULT:      -8.5      7.020     11.057
REMARK  6 active torsions:
REMARK  status: ('A' for Active; 'I' for Inactive)
REMARK    1  A    between atoms: C_2  and  O_3 
REMARK    2  A    between atoms: O_3  and  C_4 
REMARK    3  A    between atoms: C_4  and  C_5 
REMARK    4  A    between atoms: C_10  and  N_11 
REMARK       I    between atoms: N_11  and  C_12 
REMARK    5  A    between atoms: C_12  and  C_13 
REMARK    6  A    between atoms: C_13  and  N_14 
ROOT
HETATM    1  N   UNL     1      22.785  47.866  48.799  1.00  0.00    -0.322 N 
HETATM    2  C   UNL     1      21.460  48.234  48.717  1.00  0.00     0.253 C 
HETATM    3  O   UNL     1      20.532  47.497  49.037  1.00  0.00    -0.271 OA
HETATM    4  H   UNL     1      23.504  48.580  48.903  1.00  0.00     0.169 HD
ENDROOT
BRANCH   2   5
HETATM    5  C   UNL     1      21.166  49.670  48.167  1.00  0.00     0.275 C 
HETATM    6  C   UNL     1      22.392  50.311  47.493  1.00  0.00     0.050 C 
BRANCH   5   7
HETATM    7  N   UNL     1      20.631  50.733  49.221  1.00  0.00    -0.058 N 
HETATM    8  H   UNL     1      21.493  50.997  49.716  1.00  0.00     0.281 HD
HETATM    9  C   UNL     1      20.107  52.024  48.590  1.00  0.00     0.246 C 
HETATM   10  C   UNL     1      18.585  52.027  48.336  1.00  0.00     0.062 C 
HETATM   11  C   UNL     1      17.845  51.742  49.636  1.00  0.00     0.020 C 
HETATM   12  C   UNL     1      18.194  51.032  47.263  1.00  0.00     0.020 A 
HETATM   13  C   UNL     1      18.232  50.336  50.075  1.00  0.00     0.031 C 
HETATM   14  C   UNL     1      17.712  49.340  49.040  1.00  0.00     0.138 C 
HETATM   15  C   UNL     1      19.737  50.272  50.360  1.00  0.00     0.242 C 
HETATM   16  N   UNL     1      17.890  49.720  47.636  1.00  0.00    -0.317 N 
HETATM   17  C   UNL     1      17.544  48.737  46.695  1.00  0.00     0.247 A 
HETATM   18  O   UNL     1      17.269  47.577  46.980  1.00  0.00    -0.268 OA
HETATM   19  C   UNL     1      17.536  49.161  45.273  1.00  0.00     0.074 A 
HETATM   20  C   UNL     1      17.822  50.426  44.949  1.00  0.00     0.007 A 
HETATM   21  C   UNL     1      18.157  51.386  45.966  1.00  0.00     0.026 A 
ENDBRANCH   5   7
ENDBRANCH   2   5
BRANCH   1  22
HETATM   22  C   UNL     1      23.270  46.580  49.041  1.00  0.00     0.080 A 
HETATM   23  C   UNL     1      24.303  46.380  49.949  1.00  0.00     0.137 A 
HETATM   24  N   UNL     1      24.560  45.032  49.983  1.00  0.00    -0.349 N 
HETATM   25  H   UNL     1      25.263  44.599  50.570  1.00  0.00     0.166 HD
HETATM   26  C   UNL     1      23.757  44.358  49.097  1.00  0.00     0.045 A 
HETATM   27  C   UNL     1      22.936  45.306  48.473  1.00  0.00     0.023 A 
HETATM   28  C   UNL     1      23.718  42.988  48.801  1.00  0.00     0.033 A 
HETATM   29  C   UNL     1      22.060  44.842  47.467  1.00  0.00     0.058 A 
HETATM   30  C   UNL     1      22.012  43.479  47.169  1.00  0.00     0.117 A 
HETATM   31  C   UNL     1      22.820  42.562  47.823  1.00  0.00     0.044 A 
HETATM   32  F   UNL     1      21.169  43.048  46.222  1.00  0.00    -0.206 F 
BRANCH  23  33
HETATM   33  C   UNL     1      24.985  47.364  50.753  1.00  0.00     0.312 C 
HETATM   34  O   UNL     1      25.114  47.277  51.970  1.00  0.00    -0.258 OA
BRANCH  33  35
HETATM   35  O   UNL     1      25.455  48.368  49.967  1.00  0.00    -0.317 OA
BRANCH  35  36
HETATM   36  C   UNL     1      26.826  48.254  49.556  1.00  0.00     0.175 C 
HETATM   37  C   UNL     1      27.264  49.514  48.833  1.00  0.00     0.034 C 
ENDBRANCH  35  36
ENDBRANCH  33  35
ENDBRANCH  23  33
ENDBRANCH   1  22
TORSDOF 6
ENDMDL
MODEL 9
REMARK VINA RESULT:      -8.4     11.781     15.515
REMARK  6 active torsions:
REMARK  status: ('A' for Active; 'I' for Inactive)
REMARK    1  A    between atoms: C_2  and  O_3 
REMARK    2  A    between atoms: O_3  and  C_4 
REMARK    3  A    between atoms: C_4  and  C_5 
REMARK    4  A    between atoms: C_10  and  N_11 
REMARK       I    between atoms: N_11  and  C_12 
REMARK    5  A    between atoms: C_12  and  C_13 
REMARK    6  A    between atoms: C_13  and  N_14 
ROOT
HETATM    1  N   UNL     1      26.520  49.921  39.860  1.00  0.00    -0.322 N 
HETATM    2  C   UNL     1      27.311  50.825  39.186  1.00  0.00     0.253 C 
HETATM    3  O   UNL     1      27.148  51.119  38.005  1.00  0.00    -0.271 OA
HETATM    4  H   UNL     1      26.425  49.986  40.872  1.00  0.00     0.169 HD
ENDROOT
BRANCH   2   5
HETATM    5  C   UNL     1      28.477  51.478  40.001  1.00  0.00     0.275 C 
HETATM    6  C   UNL     1      27.974  52.356  41.160  1.00  0.00     0.050 C 
BRANCH   5   7
HETATM    7  N   UNL     1      29.499  52.373  39.175  1.00  0.00    -0.058 N 
HETATM    8  H   UNL     1      28.888  53.115  38.811  1.00  0.00     0.281 HD
HETATM    9  C   UNL     1      30.540  53.085  40.040  1.00  0.00     0.246 C 
HETATM   10  C   UNL     1      31.870  52.316  40.186  1.00  0.00     0.062 C 
HETATM   11  C   UNL     1      32.448  52.020  38.808  1.00  0.00     0.020 C 
HETATM   12  C   UNL     1      31.695  51.039  40.982  1.00  0.00     0.020 A 
HETATM   13  C   UNL     1      31.464  51.102  38.095  1.00  0.00     0.031 C 
HETATM   14  C   UNL     1      31.403  49.773  38.846  1.00  0.00     0.138 C 
HETATM   15  C   UNL     1      30.122  51.818  37.905  1.00  0.00     0.242 C 
HETATM   16  N   UNL     1      31.360  49.862  40.307  1.00  0.00    -0.317 N 
HETATM   17  C   UNL     1      31.158  48.647  40.982  1.00  0.00     0.247 A 
HETATM   18  O   UNL     1      30.865  47.592  40.429  1.00  0.00    -0.268 OA
HETATM   19  C   UNL     1      31.298  48.682  42.458  1.00  0.00     0.074 A 
HETATM   20  C   UNL     1      31.628  49.822  43.074  1.00  0.00     0.007 A 
HETATM   21  C   UNL     1      31.834  51.029  42.320  1.00  0.00     0.026 A 
ENDBRANCH   5   7
ENDBRANCH   2   5
BRANCH   1  22
HETATM   22  C   UNL     1      25.581  49.061  39.290  1.00  0.00     0.080 A 
HETATM   23  C   UNL     1      25.960  47.797  38.855  1.00  0.00     0.137 A 
HETATM   24  N   UNL     1      24.839  47.186  38.351  1.00  0.00    -0.349 N 
HETATM   25  H   UNL     1      24.822  46.247  37.973  1.00  0.00     0.166 HD
HETATM   26  C   UNL     1      23.756  48.027  38.407  1.00  0.00     0.045 A 
HETATM   27  C   UNL     1      24.189  49.229  38.983  1.00  0.00     0.023 A 
HETATM   28  C   UNL     1      22.440  47.808  37.975  1.00  0.00     0.033 A 
HETATM   29  C   UNL     1      23.246  50.274  39.086  1.00  0.00     0.058 A 
HETATM   30  C   UNL     1      21.933  50.063  38.661  1.00  0.00     0.117 A 
HETATM   31  C   UNL     1      21.529  48.854  38.119  1.00  0.00     0.044 A 
HETATM   32  F   UNL     1      21.043  51.059  38.774  1.00  0.00    -0.206 F 
BRANCH  23  33
HETATM   33  C   UNL     1      27.264  47.184  38.928  1.00  0.00     0.312 C 
HETATM   34  O   UNL     1      28.256  47.627  38.359  1.00  0.00    -0.258 OA
BRANCH  33  35
HETATM   35  O   UNL     1      27.217  46.076  39.714  1.00  0.00    -0.317 OA
BRANCH  35  36
HETATM   36  C   UNL     1      27.194  46.311  41.130  1.00  0.00     0.175 C 
HETATM   37  C   UNL     1      26.183  45.399  41.798  1.00  0.00     0.034 C 
ENDBRANCH  35  36
ENDBRANCH  33  35
ENDBRANCH  23  33
ENDBRANCH   1  22
TORSDOF 6
ENDMDL
MODEL 10
REMARK VINA RESULT:      -8.3      6.607      9.974
REMARK  6 active torsions:
REMARK  status: ('A' for Active; 'I' for Inactive)
REMARK    1  A    between atoms: C_2  and  O_3 
REMARK    2  A    between atoms: O_3  and  C_4 
REMARK    3  A    between atoms: C_4  and  C_5 
REMARK    4  A    between atoms: C_10  and  N_11 
REMARK       I    between atoms: N_11  and  C_12 
REMARK    5  A    between atoms: C_12  and  C_13 
REMARK    6  A    between atoms: C_13  and  N_14 
ROOT
HETATM    1  N   UNL     1      22.460  45.870  49.171  1.00  0.00    -0.322 N 
HETATM    2  C   UNL     1      21.948  46.573  48.103  1.00  0.00     0.253 C 
HETATM    3  O   UNL     1      22.341  46.431  46.948  1.00  0.00    -0.271 OA
HETATM    4  H   UNL     1      21.887  45.718  49.999  1.00  0.00     0.169 HD
ENDROOT
BRANCH   2   5
HETATM    5  C   UNL     1      20.818  47.608  48.424  1.00  0.00     0.275 C 
HETATM    6  C   UNL     1      21.352  48.876  49.111  1.00  0.00     0.050 C 
BRANCH   5   7
HETATM    7  N   UNL     1      19.618  47.084  49.326  1.00  0.00    -0.058 N 
HETATM    8  H   UNL     1      20.115  46.665  50.121  1.00  0.00     0.281 HD
HETATM    9  C   UNL     1      18.756  48.199  49.920  1.00  0.00     0.246 C 
HETATM   10  C   UNL     1      17.512  48.550  49.078  1.00  0.00     0.062 C 
HETATM   11  C   UNL     1      16.671  47.300  48.856  1.00  0.00     0.020 C 
HETATM   12  C   UNL     1      17.891  49.187  47.757  1.00  0.00     0.020 A 
HETATM   13  C   UNL     1      17.515  46.328  48.042  1.00  0.00     0.031 C 
HETATM   14  C   UNL     1      17.774  46.940  46.666  1.00  0.00     0.138 C 
HETATM   15  C   UNL     1      18.763  45.927  48.835  1.00  0.00     0.242 C 
HETATM   16  N   UNL     1      18.116  48.364  46.650  1.00  0.00    -0.317 N 
HETATM   17  C   UNL     1      18.495  48.881  45.401  1.00  0.00     0.247 A 
HETATM   18  O   UNL     1      18.701  48.196  44.405  1.00  0.00    -0.268 OA
HETATM   19  C   UNL     1      18.663  50.353  45.320  1.00  0.00     0.074 A 
HETATM   20  C   UNL     1      18.431  51.114  46.395  1.00  0.00     0.007 A 
HETATM   21  C   UNL     1      18.033  50.520  47.642  1.00  0.00     0.026 A 
ENDBRANCH   5   7
ENDBRANCH   2   5
BRANCH   1  22
HETATM   22  C   UNL     1      23.606  45.073  49.161  1.00  0.00     0.080 A 
HETATM   23  C   UNL     1      24.850  45.633  49.422  1.00  0.00     0.137 A 
HETATM   24  N   UNL     1      25.775  44.622  49.349  1.00  0.00    -0.349 N 
HETATM   25  H   UNL     1      26.769  44.743  49.507  1.00  0.00     0.166 HD
HETATM   26  C   UNL     1      25.177  43.434  49.009  1.00  0.00     0.045 A 
HETATM   27  C   UNL     1      23.805  43.683  48.869  1.00  0.00     0.023 A 
HETATM   28  C   UNL     1      25.758  42.175  48.804  1.00  0.00     0.033 A 
HETATM   29  C   UNL     1      22.990  42.605  48.458  1.00  0.00     0.058 A 
HETATM   30  C   UNL     1      23.561  41.348  48.255  1.00  0.00     0.117 A 
HETATM   31  C   UNL     1      24.919  41.128  48.427  1.00  0.00     0.044 A 
HETATM   32  F   UNL     1      22.777  40.329  47.877  1.00  0.00    -0.206 F 
BRANCH  23  33
HETATM   33  C   UNL     1      25.160  47.004  49.747  1.00  0.00     0.312 C 
HETATM   34  O   UNL     1      24.435  47.722  50.427  1.00  0.00    -0.258 OA
BRANCH  33  35
HETATM   35  O   UNL     1      26.353  47.357  49.200  1.00  0.00    -0.317 OA
BRANCH  35  36
HETATM   36  C   UNL     1      26.870  48.636  49.595  1.00  0.00     0.175 C 
HETATM   37  C   UNL     1      26.661  49.653  48.489  1.00  0.00     0.034 C 
ENDBRANCH  35  36
ENDBRANCH  33  35
ENDBRANCH  23  33
ENDBRANCH   1  22
TORSDOF 6
ENDMDL
