MODEL 1
REMARK VINA RESULT:     -10.2      0.000      0.000
REMARK  8 active torsions:
REMARK  status: ('A' for Active; 'I' for Inactive)
REMARK    1  A    between atoms: O_2  and  C_3 
REMARK    2  A    between atoms: C_6  and  N_7 
REMARK       I    between atoms: N_7  and  C_8 
REMARK    3  A    between atoms: C_8  and  C_9 
REMARK    4  A    between atoms: C_9  and  N_10 
REMARK    5  A    between atoms: N_13  and  C_14 
REMARK    6  A    between atoms: C_14  and  C_15 
REMARK    7  A    between atoms: C_30  and  C_31 
REMARK       I    between atoms: C_31  and  N_32 
REMARK    8  A    between atoms: N_32  and  C_33 
ROOT
HETATM    1  N   UNL     1      23.278  44.994  49.844  1.00  0.00    -0.290 N 
HETATM    2  C   UNL     1      22.801  45.710  48.755  1.00  0.00     0.332 C 
HETATM    3  O   UNL     1      22.213  45.130  47.837  1.00  0.00    -0.246 OA
HETATM    4  N   UNL     1      23.037  47.074  48.747  1.00  0.00    -0.261 N 
HETATM    5  C   UNL     1      23.893  47.729  49.622  1.00  0.00     0.264 C 
HETATM    6  O   UNL     1      24.156  48.928  49.559  1.00  0.00    -0.267 OA
HETATM    7  C   UNL     1      24.528  46.909  50.667  1.00  0.00     0.059 A 
HETATM    8  C   UNL     1      24.184  45.563  50.780  1.00  0.00     0.056 A 
HETATM    9  C   UNL     1      25.459  47.493  51.539  1.00  0.00     0.020 A 
HETATM   10  C   UNL     1      26.076  46.719  52.520  1.00  0.00     0.018 A 
HETATM   11  C   UNL     1      25.756  45.365  52.644  1.00  0.00     0.034 A 
HETATM   12  C   UNL     1      24.783  44.807  51.800  1.00  0.00     0.048 A 
ENDROOT
BRANCH   1  13
HETATM   13  C   UNL     1      22.907  43.578  49.925  1.00  0.00     0.237 C 
BRANCH  13  14
HETATM   14  C   UNL     1      23.949  42.692  49.241  1.00  0.00     0.240 C 
HETATM   15  N   UNL     1      24.845  42.126  50.134  1.00  0.00    -0.326 N 
HETATM   16  H   UNL     1      24.676  42.314  51.122  1.00  0.00     0.169 HD
HETATM   17  O   UNL     1      23.910  42.517  48.024  1.00  0.00    -0.271 OA
BRANCH  15  18
HETATM   18  C   UNL     1      25.956  41.314  49.831  1.00  0.00     0.034 A 
HETATM   19  C   UNL     1      26.952  41.865  49.016  1.00  0.00     0.032 A 
HETATM   20  C   UNL     1      28.072  41.112  48.637  1.00  0.00     0.039 A 
HETATM   21  C   UNL     1      28.208  39.795  49.070  1.00  0.00     0.068 A 
HETATM   22  C   UNL     1      27.228  39.251  49.899  1.00  0.00     0.039 A 
HETATM   23  C   UNL     1      26.107  40.002  50.276  1.00  0.00     0.032 A 
BRANCH  21  24
HETATM   24  O   UNL     1      29.237  38.949  48.767  1.00  0.00    -0.356 OA
HETATM   25  C   UNL     1      29.659  38.059  49.793  1.00  0.00     0.210 C 
ENDBRANCH  21  24
ENDBRANCH  15  18
ENDBRANCH  13  14
ENDBRANCH   1  13
BRANCH   4  26
HETATM   26  C   UNL     1      22.360  47.879  47.739  1.00  0.00     0.175 C 
BRANCH  26  27
HETATM   27  C   UNL     1      21.193  48.641  48.339  1.00  0.00    -0.037 A 
HETATM   28  C   UNL     1      21.125  50.040  48.222  1.00  0.00     0.048 A 
HETATM   29  C   UNL     1      20.066  50.693  48.818  1.00  0.00     0.105 A 
HETATM   30  C   UNL     1      19.098  50.014  49.520  1.00  0.00     0.105 A 
HETATM   31  O   UNL     1      19.848  52.035  48.801  1.00  0.00    -0.323 OA
HETATM   32  O   UNL     1      18.150  50.844  50.033  1.00  0.00    -0.323 OA
HETATM   33  C   UNL     1      19.132  48.646  49.663  1.00  0.00     0.040 A 
HETATM   34  C   UNL     1      18.630  52.123  49.569  1.00  0.00     0.352 A 
HETATM   35  C   UNL     1      20.191  47.954  49.065  1.00  0.00     0.012 A 
ENDBRANCH  26  27
ENDBRANCH   4  26
BRANCH  11  36
HETATM   36  C   UNL     1      26.460  44.552  53.678  1.00  0.00     0.252 C 
HETATM   37  N   UNL     1      26.857  43.284  53.301  1.00  0.00    -0.352 N 
HETATM   38  H   UNL     1      26.832  43.028  52.322  1.00  0.00     0.163 HD
HETATM   39  O   UNL     1      26.675  45.034  54.785  1.00  0.00    -0.268 OA
BRANCH  37  40
HETATM   40  C   UNL     1      27.644  42.422  54.178  1.00  0.00     0.084 C 
HETATM   41  C   UNL     1      28.052  41.138  53.446  1.00  0.00     0.025 C 
HETATM   42  C   UNL     1      29.123  41.373  52.381  1.00  0.00     0.002 C 
HETATM   43  C   UNL     1      30.333  42.104  52.950  1.00  0.00     0.000 C 
HETATM   44  C   UNL     1      29.935  43.406  53.640  1.00  0.00     0.002 C 
HETATM   45  C   UNL     1      28.869  43.175  54.713  1.00  0.00     0.025 C 
ENDBRANCH  37  40
ENDBRANCH  11  36
TORSDOF 8
ENDMDL
MODEL 2
REMARK VINA RESULT:      -9.9      2.180      2.589
REMARK  8 active torsions:
REMARK  status: ('A' for Active; 'I' for Inactive)
REMARK    1  A    between atoms: O_2  and  C_3 
REMARK    2  A    between atoms: C_6  and  N_7 
REMARK       I    between atoms: N_7  and  C_8 
REMARK    3  A    between atoms: C_8  and  C_9 
REMARK    4  A    between atoms: C_9  and  N_10 
REMARK    5  A    between atoms: N_13  and  C_14 
REMARK    6  A    between atoms: C_14  and  C_15 
REMARK    7  A    between atoms: C_30  and  C_31 
REMARK       I    between atoms: C_31  and  N_32 
REMARK    8  A    between atoms: N_32  and  C_33 
ROOT
HETATM    1  N   UNL     1      22.736  46.459  48.729  1.00  0.00    -0.290 N 
HETATM    2  C   UNL     1      22.452  47.595  47.984  1.00  0.00     0.332 C 
HETATM    3  O   UNL     1      21.583  47.565  47.107  1.00  0.00    -0.246 OA
HETATM    4  N   UNL     1      23.197  48.729  48.259  1.00  0.00    -0.261 N 
HETATM    5  C   UNL     1      24.336  48.749  49.053  1.00  0.00     0.264 C 
HETATM    6  O   UNL     1      25.035  49.744  49.229  1.00  0.00    -0.267 OA
HETATM    7  C   UNL     1      24.718  47.480  49.696  1.00  0.00     0.059 A 
HETATM    8  C   UNL     1      23.893  46.366  49.548  1.00  0.00     0.056 A 
HETATM    9  C   UNL     1      25.897  47.413  50.453  1.00  0.00     0.020 A 
HETATM   10  C   UNL     1      26.274  46.210  51.050  1.00  0.00     0.018 A 
HETATM   11  C   UNL     1      25.469  45.078  50.907  1.00  0.00     0.034 A 
HETATM   12  C   UNL     1      24.265  45.174  50.191  1.00  0.00     0.048 A 
ENDROOT
BRANCH   1  13
HETATM   13  C   UNL     1      21.856  45.302  48.540  1.00  0.00     0.237 C 
BRANCH  13  14
HETATM   14  C   UNL     1      22.531  44.224  47.691  1.00  0.00     0.240 C 
HETATM   15  N   UNL     1      22.551  42.985  48.310  1.00  0.00    -0.326 N 
HETATM   16  H   UNL     1      22.076  42.922  49.210  1.00  0.00     0.169 HD
HETATM   17  O   UNL     1      22.956  44.495  46.570  1.00  0.00    -0.271 OA
BRANCH  15  18
HETATM   18  C   UNL     1      23.146  41.800  47.833  1.00  0.00     0.034 A 
HETATM   19  C   UNL     1      24.533  41.674  47.975  1.00  0.00     0.032 A 
HETATM   20  C   UNL     1      25.209  40.544  47.493  1.00  0.00     0.039 A 
HETATM   21  C   UNL     1      24.501  39.524  46.861  1.00  0.00     0.068 A 
HETATM   22  C   UNL     1      23.117  39.637  46.737  1.00  0.00     0.039 A 
HETATM   23  C   UNL     1      22.442  40.767  47.215  1.00  0.00     0.032 A 
BRANCH  21  24
HETATM   24  O   UNL     1      25.032  38.380  46.336  1.00  0.00    -0.356 OA
HETATM   25  C   UNL     1      25.842  37.594  47.201  1.00  0.00     0.210 C 
ENDBRANCH  21  24
ENDBRANCH  15  18
ENDBRANCH  13  14
ENDBRANCH   1  13
BRANCH   4  26
HETATM   26  C   UNL     1      22.775  49.987  47.657  1.00  0.00     0.175 C 
BRANCH  26  27
HETATM   27  C   UNL     1      21.533  50.531  48.339  1.00  0.00    -0.037 A 
HETATM   28  C   UNL     1      20.420  50.923  47.575  1.00  0.00     0.048 A 
HETATM   29  C   UNL     1      19.329  51.448  48.237  1.00  0.00     0.105 A 
HETATM   30  C   UNL     1      19.314  51.602  49.602  1.00  0.00     0.105 A 
HETATM   31  O   UNL     1      18.176  51.874  47.655  1.00  0.00    -0.323 OA
HETATM   32  O   UNL     1      18.150  52.143  50.052  1.00  0.00    -0.323 OA
HETATM   33  C   UNL     1      20.385  51.236  50.385  1.00  0.00     0.040 A 
HETATM   34  C   UNL     1      17.432  52.308  48.811  1.00  0.00     0.352 A 
HETATM   35  C   UNL     1      21.505  50.695  49.744  1.00  0.00     0.012 A 
ENDBRANCH  26  27
ENDBRANCH   4  26
BRANCH  11  36
HETATM   36  C   UNL     1      25.916  43.796  51.524  1.00  0.00     0.252 C 
HETATM   37  N   UNL     1      26.997  43.867  52.380  1.00  0.00    -0.352 N 
HETATM   38  H   UNL     1      27.319  44.773  52.699  1.00  0.00     0.163 HD
HETATM   39  O   UNL     1      25.309  42.760  51.276  1.00  0.00    -0.268 OA
BRANCH  37  40
HETATM   40  C   UNL     1      27.474  42.709  53.131  1.00  0.00     0.084 C 
HETATM   41  C   UNL     1      28.756  42.151  52.503  1.00  0.00     0.025 C 
HETATM   42  C   UNL     1      29.972  43.050  52.727  1.00  0.00     0.002 C 
HETATM   43  C   UNL     1      30.165  43.378  54.203  1.00  0.00     0.000 C 
HETATM   44  C   UNL     1      28.905  43.976  54.821  1.00  0.00     0.002 C 
HETATM   45  C   UNL     1      27.687  43.076  54.606  1.00  0.00     0.025 C 
ENDBRANCH  37  40
ENDBRANCH  11  36
TORSDOF 8
ENDMDL
MODEL 3
REMARK VINA RESULT:      -9.8      2.558      9.692
REMARK  8 active torsions:
REMARK  status: ('A' for Active; 'I' for Inactive)
REMARK    1  A    between atoms: O_2  and  C_3 
REMARK    2  A    between atoms: C_6  and  N_7 
REMARK       I    between atoms: N_7  and  C_8 
REMARK    3  A    between atoms: C_8  and  C_9 
REMARK    4  A    between atoms: C_9  and  N_10 
REMARK    5  A    between atoms: N_13  and  C_14 
REMARK    6  A    between atoms: C_14  and  C_15 
REMARK    7  A    between atoms: C_30  and  C_31 
REMARK       I    between atoms: C_31  and  N_32 
REMARK    8  A    between atoms: N_32  and  C_33 
ROOT
HETATM    1  N   UNL     1      23.928  44.716  50.113  1.00  0.00    -0.290 N 
HETATM    2  C   UNL     1      24.832  43.693  50.361  1.00  0.00     0.332 C 
HETATM    3  O   UNL     1      24.448  42.627  50.854  1.00  0.00    -0.246 OA
HETATM    4  N   UNL     1      26.159  43.938  50.053  1.00  0.00    -0.261 N 
HETATM    5  C   UNL     1      26.675  45.186  49.731  1.00  0.00     0.264 C 
HETATM    6  O   UNL     1      27.867  45.408  49.535  1.00  0.00    -0.267 OA
HETATM    7  C   UNL     1      25.713  46.298  49.646  1.00  0.00     0.059 A 
HETATM    8  C   UNL     1      24.353  46.037  49.806  1.00  0.00     0.056 A 
HETATM    9  C   UNL     1      26.175  47.598  49.395  1.00  0.00     0.020 A 
HETATM   10  C   UNL     1      25.272  48.659  49.329  1.00  0.00     0.018 A 
HETATM   11  C   UNL     1      23.906  48.423  49.498  1.00  0.00     0.034 A 
HETATM   12  C   UNL     1      23.453  47.109  49.695  1.00  0.00     0.048 A 
ENDROOT
BRANCH   1  13
HETATM   13  C   UNL     1      22.507  44.410  50.303  1.00  0.00     0.237 C 
BRANCH  13  14
HETATM   14  C   UNL     1      21.758  44.402  48.969  1.00  0.00     0.240 C 
HETATM   15  N   UNL     1      20.831  45.426  48.865  1.00  0.00    -0.326 N 
HETATM   16  H   UNL     1      20.796  46.083  49.644  1.00  0.00     0.169 HD
HETATM   17  O   UNL     1      22.032  43.563  48.112  1.00  0.00    -0.271 OA
BRANCH  15  18
HETATM   18  C   UNL     1      19.939  45.665  47.802  1.00  0.00     0.034 A 
HETATM   19  C   UNL     1      20.426  46.381  46.701  1.00  0.00     0.032 A 
HETATM   20  C   UNL     1      19.592  46.695  45.618  1.00  0.00     0.039 A 
HETATM   21  C   UNL     1      18.258  46.295  45.625  1.00  0.00     0.068 A 
HETATM   22  C   UNL     1      17.776  45.564  46.710  1.00  0.00     0.039 A 
HETATM   23  C   UNL     1      18.607  45.253  47.793  1.00  0.00     0.032 A 
BRANCH  21  24
HETATM   24  O   UNL     1      17.337  46.543  44.646  1.00  0.00    -0.356 OA
HETATM   25  C   UNL     1      16.405  47.588  44.894  1.00  0.00     0.210 C 
ENDBRANCH  21  24
ENDBRANCH  15  18
ENDBRANCH  13  14
ENDBRANCH   1  13
BRANCH   4  26
HETATM   26  C   UNL     1      27.089  42.815  50.092  1.00  0.00     0.175 C 
BRANCH  26  27
HETATM   27  C   UNL     1      27.816  42.753  51.422  1.00  0.00    -0.037 A 
HETATM   28  C   UNL     1      27.929  43.902  52.223  1.00  0.00     0.048 A 
HETATM   29  C   UNL     1      28.634  43.806  53.405  1.00  0.00     0.105 A 
HETATM   30  C   UNL     1      29.225  42.631  53.803  1.00  0.00     0.105 A 
HETATM   31  O   UNL     1      28.837  44.815  54.293  1.00  0.00    -0.323 OA
HETATM   32  O   UNL     1      29.876  42.753  54.991  1.00  0.00    -0.323 OA
HETATM   33  C   UNL     1      29.144  41.485  53.045  1.00  0.00     0.040 A 
HETATM   34  C   UNL     1      29.621  44.140  55.298  1.00  0.00     0.352 A 
HETATM   35  C   UNL     1      28.431  41.549  51.842  1.00  0.00     0.012 A 
ENDBRANCH  26  27
ENDBRANCH   4  26
BRANCH  11  36
HETATM   36  C   UNL     1      22.967  49.581  49.461  1.00  0.00     0.252 C 
HETATM   37  N   UNL     1      21.619  49.284  49.496  1.00  0.00    -0.352 N 
HETATM   38  H   UNL     1      21.325  48.344  49.730  1.00  0.00     0.163 HD
HETATM   39  O   UNL     1      23.414  50.722  49.426  1.00  0.00    -0.268 OA
BRANCH  37  40
HETATM   40  C   UNL     1      20.595  50.322  49.569  1.00  0.00     0.084 C 
HETATM   41  C   UNL     1      20.350  50.934  48.185  1.00  0.00     0.025 C 
HETATM   42  C   UNL     1      19.612  49.990  47.236  1.00  0.00     0.002 C 
HETATM   43  C   UNL     1      18.322  49.464  47.854  1.00  0.00     0.000 C 
HETATM   44  C   UNL     1      18.569  48.813  49.211  1.00  0.00     0.002 C 
HETATM   45  C   UNL     1      19.300  49.757  50.168  1.00  0.00     0.025 C 
ENDBRANCH  37  40
ENDBRANCH  11  36
TORSDOF 8
ENDMDL
MODEL 4
REMARK VINA RESULT:      -9.4      3.213      4.916
REMARK  8 active torsions:
REMARK  status: ('A' for Active; 'I' for Inactive)
REMARK    1  A    between atoms: O_2  and  C_3 
REMARK    2  A    between atoms: C_6  and  N_7 
REMARK       I    between atoms: N_7  and  C_8 
REMARK    3  A    between atoms: C_8  and  C_9 
REMARK    4  A    between atoms: C_9  and  N_10 
REMARK    5  A    between atoms: N_13  and  C_14 
REMARK    6  A    between atoms: C_14  and  C_15 
REMARK    7  A    between atoms: C_30  and  C_31 
REMARK       I    between atoms: C_31  and  N_32 
REMARK    8  A    between atoms: N_32  and  C_33 
ROOT
HETATM    1  N   UNL     1      22.667  46.488  48.678  1.00  0.00    -0.290 N 
HETATM    2  C   UNL     1      22.379  47.638  47.956  1.00  0.00     0.332 C 
HETATM    3  O   UNL     1      21.494  47.628  47.094  1.00  0.00    -0.246 OA
HETATM    4  N   UNL     1      23.137  48.762  48.235  1.00  0.00    -0.261 N 
HETATM    5  C   UNL     1      24.289  48.761  49.010  1.00  0.00     0.264 C 
HETATM    6  O   UNL     1      24.998  49.748  49.189  1.00  0.00    -0.267 OA
HETATM    7  C   UNL     1      24.673  47.480  49.626  1.00  0.00     0.059 A 
HETATM    8  C   UNL     1      23.837  46.375  49.476  1.00  0.00     0.056 A 
HETATM    9  C   UNL     1      25.864  47.392  50.361  1.00  0.00     0.020 A 
HETATM   10  C   UNL     1      26.242  46.178  50.934  1.00  0.00     0.018 A 
HETATM   11  C   UNL     1      25.426  45.054  50.787  1.00  0.00     0.034 A 
HETATM   12  C   UNL     1      24.211  45.170  50.093  1.00  0.00     0.048 A 
ENDROOT
BRANCH   1  13
HETATM   13  C   UNL     1      21.774  45.341  48.487  1.00  0.00     0.237 C 
BRANCH  13  14
HETATM   14  C   UNL     1      22.014  44.672  47.133  1.00  0.00     0.240 C 
HETATM   15  N   UNL     1      20.869  44.600  46.356  1.00  0.00    -0.326 N 
HETATM   16  H   UNL     1      20.035  45.041  46.742  1.00  0.00     0.169 HD
HETATM   17  O   UNL     1      23.142  44.295  46.821  1.00  0.00    -0.271 OA
BRANCH  15  18
HETATM   18  C   UNL     1      20.730  43.995  45.092  1.00  0.00     0.034 A 
HETATM   19  C   UNL     1      20.176  42.710  45.051  1.00  0.00     0.032 A 
HETATM   20  C   UNL     1      20.038  42.021  43.837  1.00  0.00     0.039 A 
HETATM   21  C   UNL     1      20.454  42.614  42.647  1.00  0.00     0.068 A 
HETATM   22  C   UNL     1      20.986  43.902  42.682  1.00  0.00     0.039 A 
HETATM   23  C   UNL     1      21.128  44.589  43.895  1.00  0.00     0.032 A 
BRANCH  21  24
HETATM   24  O   UNL     1      20.389  42.054  41.402  1.00  0.00    -0.356 OA
HETATM   25  C   UNL     1      20.498  42.940  40.295  1.00  0.00     0.210 C 
ENDBRANCH  21  24
ENDBRANCH  15  18
ENDBRANCH  13  14
ENDBRANCH   1  13
BRANCH   4  26
HETATM   26  C   UNL     1      22.714  50.033  47.660  1.00  0.00     0.175 C 
BRANCH  26  27
HETATM   27  C   UNL     1      21.466  50.556  48.347  1.00  0.00    -0.037 A 
HETATM   28  C   UNL     1      20.338  50.916  47.589  1.00  0.00     0.048 A 
HETATM   29  C   UNL     1      19.242  51.425  48.255  1.00  0.00     0.105 A 
HETATM   30  C   UNL     1      19.235  51.592  49.619  1.00  0.00     0.105 A 
HETATM   31  O   UNL     1      18.075  51.818  47.679  1.00  0.00    -0.323 OA
HETATM   32  O   UNL     1      18.064  52.113  50.073  1.00  0.00    -0.323 OA
HETATM   33  C   UNL     1      20.322  51.259  50.396  1.00  0.00     0.040 A 
HETATM   34  C   UNL     1      17.331  52.249  48.837  1.00  0.00     0.352 A 
HETATM   35  C   UNL     1      21.447  50.736  49.751  1.00  0.00     0.012 A 
ENDBRANCH  26  27
ENDBRANCH   4  26
BRANCH  11  36
HETATM   36  C   UNL     1      25.873  43.759  51.377  1.00  0.00     0.252 C 
HETATM   37  N   UNL     1      26.941  43.816  52.251  1.00  0.00    -0.352 N 
HETATM   38  H   UNL     1      27.250  44.715  52.599  1.00  0.00     0.163 HD
HETATM   39  O   UNL     1      25.279  42.726  51.091  1.00  0.00    -0.268 OA
BRANCH  37  40
HETATM   40  C   UNL     1      27.415  42.641  52.978  1.00  0.00     0.084 C 
HETATM   41  C   UNL     1      28.742  42.146  52.392  1.00  0.00     0.025 C 
HETATM   42  C   UNL     1      29.918  43.068  52.711  1.00  0.00     0.002 C 
HETATM   43  C   UNL     1      30.030  43.340  54.207  1.00  0.00     0.000 C 
HETATM   44  C   UNL     1      28.725  43.878  54.785  1.00  0.00     0.002 C 
HETATM   45  C   UNL     1      27.546  42.953  54.475  1.00  0.00     0.025 C 
ENDBRANCH  37  40
ENDBRANCH  11  36
TORSDOF 8
ENDMDL
MODEL 5
REMARK VINA RESULT:      -9.3      2.697      8.724
REMARK  8 active torsions:
REMARK  status: ('A' for Active; 'I' for Inactive)
REMARK    1  A    between atoms: O_2  and  C_3 
REMARK    2  A    between atoms: C_6  and  N_7 
REMARK       I    between atoms: N_7  and  C_8 
REMARK    3  A    between atoms: C_8  and  C_9 
REMARK    4  A    between atoms: C_9  and  N_10 
REMARK    5  A    between atoms: N_13  and  C_14 
REMARK    6  A    between atoms: C_14  and  C_15 
REMARK    7  A    between atoms: C_30  and  C_31 
REMARK       I    between atoms: C_31  and  N_32 
REMARK    8  A    between atoms: N_32  and  C_33 
ROOT
HETATM    1  N   UNL     1      23.296  44.777  49.633  1.00  0.00    -0.290 N 
HETATM    2  C   UNL     1      23.929  43.865  50.466  1.00  0.00     0.332 C 
HETATM    3  O   UNL     1      23.355  42.824  50.801  1.00  0.00    -0.246 OA
HETATM    4  N   UNL     1      25.200  44.192  50.906  1.00  0.00    -0.261 N 
HETATM    5  C   UNL     1      25.785  45.442  50.761  1.00  0.00     0.264 C 
HETATM    6  O   UNL     1      26.882  45.747  51.223  1.00  0.00    -0.267 OA
HETATM    7  C   UNL     1      25.013  46.454  50.020  1.00  0.00     0.059 A 
HETATM    8  C   UNL     1      23.797  46.093  49.441  1.00  0.00     0.056 A 
HETATM    9  C   UNL     1      25.513  47.758  49.897  1.00  0.00     0.020 A 
HETATM   10  C   UNL     1      24.780  48.725  49.211  1.00  0.00     0.018 A 
HETATM   11  C   UNL     1      23.553  48.390  48.633  1.00  0.00     0.034 A 
HETATM   12  C   UNL     1      23.090  47.068  48.718  1.00  0.00     0.048 A 
ENDROOT
BRANCH   1  13
HETATM   13  C   UNL     1      22.013  44.370  49.052  1.00  0.00     0.237 C 
BRANCH  13  14
HETATM   14  C   UNL     1      22.218  43.525  47.794  1.00  0.00     0.240 C 
HETATM   15  N   UNL     1      22.437  42.186  48.073  1.00  0.00    -0.326 N 
HETATM   16  H   UNL     1      22.382  41.915  49.054  1.00  0.00     0.169 HD
HETATM   17  O   UNL     1      22.144  44.045  46.682  1.00  0.00    -0.271 OA
BRANCH  15  18
HETATM   18  C   UNL     1      22.720  41.157  47.154  1.00  0.00     0.034 A 
HETATM   19  C   UNL     1      24.045  40.710  47.076  1.00  0.00     0.032 A 
HETATM   20  C   UNL     1      24.418  39.715  46.161  1.00  0.00     0.039 A 
HETATM   21  C   UNL     1      23.466  39.155  45.311  1.00  0.00     0.068 A 
HETATM   22  C   UNL     1      22.143  39.582  45.403  1.00  0.00     0.039 A 
HETATM   23  C   UNL     1      21.770  40.578  46.314  1.00  0.00     0.032 A 
BRANCH  21  24
HETATM   24  O   UNL     1      23.695  38.191  44.370  1.00  0.00    -0.356 OA
HETATM   25  C   UNL     1      23.904  38.637  43.036  1.00  0.00     0.210 C 
ENDBRANCH  21  24
ENDBRANCH  15  18
ENDBRANCH  13  14
ENDBRANCH   1  13
BRANCH   4  26
HETATM   26  C   UNL     1      25.972  43.164  51.593  1.00  0.00     0.175 C 
BRANCH  26  27
HETATM   27  C   UNL     1      26.413  42.077  50.630  1.00  0.00    -0.037 A 
HETATM   28  C   UNL     1      27.040  42.416  49.419  1.00  0.00     0.048 A 
HETATM   29  C   UNL     1      27.388  41.396  48.557  1.00  0.00     0.105 A 
HETATM   30  C   UNL     1      27.129  40.079  48.852  1.00  0.00     0.105 A 
HETATM   31  O   UNL     1      28.000  41.547  47.352  1.00  0.00    -0.323 OA
HETATM   32  O   UNL     1      27.544  39.235  47.869  1.00  0.00    -0.323 OA
HETATM   33  C   UNL     1      26.511  39.705  50.024  1.00  0.00     0.040 A 
HETATM   34  C   UNL     1      28.100  40.173  46.924  1.00  0.00     0.352 A 
HETATM   35  C   UNL     1      26.151  40.717  50.920  1.00  0.00     0.012 A 
ENDBRANCH  26  27
ENDBRANCH   4  26
BRANCH  11  36
HETATM   36  C   UNL     1      22.772  49.453  47.938  1.00  0.00     0.252 C 
HETATM   37  N   UNL     1      21.409  49.464  48.162  1.00  0.00    -0.352 N 
HETATM   38  H   UNL     1      21.025  48.897  48.908  1.00  0.00     0.163 HD
HETATM   39  O   UNL     1      23.354  50.270  47.233  1.00  0.00    -0.268 OA
BRANCH  37  40
HETATM   40  C   UNL     1      20.540  50.510  47.628  1.00  0.00     0.084 C 
HETATM   41  C   UNL     1      19.147  49.948  47.324  1.00  0.00     0.025 C 
HETATM   42  C   UNL     1      18.339  49.639  48.584  1.00  0.00     0.002 C 
HETATM   43  C   UNL     1      18.269  50.842  49.517  1.00  0.00     0.000 C 
HETATM   44  C   UNL     1      19.656  51.376  49.859  1.00  0.00     0.002 C 
HETATM   45  C   UNL     1      20.466  51.694  48.601  1.00  0.00     0.025 C 
ENDBRANCH  37  40
ENDBRANCH  11  36
TORSDOF 8
ENDMDL
MODEL 6
REMARK VINA RESULT:      -9.0     16.156     19.373
REMARK  8 active torsions:
REMARK  status: ('A' for Active; 'I' for Inactive)
REMARK    1  A    between atoms: O_2  and  C_3 
REMARK    2  A    between atoms: C_6  and  N_7 
REMARK       I    between atoms: N_7  and  C_8 
REMARK    3  A    between atoms: C_8  and  C_9 
REMARK    4  A    between atoms: C_9  and  N_10 
REMARK    5  A    between atoms: N_13  and  C_14 
REMARK    6  A    between atoms: C_14  and  C_15 
REMARK    7  A    between atoms: C_30  and  C_31 
REMARK       I    between atoms: C_31  and  N_32 
REMARK    8  A    between atoms: N_32  and  C_33 
ROOT
HETATM    1  N   UNL     1      36.699  53.134  39.773  1.00  0.00    -0.290 N 
HETATM    2  C   UNL     1      37.933  53.064  40.405  1.00  0.00     0.332 C 
HETATM    3  O   UNL     1      38.927  53.588  39.892  1.00  0.00    -0.246 OA
HETATM    4  N   UNL     1      37.988  52.370  41.602  1.00  0.00    -0.261 N 
HETATM    5  C   UNL     1      36.969  51.566  42.092  1.00  0.00     0.264 C 
HETATM    6  O   UNL     1      37.056  50.893  43.117  1.00  0.00    -0.267 OA
HETATM    7  C   UNL     1      35.725  51.519  41.306  1.00  0.00     0.059 A 
HETATM    8  C   UNL     1      35.601  52.329  40.178  1.00  0.00     0.056 A 
HETATM    9  C   UNL     1      34.681  50.671  41.706  1.00  0.00     0.020 A 
HETATM   10  C   UNL     1      33.507  50.609  40.957  1.00  0.00     0.018 A 
HETATM   11  C   UNL     1      33.365  51.403  39.816  1.00  0.00     0.034 A 
HETATM   12  C   UNL     1      34.396  52.285  39.458  1.00  0.00     0.048 A 
ENDROOT
BRANCH   1  13
HETATM   13  C   UNL     1      36.608  53.985  38.583  1.00  0.00     0.237 C 
BRANCH  13  14
HETATM   14  C   UNL     1      36.213  55.415  38.954  1.00  0.00     0.240 C 
HETATM   15  N   UNL     1      36.137  56.255  37.855  1.00  0.00    -0.326 N 
HETATM   16  H   UNL     1      36.293  55.822  36.945  1.00  0.00     0.169 HD
HETATM   17  O   UNL     1      35.968  55.706  40.123  1.00  0.00    -0.271 OA
BRANCH  15  18
HETATM   18  C   UNL     1      35.862  57.637  37.852  1.00  0.00     0.034 A 
HETATM   19  C   UNL     1      36.808  58.481  37.258  1.00  0.00     0.032 A 
HETATM   20  C   UNL     1      36.629  59.871  37.247  1.00  0.00     0.039 A 
HETATM   21  C   UNL     1      35.497  60.434  37.832  1.00  0.00     0.068 A 
HETATM   22  C   UNL     1      34.542  59.595  38.404  1.00  0.00     0.039 A 
HETATM   23  C   UNL     1      34.722  58.206  38.419  1.00  0.00     0.032 A 
BRANCH  21  24
HETATM   24  O   UNL     1      35.204  61.767  37.902  1.00  0.00    -0.356 OA
HETATM   25  C   UNL     1      34.030  62.129  38.618  1.00  0.00     0.210 C 
ENDBRANCH  21  24
ENDBRANCH  15  18
ENDBRANCH  13  14
ENDBRANCH   1  13
BRANCH   4  26
HETATM   26  C   UNL     1      39.208  52.469  42.394  1.00  0.00     0.175 C 
BRANCH  26  27
HETATM   27  C   UNL     1      38.952  53.190  43.705  1.00  0.00    -0.037 A 
HETATM   28  C   UNL     1      39.170  52.533  44.928  1.00  0.00     0.048 A 
HETATM   29  C   UNL     1      38.885  53.215  46.093  1.00  0.00     0.105 A 
HETATM   30  C   UNL     1      38.392  54.498  46.080  1.00  0.00     0.105 A 
HETATM   31  O   UNL     1      39.039  52.732  47.355  1.00  0.00    -0.323 OA
HETATM   32  O   UNL     1      38.173  54.984  47.332  1.00  0.00    -0.323 OA
HETATM   33  C   UNL     1      38.159  55.174  44.904  1.00  0.00     0.040 A 
HETATM   34  C   UNL     1      38.590  53.860  48.135  1.00  0.00     0.352 A 
HETATM   35  C   UNL     1      38.442  54.511  43.705  1.00  0.00     0.012 A 
ENDBRANCH  26  27
ENDBRANCH   4  26
BRANCH  11  36
HETATM   36  C   UNL     1      32.114  51.288  39.012  1.00  0.00     0.252 C 
HETATM   37  N   UNL     1      30.956  51.001  39.709  1.00  0.00    -0.352 N 
HETATM   38  H   UNL     1      30.957  51.066  40.720  1.00  0.00     0.163 HD
HETATM   39  O   UNL     1      32.153  51.470  37.801  1.00  0.00    -0.268 OA
BRANCH  37  40
HETATM   40  C   UNL     1      29.648  50.962  39.063  1.00  0.00     0.084 C 
HETATM   41  C   UNL     1      28.743  49.928  39.742  1.00  0.00     0.025 C 
HETATM   42  C   UNL     1      28.270  50.366  41.127  1.00  0.00     0.002 C 
HETATM   43  C   UNL     1      27.619  51.744  41.091  1.00  0.00     0.000 C 
HETATM   44  C   UNL     1      28.536  52.786  40.457  1.00  0.00     0.002 C 
HETATM   45  C   UNL     1      29.005  52.356  39.066  1.00  0.00     0.025 C 
ENDBRANCH  37  40
ENDBRANCH  11  36
TORSDOF 8
ENDMDL
MODEL 7
REMARK VINA RESULT:      -8.9      1.987      9.376
REMARK  8 active torsions:
REMARK  status: ('A' for Active; 'I' for Inactive)
REMARK    1  A    between atoms: O_2  and  C_3 
REMARK    2  A    between atoms: C_6  and  N_7 
REMARK       I    between atoms: N_7  and  C_8 
REMARK    3  A    between atoms: C_8  and  C_9 
REMARK    4  A    between atoms: C_9  and  N_10 
REMARK    5  A    between atoms: N_13  and  C_14 
REMARK    6  A    between atoms: C_14  and  C_15 
REMARK    7  A    between atoms: C_30  and  C_31 
REMARK       I    between atoms: C_31  and  N_32 
REMARK    8  A    between atoms: N_32  and  C_33 
ROOT
HETATM    1  N   UNL     1      24.123  43.554  50.352  1.00  0.00    -0.290 N 
HETATM    2  C   UNL     1      24.549  42.302  49.929  1.00  0.00     0.332 C 
HETATM    3  O   UNL     1      25.194  41.573  50.689  1.00  0.00    -0.246 OA
HETATM    4  N   UNL     1      24.237  41.938  48.630  1.00  0.00    -0.261 N 
HETATM    5  C   UNL     1      23.735  42.805  47.669  1.00  0.00     0.264 C 
HETATM    6  O   UNL     1      23.534  42.492  46.498  1.00  0.00    -0.267 OA
HETATM    7  C   UNL     1      23.454  44.184  48.102  1.00  0.00     0.059 A 
HETATM    8  C   UNL     1      23.622  44.524  49.444  1.00  0.00     0.056 A 
HETATM    9  C   UNL     1      23.013  45.131  47.166  1.00  0.00     0.020 A 
HETATM   10  C   UNL     1      22.761  46.442  47.565  1.00  0.00     0.018 A 
HETATM   11  C   UNL     1      22.934  46.809  48.902  1.00  0.00     0.034 A 
HETATM   12  C   UNL     1      23.325  45.839  49.838  1.00  0.00     0.048 A 
ENDROOT
BRANCH   1  13
HETATM   13  C   UNL     1      24.326  43.883  51.766  1.00  0.00     0.237 C 
BRANCH  13  14
HETATM   14  C   UNL     1      25.809  44.093  52.079  1.00  0.00     0.240 C 
HETATM   15  N   UNL     1      26.211  43.449  53.237  1.00  0.00    -0.326 N 
HETATM   16  H   UNL     1      25.507  42.878  53.704  1.00  0.00     0.169 HD
HETATM   17  O   UNL     1      26.516  44.747  51.315  1.00  0.00    -0.271 OA
BRANCH  15  18
HETATM   18  C   UNL     1      27.485  43.487  53.838  1.00  0.00     0.034 A 
HETATM   19  C   UNL     1      27.760  44.559  54.695  1.00  0.00     0.032 A 
HETATM   20  C   UNL     1      29.017  44.693  55.304  1.00  0.00     0.039 A 
HETATM   21  C   UNL     1      30.014  43.751  55.060  1.00  0.00     0.068 A 
HETATM   22  C   UNL     1      29.736  42.671  54.224  1.00  0.00     0.039 A 
HETATM   23  C   UNL     1      28.483  42.539  53.613  1.00  0.00     0.032 A 
BRANCH  21  24
HETATM   24  O   UNL     1      31.280  43.767  55.575  1.00  0.00    -0.356 OA
HETATM   25  C   UNL     1      31.397  43.950  56.980  1.00  0.00     0.210 C 
ENDBRANCH  21  24
ENDBRANCH  15  18
ENDBRANCH  13  14
ENDBRANCH   1  13
BRANCH   4  26
HETATM   26  C   UNL     1      24.472  40.556  48.232  1.00  0.00     0.175 C 
BRANCH  26  27
HETATM   27  C   UNL     1      25.946  40.205  48.317  1.00  0.00    -0.037 A 
HETATM   28  C   UNL     1      26.367  39.089  49.059  1.00  0.00     0.048 A 
HETATM   29  C   UNL     1      27.721  38.833  49.140  1.00  0.00     0.105 A 
HETATM   30  C   UNL     1      28.649  39.640  48.527  1.00  0.00     0.105 A 
HETATM   31  O   UNL     1      28.296  37.799  49.811  1.00  0.00    -0.323 OA
HETATM   32  O   UNL     1      29.925  39.217  48.736  1.00  0.00    -0.323 OA
HETATM   33  C   UNL     1      28.279  40.746  47.797  1.00  0.00     0.040 A 
HETATM   34  C   UNL     1      29.692  38.046  49.547  1.00  0.00     0.352 A 
HETATM   35  C   UNL     1      26.913  41.030  47.692  1.00  0.00     0.012 A 
ENDBRANCH  26  27
ENDBRANCH   4  26
BRANCH  11  36
HETATM   36  C   UNL     1      22.694  48.228  49.294  1.00  0.00     0.252 C 
HETATM   37  N   UNL     1      21.385  48.667  49.253  1.00  0.00    -0.352 N 
HETATM   38  H   UNL     1      20.639  47.991  49.150  1.00  0.00     0.163 HD
HETATM   39  O   UNL     1      23.637  48.926  49.651  1.00  0.00    -0.268 OA
BRANCH  37  40
HETATM   40  C   UNL     1      20.996  49.999  49.708  1.00  0.00     0.084 C 
HETATM   41  C   UNL     1      21.091  51.009  48.559  1.00  0.00     0.025 C 
HETATM   42  C   UNL     1      19.994  50.826  47.511  1.00  0.00     0.002 C 
HETATM   43  C   UNL     1      18.607  50.821  48.143  1.00  0.00     0.000 C 
HETATM   44  C   UNL     1      18.495  49.785  49.256  1.00  0.00     0.002 C 
HETATM   45  C   UNL     1      19.586  49.969  50.313  1.00  0.00     0.025 C 
ENDBRANCH  37  40
ENDBRANCH  11  36
TORSDOF 8
ENDMDL
MODEL 8
REMARK VINA RESULT:      -8.8     18.878     22.285
REMARK  8 active torsions:
REMARK  status: ('A' for Active; 'I' for Inactive)
REMARK    1  A    between atoms: O_2  and  C_3 
REMARK    2  A    between atoms: C_6  and  N_7 
REMARK       I    between atoms: N_7  and  C_8 
REMARK    3  A    between atoms: C_8  and  C_9 
REMARK    4  A    between atoms: C_9  and  N_10 
REMARK    5  A    between atoms: N_13  and  C_14 
REMARK    6  A    between atoms: C_14  and  C_15 
REMARK    7  A    between atoms: C_30  and  C_31 
REMARK       I    between atoms: C_31  and  N_32 
REMARK    8  A    between atoms: N_32  and  C_33 
ROOT
HETATM    1  N   UNL     1      38.581  44.157  66.605  1.00  0.00    -0.290 N 
HETATM    2  C   UNL     1      37.705  45.180  66.943  1.00  0.00     0.332 C 
HETATM    3  O   UNL     1      37.658  45.603  68.102  1.00  0.00    -0.246 OA
HETATM    4  N   UNL     1      36.893  45.670  65.935  1.00  0.00    -0.261 N 
HETATM    5  C   UNL     1      36.735  45.074  64.691  1.00  0.00     0.264 C 
HETATM    6  O   UNL     1      35.953  45.472  63.831  1.00  0.00    -0.267 OA
HETATM    7  C   UNL     1      37.552  43.879  64.421  1.00  0.00     0.059 A 
HETATM    8  C   UNL     1      38.484  43.462  65.370  1.00  0.00     0.056 A 
HETATM    9  C   UNL     1      37.390  43.185  63.212  1.00  0.00     0.020 A 
HETATM   10  C   UNL     1      38.149  42.044  62.956  1.00  0.00     0.018 A 
HETATM   11  C   UNL     1      39.080  41.600  63.898  1.00  0.00     0.034 A 
HETATM   12  C   UNL     1      39.269  42.334  65.079  1.00  0.00     0.048 A 
ENDROOT
BRANCH   1  13
HETATM   13  C   UNL     1      39.539  43.736  67.631  1.00  0.00     0.237 C 
BRANCH  13  14
HETATM   14  C   UNL     1      40.970  44.108  67.240  1.00  0.00     0.240 C 
HETATM   15  N   UNL     1      41.078  45.402  66.759  1.00  0.00    -0.326 N 
HETATM   16  H   UNL     1      40.226  45.962  66.774  1.00  0.00     0.169 HD
HETATM   17  O   UNL     1      41.884  43.301  67.399  1.00  0.00    -0.271 OA
BRANCH  15  18
HETATM   18  C   UNL     1      42.234  46.035  66.260  1.00  0.00     0.034 A 
HETATM   19  C   UNL     1      42.630  45.714  64.955  1.00  0.00     0.032 A 
HETATM   20  C   UNL     1      43.789  46.271  64.396  1.00  0.00     0.039 A 
HETATM   21  C   UNL     1      44.567  47.156  65.138  1.00  0.00     0.068 A 
HETATM   22  C   UNL     1      44.163  47.494  66.429  1.00  0.00     0.039 A 
HETATM   23  C   UNL     1      43.008  46.936  66.990  1.00  0.00     0.032 A 
BRANCH  21  24
HETATM   24  O   UNL     1      45.721  47.759  64.722  1.00  0.00    -0.356 OA
HETATM   25  C   UNL     1      46.932  47.296  65.307  1.00  0.00     0.210 C 
ENDBRANCH  21  24
ENDBRANCH  15  18
ENDBRANCH  13  14
ENDBRANCH   1  13
BRANCH   4  26
HETATM   26  C   UNL     1      36.130  46.884  66.201  1.00  0.00     0.175 C 
BRANCH  26  27
HETATM   27  C   UNL     1      37.019  48.112  66.144  1.00  0.00    -0.037 A 
HETATM   28  C   UNL     1      36.915  49.108  67.131  1.00  0.00     0.048 A 
HETATM   29  C   UNL     1      37.716  50.225  67.015  1.00  0.00     0.105 A 
HETATM   30  C   UNL     1      38.591  50.385  65.967  1.00  0.00     0.105 A 
HETATM   31  O   UNL     1      37.743  51.276  67.878  1.00  0.00    -0.323 OA
HETATM   32  O   UNL     1      39.278  51.557  66.038  1.00  0.00    -0.323 OA
HETATM   33  C   UNL     1      38.718  49.437  64.977  1.00  0.00     0.040 A 
HETATM   34  C   UNL     1      38.738  52.114  67.255  1.00  0.00     0.352 A 
HETATM   35  C   UNL     1      37.923  48.290  65.069  1.00  0.00     0.012 A 
ENDBRANCH  26  27
ENDBRANCH   4  26
BRANCH  11  36
HETATM   36  C   UNL     1      39.850  40.355  63.615  1.00  0.00     0.252 C 
HETATM   37  N   UNL     1      40.788  39.981  64.557  1.00  0.00    -0.352 N 
HETATM   38  H   UNL     1      40.790  40.435  65.462  1.00  0.00     0.163 HD
HETATM   39  O   UNL     1      39.612  39.713  62.597  1.00  0.00    -0.268 OA
BRANCH  37  40
HETATM   40  C   UNL     1      41.538  38.732  64.457  1.00  0.00     0.084 C 
HETATM   41  C   UNL     1      42.963  38.916  64.990  1.00  0.00     0.025 C 
HETATM   42  C   UNL     1      43.018  39.062  66.510  1.00  0.00     0.002 C 
HETATM   43  C   UNL     1      42.299  37.916  67.212  1.00  0.00     0.000 C 
HETATM   44  C   UNL     1      40.864  37.760  66.717  1.00  0.00     0.002 C 
HETATM   45  C   UNL     1      40.804  37.605  65.196  1.00  0.00     0.025 C 
ENDBRANCH  37  40
ENDBRANCH  11  36
TORSDOF 8
ENDMDL
MODEL 9
REMARK VINA RESULT:      -8.7     16.404     19.359
REMARK  8 active torsions:
REMARK  status: ('A' for Active; 'I' for Inactive)
REMARK    1  A    between atoms: O_2  and  C_3 
REMARK    2  A    between atoms: C_6  and  N_7 
REMARK       I    between atoms: N_7  and  C_8 
REMARK    3  A    between atoms: C_8  and  C_9 
REMARK    4  A    between atoms: C_9  and  N_10 
REMARK    5  A    between atoms: N_13  and  C_14 
REMARK    6  A    between atoms: C_14  and  C_15 
REMARK    7  A    between atoms: C_30  and  C_31 
REMARK       I    between atoms: C_31  and  N_32 
REMARK    8  A    between atoms: N_32  and  C_33 
ROOT
HETATM    1  N   UNL     1      37.503  52.765  40.858  1.00  0.00    -0.290 N 
HETATM    2  C   UNL     1      38.587  52.708  41.723  1.00  0.00     0.332 C 
HETATM    3  O   UNL     1      39.735  52.868  41.296  1.00  0.00    -0.246 OA
HETATM    4  N   UNL     1      38.316  52.446  43.055  1.00  0.00    -0.261 N 
HETATM    5  C   UNL     1      37.085  52.022  43.538  1.00  0.00     0.264 C 
HETATM    6  O   UNL     1      36.874  51.717  44.710  1.00  0.00    -0.267 OA
HETATM    7  C   UNL     1      35.988  51.921  42.561  1.00  0.00     0.059 A 
HETATM    8  C   UNL     1      36.209  52.326  41.246  1.00  0.00     0.056 A 
HETATM    9  C   UNL     1      34.739  51.431  42.968  1.00  0.00     0.020 A 
HETATM   10  C   UNL     1      33.700  51.317  42.044  1.00  0.00     0.018 A 
HETATM   11  C   UNL     1      33.901  51.706  40.718  1.00  0.00     0.034 A 
HETATM   12  C   UNL     1      35.140  52.244  40.337  1.00  0.00     0.048 A 
ENDROOT
BRANCH   1  13
HETATM   13  C   UNL     1      37.773  53.183  39.479  1.00  0.00     0.237 C 
BRANCH  13  14
HETATM   14  C   UNL     1      37.706  54.704  39.338  1.00  0.00     0.240 C 
HETATM   15  N   UNL     1      36.486  55.148  38.855  1.00  0.00    -0.326 N 
HETATM   16  H   UNL     1      35.773  54.434  38.708  1.00  0.00     0.169 HD
HETATM   17  O   UNL     1      38.664  55.399  39.673  1.00  0.00    -0.271 OA
BRANCH  15  18
HETATM   18  C   UNL     1      36.117  56.473  38.552  1.00  0.00     0.034 A 
HETATM   19  C   UNL     1      34.955  56.971  39.154  1.00  0.00     0.032 A 
HETATM   20  C   UNL     1      34.497  58.267  38.876  1.00  0.00     0.039 A 
HETATM   21  C   UNL     1      35.200  59.082  37.991  1.00  0.00     0.068 A 
HETATM   22  C   UNL     1      36.369  58.596  37.408  1.00  0.00     0.039 A 
HETATM   23  C   UNL     1      36.825  57.301  37.682  1.00  0.00     0.032 A 
BRANCH  21  24
HETATM   24  O   UNL     1      34.860  60.354  37.624  1.00  0.00    -0.356 OA
HETATM   25  C   UNL     1      35.902  61.322  37.631  1.00  0.00     0.210 C 
ENDBRANCH  21  24
ENDBRANCH  15  18
ENDBRANCH  13  14
ENDBRANCH   1  13
BRANCH   4  26
HETATM   26  C   UNL     1      39.400  52.601  44.017  1.00  0.00     0.175 C 
BRANCH  26  27
HETATM   27  C   UNL     1      39.355  53.967  44.677  1.00  0.00    -0.037 A 
HETATM   28  C   UNL     1      39.393  55.133  43.893  1.00  0.00     0.048 A 
HETATM   29  C   UNL     1      39.390  56.352  44.540  1.00  0.00     0.105 A 
HETATM   30  C   UNL     1      39.361  56.446  45.911  1.00  0.00     0.105 A 
HETATM   31  O   UNL     1      39.421  57.571  43.938  1.00  0.00    -0.323 OA
HETATM   32  O   UNL     1      39.372  57.735  46.344  1.00  0.00    -0.323 OA
HETATM   33  C   UNL     1      39.331  55.328  46.713  1.00  0.00     0.040 A 
HETATM   34  C   UNL     1      39.405  58.442  45.087  1.00  0.00     0.352 A 
HETATM   35  C   UNL     1      39.327  54.076  46.088  1.00  0.00     0.012 A 
ENDBRANCH  26  27
ENDBRANCH   4  26
BRANCH  11  36
HETATM   36  C   UNL     1      32.785  51.537  39.743  1.00  0.00     0.252 C 
HETATM   37  N   UNL     1      31.539  51.265  40.273  1.00  0.00    -0.352 N 
HETATM   38  H   UNL     1      31.388  51.374  41.268  1.00  0.00     0.163 HD
HETATM   39  O   UNL     1      33.003  51.666  38.544  1.00  0.00    -0.268 OA
BRANCH  37  40
HETATM   40  C   UNL     1      30.341  51.178  39.441  1.00  0.00     0.084 C 
HETATM   41  C   UNL     1      29.302  50.256  40.088  1.00  0.00     0.025 C 
HETATM   42  C   UNL     1      28.645  50.870  41.324  1.00  0.00     0.002 C 
HETATM   43  C   UNL     1      28.066  52.248  41.027  1.00  0.00     0.000 C 
HETATM   44  C   UNL     1      29.110  53.184  40.425  1.00  0.00     0.002 C 
HETATM   45  C   UNL     1      29.765  52.577  39.183  1.00  0.00     0.025 C 
ENDBRANCH  37  40
ENDBRANCH  11  36
TORSDOF 8
ENDMDL
MODEL 10
REMARK VINA RESULT:      -8.7      6.569     13.684
REMARK  8 active torsions:
REMARK  status: ('A' for Active; 'I' for Inactive)
REMARK    1  A    between atoms: O_2  and  C_3 
REMARK    2  A    between atoms: C_6  and  N_7 
REMARK       I    between atoms: N_7  and  C_8 
REMARK    3  A    between atoms: C_8  and  C_9 
REMARK    4  A    between atoms: C_9  and  N_10 
REMARK    5  A    between atoms: N_13  and  C_14 
REMARK    6  A    between atoms: C_14  and  C_15 
REMARK    7  A    between atoms: C_30  and  C_31 
REMARK       I    between atoms: C_31  and  N_32 
REMARK    8  A    between atoms: N_32  and  C_33 
ROOT
HETATM    1  N   UNL     1      17.629  49.616  47.354  1.00  0.00    -0.290 N 
HETATM    2  C   UNL     1      18.569  48.705  47.814  1.00  0.00     0.332 C 
HETATM    3  O   UNL     1      18.688  47.602  47.270  1.00  0.00    -0.246 OA
HETATM    4  N   UNL     1      19.332  49.085  48.905  1.00  0.00    -0.261 N 
HETATM    5  C   UNL     1      19.076  50.197  49.695  1.00  0.00     0.264 C 
HETATM    6  O   UNL     1      19.711  50.484  50.706  1.00  0.00    -0.267 OA
HETATM    7  C   UNL     1      17.955  51.059  49.283  1.00  0.00     0.059 A 
HETATM    8  C   UNL     1      17.273  50.771  48.101  1.00  0.00     0.056 A 
HETATM    9  C   UNL     1      17.596  52.159  50.075  1.00  0.00     0.020 A 
HETATM   10  C   UNL     1      16.525  52.969  49.700  1.00  0.00     0.018 A 
HETATM   11  C   UNL     1      15.820  52.693  48.527  1.00  0.00     0.034 A 
HETATM   12  C   UNL     1      16.223  51.620  47.716  1.00  0.00     0.048 A 
ENDROOT
BRANCH   1  13
HETATM   13  C   UNL     1      16.923  49.276  46.116  1.00  0.00     0.237 C 
BRANCH  13  14
HETATM   14  C   UNL     1      17.442  50.099  44.936  1.00  0.00     0.240 C 
HETATM   15  N   UNL     1      16.441  50.806  44.291  1.00  0.00    -0.326 N 
HETATM   16  H   UNL     1      15.508  50.744  44.699  1.00  0.00     0.169 HD
HETATM   17  O   UNL     1      18.642  50.112  44.671  1.00  0.00    -0.271 OA
BRANCH  15  18
HETATM   18  C   UNL     1      16.567  51.608  43.139  1.00  0.00     0.034 A 
HETATM   19  C   UNL     1      17.121  52.884  43.300  1.00  0.00     0.032 A 
HETATM   20  C   UNL     1      17.246  53.759  42.212  1.00  0.00     0.039 A 
HETATM   21  C   UNL     1      16.818  53.366  40.946  1.00  0.00     0.068 A 
HETATM   22  C   UNL     1      16.286  52.088  40.779  1.00  0.00     0.039 A 
HETATM   23  C   UNL     1      16.157  51.215  41.866  1.00  0.00     0.032 A 
BRANCH  21  24
HETATM   24  O   UNL     1      16.870  54.119  39.808  1.00  0.00    -0.356 OA
HETATM   25  C   UNL     1      16.819  53.418  38.572  1.00  0.00     0.210 C 
ENDBRANCH  21  24
ENDBRANCH  15  18
ENDBRANCH  13  14
ENDBRANCH   1  13
BRANCH   4  26
HETATM   26  C   UNL     1      20.470  48.250  49.268  1.00  0.00     0.175 C 
BRANCH  26  27
HETATM   27  C   UNL     1      21.772  48.854  48.776  1.00  0.00    -0.037 A 
HETATM   28  C   UNL     1      22.999  48.424  49.309  1.00  0.00     0.048 A 
HETATM   29  C   UNL     1      24.153  49.030  48.859  1.00  0.00     0.105 A 
HETATM   30  C   UNL     1      24.126  50.036  47.922  1.00  0.00     0.105 A 
HETATM   31  O   UNL     1      25.417  48.736  49.266  1.00  0.00    -0.323 OA
HETATM   32  O   UNL     1      25.369  50.501  47.622  1.00  0.00    -0.323 OA
HETATM   33  C   UNL     1      22.945  50.490  47.380  1.00  0.00     0.040 A 
HETATM   34  C   UNL     1      26.182  49.668  48.475  1.00  0.00     0.352 A 
HETATM   35  C   UNL     1      21.757  49.891  47.813  1.00  0.00     0.012 A 
ENDBRANCH  26  27
ENDBRANCH   4  26
BRANCH  11  36
HETATM   36  C   UNL     1      14.655  53.553  48.170  1.00  0.00     0.252 C 
HETATM   37  N   UNL     1      14.032  54.212  49.211  1.00  0.00    -0.352 N 
HETATM   38  H   UNL     1      14.481  54.243  50.118  1.00  0.00     0.163 HD
HETATM   39  O   UNL     1      14.318  53.660  46.996  1.00  0.00    -0.268 OA
BRANCH  37  40
HETATM   40  C   UNL     1      12.946  55.164  48.992  1.00  0.00     0.084 C 
HETATM   41  C   UNL     1      11.953  55.125  50.159  1.00  0.00     0.025 C 
HETATM   42  C   UNL     1      12.511  55.747  51.439  1.00  0.00     0.002 C 
HETATM   43  C   UNL     1      13.039  57.156  51.197  1.00  0.00     0.000 C 
HETATM   44  C   UNL     1      14.063  57.190  50.066  1.00  0.00     0.002 C 
HETATM   45  C   UNL     1      13.506  56.576  48.780  1.00  0.00     0.025 C 
ENDBRANCH  37  40
ENDBRANCH  11  36
TORSDOF 8
ENDMDL
