MODEL 1
REMARK VINA RESULT:      -8.5      0.000      0.000
REMARK  5 active torsions:
REMARK  status: ('A' for Active; 'I' for Inactive)
REMARK    1  A    between atoms: C_2  and  N_3 
REMARK    2  A    between atoms: C_2  and  C_19 
REMARK       I    between atoms: N_3  and  C_4 
REMARK    3  A    between atoms: C_4  and  C_5 
REMARK    4  A    between atoms: C_6  and  O_7 
REMARK    5  A    between atoms: O_7  and  C_8 
ROOT
HETATM    1  C   UNL     1      25.900  43.027  50.885  1.00  0.00     0.065 A 
HETATM    2  C   UNL     1      27.293  42.870  50.947  1.00  0.00     0.091 A 
HETATM    3  C   UNL     1      27.864  41.645  50.571  1.00  0.00     0.038 A 
HETATM    4  C   UNL     1      27.063  40.609  50.089  1.00  0.00     0.003 A 
HETATM    5  C   UNL     1      25.683  40.774  50.005  1.00  0.00     0.001 A 
HETATM    6  C   UNL     1      25.099  41.974  50.410  1.00  0.00     0.020 A 
ENDROOT
BRANCH   1   7
HETATM    7  C   UNL     1      25.249  44.280  51.356  1.00  0.00     0.255 C 
HETATM    8  N   UNL     1      25.782  45.451  50.855  1.00  0.00    -0.348 N 
HETATM    9  H   UNL     1      26.645  45.421  50.331  1.00  0.00     0.163 HD
HETATM   10  O   UNL     1      24.296  44.254  52.124  1.00  0.00    -0.268 OA
BRANCH   8  11
HETATM   11  C   UNL     1      25.270  46.751  51.260  1.00  0.00     0.115 C 
HETATM   12  C   UNL     1      25.790  47.130  52.649  1.00  0.00     0.037 C 
BRANCH  11  13
HETATM   13  C   UNL     1      25.603  47.778  50.203  1.00  0.00    -0.018 A 
HETATM   14  C   UNL     1      24.581  48.377  49.470  1.00  0.00     0.125 A 
HETATM   15  N   UNL     1      24.775  49.293  48.493  1.00  0.00    -0.273 NA
HETATM   16  C   UNL     1      26.053  49.629  48.222  1.00  0.00     0.116 A 
HETATM   17  C   UNL     1      27.144  49.087  48.879  1.00  0.00     0.020 A 
HETATM   18  C   UNL     1      26.915  48.147  49.880  1.00  0.00     0.012 A 
ENDBRANCH  11  13
ENDBRANCH   8  11
ENDBRANCH   1   7
BRANCH   2  19
HETATM   19  O   UNL     1      28.051  43.909  51.442  1.00  0.00    -0.310 OA
BRANCH  19  20
HETATM   20  C   UNL     1      28.701  43.751  52.643  1.00  0.00     0.076 A 
HETATM   21  C   UNL     1      29.873  43.003  52.785  1.00  0.00     0.037 A 
HETATM   22  C   UNL     1      30.492  42.920  54.035  1.00  0.00     0.003 A 
HETATM   23  C   UNL     1      29.955  43.600  55.129  1.00  0.00     0.000 A 
HETATM   24  C   UNL     1      28.803  44.372  54.975  1.00  0.00     0.003 A 
HETATM   25  C   UNL     1      28.180  44.453  53.731  1.00  0.00     0.037 A 
ENDBRANCH  19  20
ENDBRANCH   2  19
TORSDOF 5
ENDMDL
MODEL 2
REMARK VINA RESULT:      -8.3      1.228      2.329
REMARK  5 active torsions:
REMARK  status: ('A' for Active; 'I' for Inactive)
REMARK    1  A    between atoms: C_2  and  N_3 
REMARK    2  A    between atoms: C_2  and  C_19 
REMARK       I    between atoms: N_3  and  C_4 
REMARK    3  A    between atoms: C_4  and  C_5 
REMARK    4  A    between atoms: C_6  and  O_7 
REMARK    5  A    between atoms: O_7  and  C_8 
ROOT
HETATM    1  C   UNL     1      25.588  44.544  50.743  1.00  0.00     0.065 A 
HETATM    2  C   UNL     1      26.693  43.695  50.909  1.00  0.00     0.091 A 
HETATM    3  C   UNL     1      26.508  42.305  50.841  1.00  0.00     0.038 A 
HETATM    4  C   UNL     1      25.250  41.772  50.559  1.00  0.00     0.003 A 
HETATM    5  C   UNL     1      24.158  42.616  50.370  1.00  0.00     0.001 A 
HETATM    6  C   UNL     1      24.322  43.998  50.471  1.00  0.00     0.020 A 
ENDROOT
BRANCH   1   7
HETATM    7  C   UNL     1      25.727  46.018  50.893  1.00  0.00     0.255 C 
HETATM    8  N   UNL     1      26.066  46.704  49.744  1.00  0.00    -0.348 N 
HETATM    9  H   UNL     1      26.341  46.189  48.920  1.00  0.00     0.163 HD
HETATM   10  O   UNL     1      25.532  46.571  51.968  1.00  0.00    -0.268 OA
BRANCH   8  11
HETATM   11  C   UNL     1      26.273  48.143  49.753  1.00  0.00     0.115 C 
HETATM   12  C   UNL     1      27.632  48.500  49.145  1.00  0.00     0.037 C 
BRANCH  11  13
HETATM   13  C   UNL     1      25.117  48.825  49.056  1.00  0.00    -0.018 A 
HETATM   14  C   UNL     1      25.365  49.794  48.086  1.00  0.00     0.125 A 
HETATM   15  N   UNL     1      24.403  50.472  47.418  1.00  0.00    -0.273 NA
HETATM   16  C   UNL     1      23.125  50.179  47.733  1.00  0.00     0.116 A 
HETATM   17  C   UNL     1      22.766  49.244  48.688  1.00  0.00     0.020 A 
HETATM   18  C   UNL     1      23.776  48.561  49.360  1.00  0.00     0.012 A 
ENDBRANCH  11  13
ENDBRANCH   8  11
ENDBRANCH   1   7
BRANCH   2  19
HETATM   19  O   UNL     1      27.917  44.256  51.201  1.00  0.00    -0.310 OA
BRANCH  19  20
HETATM   20  C   UNL     1      28.498  43.998  52.419  1.00  0.00     0.076 A 
HETATM   21  C   UNL     1      27.972  44.455  53.630  1.00  0.00     0.037 A 
HETATM   22  C   UNL     1      28.605  44.120  54.829  1.00  0.00     0.003 A 
HETATM   23  C   UNL     1      29.743  43.312  54.818  1.00  0.00     0.000 A 
HETATM   24  C   UNL     1      30.247  42.830  53.610  1.00  0.00     0.003 A 
HETATM   25  C   UNL     1      29.620  43.168  52.411  1.00  0.00     0.037 A 
ENDBRANCH  19  20
ENDBRANCH   2  19
TORSDOF 5
ENDMDL
MODEL 3
REMARK VINA RESULT:      -8.1      2.668      8.039
REMARK  5 active torsions:
REMARK  status: ('A' for Active; 'I' for Inactive)
REMARK    1  A    between atoms: C_2  and  N_3 
REMARK    2  A    between atoms: C_2  and  C_19 
REMARK       I    between atoms: N_3  and  C_4 
REMARK    3  A    between atoms: C_4  and  C_5 
REMARK    4  A    between atoms: C_6  and  O_7 
REMARK    5  A    between atoms: O_7  and  C_8 
ROOT
HETATM    1  C   UNL     1      25.571  48.083  49.918  1.00  0.00     0.065 A 
HETATM    2  C   UNL     1      24.580  48.729  49.165  1.00  0.00     0.091 A 
HETATM    3  C   UNL     1      24.954  49.713  48.237  1.00  0.00     0.038 A 
HETATM    4  C   UNL     1      26.301  50.010  48.025  1.00  0.00     0.003 A 
HETATM    5  C   UNL     1      27.286  49.351  48.756  1.00  0.00     0.001 A 
HETATM    6  C   UNL     1      26.925  48.397  49.708  1.00  0.00     0.020 A 
ENDROOT
BRANCH   1   7
HETATM    7  C   UNL     1      25.210  47.097  50.973  1.00  0.00     0.255 C 
HETATM    8  N   UNL     1      25.080  45.790  50.546  1.00  0.00    -0.348 N 
HETATM    9  H   UNL     1      25.088  45.587  49.557  1.00  0.00     0.163 HD
HETATM   10  O   UNL     1      25.058  47.437  52.139  1.00  0.00    -0.268 OA
BRANCH   8  11
HETATM   11  C   UNL     1      24.694  44.728  51.461  1.00  0.00     0.115 C 
HETATM   12  C   UNL     1      24.072  43.555  50.698  1.00  0.00     0.037 C 
BRANCH  11  13
HETATM   13  C   UNL     1      25.884  44.324  52.299  1.00  0.00    -0.018 A 
HETATM   14  C   UNL     1      25.745  44.177  53.678  1.00  0.00     0.125 A 
HETATM   15  N   UNL     1      26.750  43.836  54.517  1.00  0.00    -0.273 NA
HETATM   16  C   UNL     1      27.962  43.635  53.961  1.00  0.00     0.116 A 
HETATM   17  C   UNL     1      28.215  43.765  52.607  1.00  0.00     0.020 A 
HETATM   18  C   UNL     1      27.162  44.117  51.767  1.00  0.00     0.012 A 
ENDBRANCH  11  13
ENDBRANCH   8  11
ENDBRANCH   1   7
BRANCH   2  19
HETATM   19  O   UNL     1      23.260  48.421  49.412  1.00  0.00    -0.310 OA
BRANCH  19  20
HETATM   20  C   UNL     1      22.278  49.267  48.955  1.00  0.00     0.076 A 
HETATM   21  C   UNL     1      21.504  49.000  47.822  1.00  0.00     0.037 A 
HETATM   22  C   UNL     1      20.501  49.895  47.444  1.00  0.00     0.003 A 
HETATM   23  C   UNL     1      20.257  51.038  48.206  1.00  0.00     0.000 A 
HETATM   24  C   UNL     1      21.010  51.285  49.355  1.00  0.00     0.003 A 
HETATM   25  C   UNL     1      22.016  50.396  49.733  1.00  0.00     0.037 A 
ENDBRANCH  19  20
ENDBRANCH   2  19
TORSDOF 5
ENDMDL
MODEL 4
REMARK VINA RESULT:      -7.7     11.258     13.348
REMARK  5 active torsions:
REMARK  status: ('A' for Active; 'I' for Inactive)
REMARK    1  A    between atoms: C_2  and  N_3 
REMARK    2  A    between atoms: C_2  and  C_19 
REMARK       I    between atoms: N_3  and  C_4 
REMARK    3  A    between atoms: C_4  and  C_5 
REMARK    4  A    between atoms: C_6  and  O_7 
REMARK    5  A    between atoms: O_7  and  C_8 
ROOT
HETATM    1  C   UNL     1      28.151  49.997  38.373  1.00  0.00     0.065 A 
HETATM    2  C   UNL     1      28.488  48.651  38.580  1.00  0.00     0.091 A 
HETATM    3  C   UNL     1      27.471  47.686  38.616  1.00  0.00     0.038 A 
HETATM    4  C   UNL     1      26.142  48.050  38.395  1.00  0.00     0.003 A 
HETATM    5  C   UNL     1      25.811  49.383  38.166  1.00  0.00     0.001 A 
HETATM    6  C   UNL     1      26.809  50.358  38.164  1.00  0.00     0.020 A 
ENDROOT
BRANCH   1   7
HETATM    7  C   UNL     1      29.191  51.062  38.415  1.00  0.00     0.255 C 
HETATM    8  N   UNL     1      29.439  51.602  39.661  1.00  0.00    -0.348 N 
HETATM    9  H   UNL     1      28.831  51.371  40.433  1.00  0.00     0.163 HD
HETATM   10  O   UNL     1      29.788  51.411  37.404  1.00  0.00    -0.268 OA
BRANCH   8  11
HETATM   11  C   UNL     1      30.402  52.676  39.844  1.00  0.00     0.115 C 
HETATM   12  C   UNL     1      29.689  54.019  40.027  1.00  0.00     0.037 C 
BRANCH  11  13
HETATM   13  C   UNL     1      31.327  52.337  40.990  1.00  0.00    -0.018 A 
HETATM   14  C   UNL     1      32.656  52.007  40.736  1.00  0.00     0.125 A 
HETATM   15  N   UNL     1      33.558  51.673  41.688  1.00  0.00    -0.273 NA
HETATM   16  C   UNL     1      33.117  51.659  42.962  1.00  0.00     0.116 A 
HETATM   17  C   UNL     1      31.816  51.957  43.327  1.00  0.00     0.020 A 
HETATM   18  C   UNL     1      30.909  52.298  42.326  1.00  0.00     0.012 A 
ENDBRANCH  11  13
ENDBRANCH   8  11
ENDBRANCH   1   7
BRANCH   2  19
HETATM   19  O   UNL     1      29.809  48.331  38.809  1.00  0.00    -0.310 OA
BRANCH  19  20
HETATM   20  C   UNL     1      30.307  48.418  40.087  1.00  0.00     0.076 A 
HETATM   21  C   UNL     1      29.496  48.553  41.216  1.00  0.00     0.037 A 
HETATM   22  C   UNL     1      30.079  48.600  42.485  1.00  0.00     0.003 A 
HETATM   23  C   UNL     1      31.463  48.488  42.624  1.00  0.00     0.000 A 
HETATM   24  C   UNL     1      32.267  48.320  41.496  1.00  0.00     0.003 A 
HETATM   25  C   UNL     1      31.688  48.278  40.228  1.00  0.00     0.037 A 
ENDBRANCH  19  20
ENDBRANCH   2  19
TORSDOF 5
ENDMDL
MODEL 5
REMARK VINA RESULT:      -7.7      4.081      6.820
REMARK  5 active torsions:
REMARK  status: ('A' for Active; 'I' for Inactive)
REMARK    1  A    between atoms: C_2  and  N_3 
REMARK    2  A    between atoms: C_2  and  C_19 
REMARK       I    between atoms: N_3  and  C_4 
REMARK    3  A    between atoms: C_4  and  C_5 
REMARK    4  A    between atoms: C_6  and  O_7 
REMARK    5  A    between atoms: O_7  and  C_8 
ROOT
HETATM    1  C   UNL     1      23.958  48.650  48.605  1.00  0.00     0.065 A 
HETATM    2  C   UNL     1      24.579  47.813  49.544  1.00  0.00     0.091 A 
HETATM    3  C   UNL     1      25.937  48.003  49.842  1.00  0.00     0.038 A 
HETATM    4  C   UNL     1      26.651  49.047  49.252  1.00  0.00     0.003 A 
HETATM    5  C   UNL     1      26.028  49.892  48.338  1.00  0.00     0.001 A 
HETATM    6  C   UNL     1      24.688  49.691  48.006  1.00  0.00     0.020 A 
ENDROOT
BRANCH   1   7
HETATM    7  C   UNL     1      22.544  48.426  48.197  1.00  0.00     0.255 C 
HETATM    8  N   UNL     1      21.592  49.017  49.005  1.00  0.00    -0.348 N 
HETATM    9  H   UNL     1      21.872  49.432  49.882  1.00  0.00     0.163 HD
HETATM   10  O   UNL     1      22.262  47.774  47.200  1.00  0.00    -0.268 OA
BRANCH   8  11
HETATM   11  C   UNL     1      20.170  48.850  48.748  1.00  0.00     0.115 C 
HETATM   12  C   UNL     1      19.600  47.699  49.581  1.00  0.00     0.037 C 
BRANCH  11  13
HETATM   13  C   UNL     1      19.456  50.161  48.984  1.00  0.00    -0.018 A 
HETATM   14  C   UNL     1      18.413  50.227  49.906  1.00  0.00     0.125 A 
HETATM   15  N   UNL     1      17.701  51.345  50.177  1.00  0.00    -0.273 NA
HETATM   16  C   UNL     1      18.036  52.458  49.492  1.00  0.00     0.116 A 
HETATM   17  C   UNL     1      19.045  52.502  48.546  1.00  0.00     0.020 A 
HETATM   18  C   UNL     1      19.762  51.336  48.288  1.00  0.00     0.012 A 
ENDBRANCH  11  13
ENDBRANCH   8  11
ENDBRANCH   1   7
BRANCH   2  19
HETATM   19  O   UNL     1      23.847  46.784  50.095  1.00  0.00    -0.310 OA
BRANCH  19  20
HETATM   20  C   UNL     1      24.433  45.550  50.245  1.00  0.00     0.076 A 
HETATM   21  C   UNL     1      24.899  44.789  49.170  1.00  0.00     0.037 A 
HETATM   22  C   UNL     1      25.515  43.559  49.410  1.00  0.00     0.003 A 
HETATM   23  C   UNL     1      25.686  43.104  50.719  1.00  0.00     0.000 A 
HETATM   24  C   UNL     1      25.249  43.882  51.791  1.00  0.00     0.003 A 
HETATM   25  C   UNL     1      24.629  45.109  51.554  1.00  0.00     0.037 A 
ENDBRANCH  19  20
ENDBRANCH   2  19
TORSDOF 5
ENDMDL
MODEL 6
REMARK VINA RESULT:      -7.7      2.276      5.697
REMARK  5 active torsions:
REMARK  status: ('A' for Active; 'I' for Inactive)
REMARK    1  A    between atoms: C_2  and  N_3 
REMARK    2  A    between atoms: C_2  and  C_19 
REMARK       I    between atoms: N_3  and  C_4 
REMARK    3  A    between atoms: C_4  and  C_5 
REMARK    4  A    between atoms: C_6  and  O_7 
REMARK    5  A    between atoms: O_7  and  C_8 
ROOT
HETATM    1  C   UNL     1      25.015  44.627  51.385  1.00  0.00     0.065 A 
HETATM    2  C   UNL     1      25.831  44.772  52.517  1.00  0.00     0.091 A 
HETATM    3  C   UNL     1      26.277  46.051  52.883  1.00  0.00     0.038 A 
HETATM    4  C   UNL     1      25.871  47.175  52.163  1.00  0.00     0.003 A 
HETATM    5  C   UNL     1      25.041  47.032  51.053  1.00  0.00     0.001 A 
HETATM    6  C   UNL     1      24.621  45.762  50.658  1.00  0.00     0.020 A 
ENDROOT
BRANCH   1   7
HETATM    7  C   UNL     1      24.593  43.279  50.914  1.00  0.00     0.255 C 
HETATM    8  N   UNL     1      25.520  42.600  50.148  1.00  0.00    -0.348 N 
HETATM    9  H   UNL     1      26.349  43.081  49.828  1.00  0.00     0.163 HD
HETATM   10  O   UNL     1      23.500  42.813  51.208  1.00  0.00    -0.268 OA
BRANCH   8  11
HETATM   11  C   UNL     1      25.228  41.290  49.588  1.00  0.00     0.115 C 
HETATM   12  C   UNL     1      24.352  41.417  48.339  1.00  0.00     0.037 C 
BRANCH  11  13
HETATM   13  C   UNL     1      26.520  40.550  49.332  1.00  0.00    -0.018 A 
HETATM   14  C   UNL     1      26.695  39.263  49.836  1.00  0.00     0.125 A 
HETATM   15  N   UNL     1      27.817  38.524  49.677  1.00  0.00    -0.273 NA
HETATM   16  C   UNL     1      28.825  39.093  48.985  1.00  0.00     0.116 A 
HETATM   17  C   UNL     1      28.763  40.369  48.451  1.00  0.00     0.020 A 
HETATM   18  C   UNL     1      27.596  41.106  48.630  1.00  0.00     0.012 A 
ENDBRANCH  11  13
ENDBRANCH   8  11
ENDBRANCH   1   7
BRANCH   2  19
HETATM   19  O   UNL     1      26.224  43.639  53.195  1.00  0.00    -0.310 OA
BRANCH  19  20
HETATM   20  C   UNL     1      27.565  43.391  53.366  1.00  0.00     0.076 A 
HETATM   21  C   UNL     1      28.385  42.888  52.351  1.00  0.00     0.037 A 
HETATM   22  C   UNL     1      29.747  42.697  52.595  1.00  0.00     0.003 A 
HETATM   23  C   UNL     1      30.290  43.029  53.836  1.00  0.00     0.000 A 
HETATM   24  C   UNL     1      29.475  43.562  54.836  1.00  0.00     0.003 A 
HETATM   25  C   UNL     1      28.114  43.749  54.597  1.00  0.00     0.037 A 
ENDBRANCH  19  20
ENDBRANCH   2  19
TORSDOF 5
ENDMDL
MODEL 7
REMARK VINA RESULT:      -7.7      2.493      7.639
REMARK  5 active torsions:
REMARK  status: ('A' for Active; 'I' for Inactive)
REMARK    1  A    between atoms: C_2  and  N_3 
REMARK    2  A    between atoms: C_2  and  C_19 
REMARK       I    between atoms: N_3  and  C_4 
REMARK    3  A    between atoms: C_4  and  C_5 
REMARK    4  A    between atoms: C_6  and  O_7 
REMARK    5  A    between atoms: O_7  and  C_8 
ROOT
HETATM    1  C   UNL     1      25.730  48.045  50.045  1.00  0.00     0.065 A 
HETATM    2  C   UNL     1      24.632  48.570  49.347  1.00  0.00     0.091 A 
HETATM    3  C   UNL     1      24.848  49.539  48.355  1.00  0.00     0.038 A 
HETATM    4  C   UNL     1      26.144  49.940  48.027  1.00  0.00     0.003 A 
HETATM    5  C   UNL     1      27.235  49.401  48.705  1.00  0.00     0.001 A 
HETATM    6  C   UNL     1      27.031  48.463  49.718  1.00  0.00     0.020 A 
ENDROOT
BRANCH   1   7
HETATM    7  C   UNL     1      25.536  47.081  51.163  1.00  0.00     0.255 C 
HETATM    8  N   UNL     1      25.582  45.746  50.811  1.00  0.00    -0.348 N 
HETATM    9  H   UNL     1      25.596  45.489  49.834  1.00  0.00     0.163 HD
HETATM   10  O   UNL     1      25.365  47.463  52.313  1.00  0.00    -0.268 OA
BRANCH   8  11
HETATM   11  C   UNL     1      25.371  44.695  51.793  1.00  0.00     0.115 C 
HETATM   12  C   UNL     1      24.747  43.459  51.140  1.00  0.00     0.037 C 
BRANCH  11  13
HETATM   13  C   UNL     1      26.672  44.396  52.502  1.00  0.00    -0.018 A 
HETATM   14  C   UNL     1      27.727  43.816  51.801  1.00  0.00     0.125 A 
HETATM   15  N   UNL     1      28.923  43.494  52.345  1.00  0.00    -0.273 NA
HETATM   16  C   UNL     1      29.081  43.755  53.659  1.00  0.00     0.116 A 
HETATM   17  C   UNL     1      28.096  44.317  54.453  1.00  0.00     0.020 A 
HETATM   18  C   UNL     1      26.875  44.638  53.866  1.00  0.00     0.012 A 
ENDBRANCH  11  13
ENDBRANCH   8  11
ENDBRANCH   1   7
BRANCH   2  19
HETATM   19  O   UNL     1      23.366  48.162  49.707  1.00  0.00    -0.310 OA
BRANCH  19  20
HETATM   20  C   UNL     1      22.539  47.623  48.752  1.00  0.00     0.076 A 
HETATM   21  C   UNL     1      21.468  48.320  48.186  1.00  0.00     0.037 A 
HETATM   22  C   UNL     1      20.694  47.712  47.194  1.00  0.00     0.003 A 
HETATM   23  C   UNL     1      21.005  46.425  46.754  1.00  0.00     0.000 A 
HETATM   24  C   UNL     1      22.095  45.744  47.299  1.00  0.00     0.003 A 
HETATM   25  C   UNL     1      22.866  46.347  48.292  1.00  0.00     0.037 A 
ENDBRANCH  19  20
ENDBRANCH   2  19
TORSDOF 5
ENDMDL
MODEL 8
REMARK VINA RESULT:      -7.5      1.402      2.124
REMARK  5 active torsions:
REMARK  status: ('A' for Active; 'I' for Inactive)
REMARK    1  A    between atoms: C_2  and  N_3 
REMARK    2  A    between atoms: C_2  and  C_19 
REMARK       I    between atoms: N_3  and  C_4 
REMARK    3  A    between atoms: C_4  and  C_5 
REMARK    4  A    between atoms: C_6  and  O_7 
REMARK    5  A    between atoms: O_7  and  C_8 
ROOT
HETATM    1  C   UNL     1      26.111  42.646  51.008  1.00  0.00     0.065 A 
HETATM    2  C   UNL     1      27.513  42.590  51.021  1.00  0.00     0.091 A 
HETATM    3  C   UNL     1      28.155  41.384  50.704  1.00  0.00     0.038 A 
HETATM    4  C   UNL     1      27.412  40.264  50.327  1.00  0.00     0.003 A 
HETATM    5  C   UNL     1      26.022  40.327  50.291  1.00  0.00     0.001 A 
HETATM    6  C   UNL     1      25.370  41.510  50.640  1.00  0.00     0.020 A 
ENDROOT
BRANCH   1   7
HETATM    7  C   UNL     1      25.390  43.881  51.422  1.00  0.00     0.255 C 
HETATM    8  N   UNL     1      25.626  44.996  50.643  1.00  0.00    -0.348 N 
HETATM    9  H   UNL     1      26.357  44.971  49.947  1.00  0.00     0.163 HD
HETATM   10  O   UNL     1      24.630  43.885  52.382  1.00  0.00    -0.268 OA
BRANCH   8  11
HETATM   11  C   UNL     1      25.019  46.281  50.954  1.00  0.00     0.115 C 
HETATM   12  C   UNL     1      26.093  47.347  51.183  1.00  0.00     0.037 C 
BRANCH  11  13
HETATM   13  C   UNL     1      24.039  46.653  49.866  1.00  0.00    -0.018 A 
HETATM   14  C   UNL     1      23.442  45.656  49.098  1.00  0.00     0.125 A 
HETATM   15  N   UNL     1      22.566  45.886  48.092  1.00  0.00    -0.273 NA
HETATM   16  C   UNL     1      22.269  47.175  47.828  1.00  0.00     0.116 A 
HETATM   17  C   UNL     1      22.813  48.243  48.520  1.00  0.00     0.020 A 
HETATM   18  C   UNL     1      23.711  47.977  49.551  1.00  0.00     0.012 A 
ENDBRANCH  11  13
ENDBRANCH   8  11
ENDBRANCH   1   7
BRANCH   2  19
HETATM   19  O   UNL     1      28.213  43.710  51.413  1.00  0.00    -0.310 OA
BRANCH  19  20
HETATM   20  C   UNL     1      28.769  43.747  52.669  1.00  0.00     0.076 A 
HETATM   21  C   UNL     1      28.188  44.426  53.743  1.00  0.00     0.037 A 
HETATM   22  C   UNL     1      28.800  44.386  54.998  1.00  0.00     0.003 A 
HETATM   23  C   UNL     1      29.973  43.653  55.183  1.00  0.00     0.000 A 
HETATM   24  C   UNL     1      30.532  42.950  54.115  1.00  0.00     0.003 A 
HETATM   25  C   UNL     1      29.927  42.992  52.860  1.00  0.00     0.037 A 
ENDBRANCH  19  20
ENDBRANCH   2  19
TORSDOF 5
ENDMDL
MODEL 9
REMARK VINA RESULT:      -7.5      4.948      9.038
REMARK  5 active torsions:
REMARK  status: ('A' for Active; 'I' for Inactive)
REMARK    1  A    between atoms: C_2  and  N_3 
REMARK    2  A    between atoms: C_2  and  C_19 
REMARK       I    between atoms: N_3  and  C_4 
REMARK    3  A    between atoms: C_4  and  C_5 
REMARK    4  A    between atoms: C_6  and  O_7 
REMARK    5  A    between atoms: O_7  and  C_8 
ROOT
HETATM    1  C   UNL     1      20.184  46.513  48.109  1.00  0.00     0.065 A 
HETATM    2  C   UNL     1      19.397  47.386  48.876  1.00  0.00     0.091 A 
HETATM    3  C   UNL     1      18.002  47.237  48.872  1.00  0.00     0.038 A 
HETATM    4  C   UNL     1      17.403  46.200  48.156  1.00  0.00     0.003 A 
HETATM    5  C   UNL     1      18.186  45.319  47.414  1.00  0.00     0.001 A 
HETATM    6  C   UNL     1      19.572  45.478  47.381  1.00  0.00     0.020 A 
ENDROOT
BRANCH   1   7
HETATM    7  C   UNL     1      21.659  46.691  48.018  1.00  0.00     0.255 C 
HETATM    8  N   UNL     1      22.327  46.743  49.225  1.00  0.00    -0.348 N 
HETATM    9  H   UNL     1      21.799  46.805  50.084  1.00  0.00     0.163 HD
HETATM   10  O   UNL     1      22.227  46.768  46.937  1.00  0.00    -0.268 OA
BRANCH   8  11
HETATM   11  C   UNL     1      23.764  46.952  49.289  1.00  0.00     0.115 C 
HETATM   12  C   UNL     1      24.093  48.446  49.341  1.00  0.00     0.037 C 
BRANCH  11  13
HETATM   13  C   UNL     1      24.338  46.180  50.454  1.00  0.00    -0.018 A 
HETATM   14  C   UNL     1      23.993  44.842  50.638  1.00  0.00     0.125 A 
HETATM   15  N   UNL     1      24.437  44.070  51.656  1.00  0.00    -0.273 NA
HETATM   16  C   UNL     1      25.265  44.656  52.546  1.00  0.00     0.116 A 
HETATM   17  C   UNL     1      25.662  45.979  52.466  1.00  0.00     0.020 A 
HETATM   18  C   UNL     1      25.189  46.750  51.407  1.00  0.00     0.012 A 
ENDBRANCH  11  13
ENDBRANCH   8  11
ENDBRANCH   1   7
BRANCH   2  19
HETATM   19  O   UNL     1      20.022  48.407  49.558  1.00  0.00    -0.310 OA
BRANCH  19  20
HETATM   20  C   UNL     1      19.653  49.706  49.304  1.00  0.00     0.076 A 
HETATM   21  C   UNL     1      18.933  50.488  50.212  1.00  0.00     0.037 A 
HETATM   22  C   UNL     1      18.626  51.812  49.893  1.00  0.00     0.003 A 
HETATM   23  C   UNL     1      19.057  52.359  48.683  1.00  0.00     0.000 A 
HETATM   24  C   UNL     1      19.803  51.585  47.793  1.00  0.00     0.003 A 
HETATM   25  C   UNL     1      20.107  50.261  48.107  1.00  0.00     0.037 A 
ENDBRANCH  19  20
ENDBRANCH   2  19
TORSDOF 5
ENDMDL
MODEL 10
REMARK VINA RESULT:      -7.5     12.105     13.761
REMARK  5 active torsions:
REMARK  status: ('A' for Active; 'I' for Inactive)
REMARK    1  A    between atoms: C_2  and  N_3 
REMARK    2  A    between atoms: C_2  and  C_19 
REMARK       I    between atoms: N_3  and  C_4 
REMARK    3  A    between atoms: C_4  and  C_5 
REMARK    4  A    between atoms: C_6  and  O_7 
REMARK    5  A    between atoms: O_7  and  C_8 
ROOT
HETATM    1  C   UNL     1      33.532  49.826  41.653  1.00  0.00     0.065 A 
HETATM    2  C   UNL     1      32.896  50.733  42.514  1.00  0.00     0.091 A 
HETATM    3  C   UNL     1      33.675  51.612  43.283  1.00  0.00     0.038 A 
HETATM    4  C   UNL     1      35.064  51.622  43.155  1.00  0.00     0.003 A 
HETATM    5  C   UNL     1      35.693  50.737  42.282  1.00  0.00     0.001 A 
HETATM    6  C   UNL     1      34.932  49.834  41.540  1.00  0.00     0.020 A 
ENDROOT
BRANCH   1   7
HETATM    7  C   UNL     1      32.747  48.820  40.887  1.00  0.00     0.255 C 
HETATM    8  N   UNL     1      31.783  49.335  40.043  1.00  0.00    -0.348 N 
HETATM    9  H   UNL     1      31.557  50.319  40.087  1.00  0.00     0.163 HD
HETATM   10  O   UNL     1      32.965  47.620  40.997  1.00  0.00    -0.268 OA
BRANCH   8  11
HETATM   11  C   UNL     1      30.916  48.467  39.262  1.00  0.00     0.115 C 
HETATM   12  C   UNL     1      30.619  47.171  40.021  1.00  0.00     0.037 C 
BRANCH  11  13
HETATM   13  C   UNL     1      29.666  49.221  38.868  1.00  0.00    -0.018 A 
HETATM   14  C   UNL     1      29.772  50.459  38.236  1.00  0.00     0.125 A 
HETATM   15  N   UNL     1      28.718  51.219  37.860  1.00  0.00    -0.273 NA
HETATM   16  C   UNL     1      27.490  50.729  38.130  1.00  0.00     0.116 A 
HETATM   17  C   UNL     1      27.270  49.519  38.764  1.00  0.00     0.020 A 
HETATM   18  C   UNL     1      28.374  48.757  39.140  1.00  0.00     0.012 A 
ENDBRANCH  11  13
ENDBRANCH   8  11
ENDBRANCH   1   7
BRANCH   2  19
HETATM   19  O   UNL     1      31.524  50.684  42.626  1.00  0.00    -0.310 OA
BRANCH  19  20
HETATM   20  C   UNL     1      30.764  51.619  41.965  1.00  0.00     0.076 A 
HETATM   21  C   UNL     1      31.315  52.702  41.274  1.00  0.00     0.037 A 
HETATM   22  C   UNL     1      30.475  53.590  40.598  1.00  0.00     0.003 A 
HETATM   23  C   UNL     1      29.095  53.382  40.593  1.00  0.00     0.000 A 
HETATM   24  C   UNL     1      28.551  52.283  41.257  1.00  0.00     0.003 A 
HETATM   25  C   UNL     1      29.387  51.397  41.937  1.00  0.00     0.037 A 
ENDBRANCH  19  20
ENDBRANCH   2  19
TORSDOF 5
ENDMDL
