MODEL 1
REMARK VINA RESULT:      -9.4      0.000      0.000
REMARK  3 active torsions:
REMARK  status: ('A' for Active; 'I' for Inactive)
REMARK    1  A    between atoms: C_6  and  N_7 
REMARK    2  A    between atoms: N_7  and  N_8 
REMARK    3  A    between atoms: C_9  and  C_10 
ROOT
HETATM    1  N   UNL     1      25.785  45.096  52.079  1.00  0.00    -0.108 N 
HETATM    2  H   UNL     1      25.403  44.164  51.931  1.00  0.00     0.208 HD
ENDROOT
BRANCH   1   3
HETATM    3  C   UNL     1      26.793  45.133  53.007  1.00  0.00     0.724 A 
HETATM    4  N   UNL     1      27.689  44.196  53.079  1.00  0.00    -0.062 NA
HETATM    5  C   UNL     1      28.677  44.303  54.075  1.00  0.00     0.091 A 
HETATM    6  C   UNL     1      28.737  45.375  54.970  1.00  0.00     0.062 A 
HETATM    7  C   UNL     1      29.637  43.294  54.183  1.00  0.00     0.033 A 
HETATM    8  C   UNL     1      29.727  45.452  55.955  1.00  0.00     0.019 A 
HETATM    9  C   UNL     1      27.710  46.421  54.843  1.00  0.00     0.272 A 
HETATM   10  C   UNL     1      30.677  44.436  56.050  1.00  0.00     0.001 A 
HETATM   11  C   UNL     1      30.632  43.358  55.165  1.00  0.00     0.002 A 
HETATM   12  N   UNL     1      26.793  46.209  53.850  1.00  0.00    -0.152 N 
HETATM   13  O   UNL     1      27.682  47.401  55.578  1.00  0.00    -0.267 OA
HETATM   14  H   UNL     1      26.054  46.884  53.715  1.00  0.00     0.187 HD
ENDBRANCH   1   3
BRANCH   1  15
HETATM   15  N   UNL     1      25.189  46.204  51.553  1.00  0.00    -0.172 NA
HETATM   16  C   UNL     1      25.614  46.556  50.379  1.00  0.00     0.152 C 
BRANCH  16  17
HETATM   17  C   UNL     1      25.032  47.720  49.670  1.00  0.00     0.003 A 
HETATM   18  C   UNL     1      25.836  48.738  49.107  1.00  0.00     0.025 A 
HETATM   19 BR   UNL     1      27.733  48.746  49.220  1.00  0.00    -0.050 Br
HETATM   20  C   UNL     1      25.247  49.812  48.424  1.00  0.00     0.059 A 
HETATM   21  C   UNL     1      23.873  49.839  48.322  1.00  0.00     0.106 A 
HETATM   22  C   UNL     1      23.088  48.854  48.869  1.00  0.00     0.106 A 
HETATM   23  O   UNL     1      23.140  50.795  47.692  1.00  0.00    -0.323 OA
HETATM   24  O   UNL     1      21.764  49.066  48.653  1.00  0.00    -0.323 OA
HETATM   25  C   UNL     1      23.632  47.786  49.547  1.00  0.00     0.054 A 
HETATM   26  C   UNL     1      21.801  50.296  47.900  1.00  0.00     0.352 A 
ENDBRANCH  16  17
ENDBRANCH   1  15
TORSDOF 3
ENDMDL
MODEL 2
REMARK VINA RESULT:      -9.2      1.944      2.386
REMARK  3 active torsions:
REMARK  status: ('A' for Active; 'I' for Inactive)
REMARK    1  A    between atoms: C_6  and  N_7 
REMARK    2  A    between atoms: N_7  and  N_8 
REMARK    3  A    between atoms: C_9  and  C_10 
ROOT
HETATM    1  N   UNL     1      25.327  43.804  53.222  1.00  0.00    -0.108 N 
HETATM    2  H   UNL     1      24.967  42.892  53.496  1.00  0.00     0.208 HD
ENDROOT
BRANCH   1   3
HETATM    3  C   UNL     1      26.481  44.156  53.872  1.00  0.00     0.724 A 
HETATM    4  N   UNL     1      27.495  43.349  53.948  1.00  0.00    -0.062 NA
HETATM    5  C   UNL     1      28.633  43.783  54.652  1.00  0.00     0.091 A 
HETATM    6  C   UNL     1      28.715  45.041  55.256  1.00  0.00     0.062 A 
HETATM    7  C   UNL     1      29.727  42.921  54.763  1.00  0.00     0.033 A 
HETATM    8  C   UNL     1      29.857  45.444  55.956  1.00  0.00     0.019 A 
HETATM    9  C   UNL     1      27.548  45.928  55.134  1.00  0.00     0.272 A 
HETATM   10  C   UNL     1      30.940  44.571  56.058  1.00  0.00     0.001 A 
HETATM   11  C   UNL     1      30.874  43.311  55.463  1.00  0.00     0.002 A 
HETATM   12  N   UNL     1      26.494  45.401  54.439  1.00  0.00    -0.152 N 
HETATM   13  O   UNL     1      27.527  47.051  55.624  1.00  0.00    -0.267 OA
HETATM   14  H   UNL     1      25.657  45.953  54.327  1.00  0.00     0.187 HD
ENDBRANCH   1   3
BRANCH   1  15
HETATM   15  N   UNL     1      24.597  44.656  52.446  1.00  0.00    -0.172 NA
HETATM   16  C   UNL     1      25.081  44.878  51.263  1.00  0.00     0.152 C 
BRANCH  16  17
HETATM   17  C   UNL     1      24.375  45.753  50.297  1.00  0.00     0.003 A 
HETATM   18  C   UNL     1      23.407  45.254  49.395  1.00  0.00     0.025 A 
HETATM   19 BR   UNL     1      22.925  43.418  49.298  1.00  0.00    -0.050 Br
HETATM   20  C   UNL     1      22.746  46.120  48.511  1.00  0.00     0.059 A 
HETATM   21  C   UNL     1      23.071  47.458  48.554  1.00  0.00     0.106 A 
HETATM   22  C   UNL     1      24.011  47.947  49.426  1.00  0.00     0.106 A 
HETATM   23  O   UNL     1      22.527  48.434  47.778  1.00  0.00    -0.323 OA
HETATM   24  O   UNL     1      24.179  49.290  49.310  1.00  0.00    -0.323 OA
HETATM   25  C   UNL     1      24.681  47.126  50.306  1.00  0.00     0.054 A 
HETATM   26  C   UNL     1      23.230  49.597  48.268  1.00  0.00     0.352 A 
ENDBRANCH  16  17
ENDBRANCH   1  15
TORSDOF 3
ENDMDL
MODEL 3
REMARK VINA RESULT:      -9.1      2.472      3.212
REMARK  3 active torsions:
REMARK  status: ('A' for Active; 'I' for Inactive)
REMARK    1  A    between atoms: C_6  and  N_7 
REMARK    2  A    between atoms: N_7  and  N_8 
REMARK    3  A    between atoms: C_9  and  C_10 
ROOT
HETATM    1  N   UNL     1      25.142  43.734  53.628  1.00  0.00    -0.108 N 
HETATM    2  H   UNL     1      24.559  43.071  54.134  1.00  0.00     0.208 HD
ENDROOT
BRANCH   1   3
HETATM    3  C   UNL     1      26.459  43.704  54.005  1.00  0.00     0.724 A 
HETATM    4  N   UNL     1      26.979  44.638  54.743  1.00  0.00    -0.062 NA
HETATM    5  C   UNL     1      28.345  44.539  55.067  1.00  0.00     0.091 A 
HETATM    6  C   UNL     1      29.150  43.480  54.639  1.00  0.00     0.062 A 
HETATM    7  C   UNL     1      28.928  45.545  55.842  1.00  0.00     0.033 A 
HETATM    8  C   UNL     1      30.507  43.412  54.970  1.00  0.00     0.019 A 
HETATM    9  C   UNL     1      28.516  42.438  53.816  1.00  0.00     0.272 A 
HETATM   10  C   UNL     1      31.074  44.424  55.744  1.00  0.00     0.001 A 
HETATM   11  C   UNL     1      30.285  45.489  56.179  1.00  0.00     0.002 A 
HETATM   12  N   UNL     1      27.189  42.640  53.553  1.00  0.00    -0.152 N 
HETATM   13  O   UNL     1      29.138  41.468  53.399  1.00  0.00    -0.267 OA
HETATM   14  H   UNL     1      26.695  41.968  52.986  1.00  0.00     0.187 HD
ENDBRANCH   1   3
BRANCH   1  15
HETATM   15  N   UNL     1      24.601  44.688  52.817  1.00  0.00    -0.172 NA
HETATM   16  C   UNL     1      25.014  44.668  51.587  1.00  0.00     0.152 C 
BRANCH  16  17
HETATM   17  C   UNL     1      24.485  45.622  50.584  1.00  0.00     0.003 A 
HETATM   18  C   UNL     1      23.481  45.260  49.656  1.00  0.00     0.025 A 
HETATM   19 BR   UNL     1      22.725  43.519  49.569  1.00  0.00    -0.050 Br
HETATM   20  C   UNL     1      22.992  46.200  48.736  1.00  0.00     0.059 A 
HETATM   21  C   UNL     1      23.518  47.473  48.771  1.00  0.00     0.106 A 
HETATM   22  C   UNL     1      24.494  47.828  49.669  1.00  0.00     0.106 A 
HETATM   23  O   UNL     1      23.158  48.505  47.962  1.00  0.00    -0.323 OA
HETATM   24  O   UNL     1      24.871  49.127  49.539  1.00  0.00    -0.323 OA
HETATM   25  C   UNL     1      24.999  46.931  50.584  1.00  0.00     0.054 A 
HETATM   26  C   UNL     1      24.016  49.555  48.459  1.00  0.00     0.352 A 
ENDBRANCH  16  17
ENDBRANCH   1  15
TORSDOF 3
ENDMDL
MODEL 4
REMARK VINA RESULT:      -9.1      2.259      8.731
REMARK  3 active torsions:
REMARK  status: ('A' for Active; 'I' for Inactive)
REMARK    1  A    between atoms: C_6  and  N_7 
REMARK    2  A    between atoms: N_7  and  N_8 
REMARK    3  A    between atoms: C_9  and  C_10 
ROOT
HETATM    1  N   UNL     1      25.543  45.738  51.024  1.00  0.00    -0.108 N 
HETATM    2  H   UNL     1      24.976  44.920  50.808  1.00  0.00     0.208 HD
ENDROOT
BRANCH   1   3
HETATM    3  C   UNL     1      25.201  46.849  50.299  1.00  0.00     0.724 A 
HETATM    4  N   UNL     1      23.964  47.121  50.008  1.00  0.00    -0.062 NA
HETATM    5  C   UNL     1      23.704  48.272  49.242  1.00  0.00     0.091 A 
HETATM    6  C   UNL     1      24.714  49.129  48.796  1.00  0.00     0.062 A 
HETATM    7  C   UNL     1      22.382  48.569  48.901  1.00  0.00     0.033 A 
HETATM    8  C   UNL     1      24.427  50.262  48.029  1.00  0.00     0.019 A 
HETATM    9  C   UNL     1      26.099  48.789  49.160  1.00  0.00     0.272 A 
HETATM   10  C   UNL     1      23.102  50.545  47.697  1.00  0.00     0.001 A 
HETATM   11  C   UNL     1      22.081  49.699  48.132  1.00  0.00     0.002 A 
HETATM   12  N   UNL     1      26.237  47.645  49.895  1.00  0.00    -0.152 N 
HETATM   13  O   UNL     1      27.051  49.482  48.820  1.00  0.00    -0.267 OA
HETATM   14  H   UNL     1      27.161  47.349  50.170  1.00  0.00     0.187 HD
ENDBRANCH   1   3
BRANCH   1  15
HETATM   15  N   UNL     1      26.659  45.648  51.803  1.00  0.00    -0.172 NA
HETATM   16  C   UNL     1      26.437  45.549  53.078  1.00  0.00     0.152 C 
BRANCH  16  17
HETATM   17  C   UNL     1      27.554  45.407  54.042  1.00  0.00     0.003 A 
HETATM   18  C   UNL     1      27.815  46.376  55.039  1.00  0.00     0.025 A 
HETATM   19 BR   UNL     1      26.796  47.968  55.235  1.00  0.00    -0.050 Br
HETATM   20  C   UNL     1      28.870  46.194  55.947  1.00  0.00     0.059 A 
HETATM   21  C   UNL     1      29.630  45.051  55.834  1.00  0.00     0.106 A 
HETATM   22  C   UNL     1      29.381  44.109  54.867  1.00  0.00     0.106 A 
HETATM   23  O   UNL     1      30.679  44.711  56.629  1.00  0.00    -0.323 OA
HETATM   24  O   UNL     1      30.241  43.059  54.931  1.00  0.00    -0.323 OA
HETATM   25  C   UNL     1      28.356  44.255  53.958  1.00  0.00     0.054 A 
HETATM   26  C   UNL     1      31.059  43.442  56.055  1.00  0.00     0.352 A 
ENDBRANCH  16  17
ENDBRANCH   1  15
TORSDOF 3
ENDMDL
MODEL 5
REMARK VINA RESULT:      -8.9      5.303      8.101
REMARK  3 active torsions:
REMARK  status: ('A' for Active; 'I' for Inactive)
REMARK    1  A    between atoms: C_6  and  N_7 
REMARK    2  A    between atoms: N_7  and  N_8 
REMARK    3  A    between atoms: C_9  and  C_10 
ROOT
HETATM    1  N   UNL     1      28.707  40.743  52.923  1.00  0.00    -0.108 N 
HETATM    2  H   UNL     1      29.211  40.191  53.615  1.00  0.00     0.208 HD
ENDROOT
BRANCH   1   3
HETATM    3  C   UNL     1      28.717  40.191  51.669  1.00  0.00     0.724 A 
HETATM    4  N   UNL     1      28.106  40.753  50.670  1.00  0.00    -0.062 NA
HETATM    5  C   UNL     1      28.150  40.107  49.421  1.00  0.00     0.091 A 
HETATM    6  C   UNL     1      28.830  38.903  49.215  1.00  0.00     0.062 A 
HETATM    7  C   UNL     1      27.480  40.685  48.339  1.00  0.00     0.033 A 
HETATM    8  C   UNL     1      28.851  38.279  47.963  1.00  0.00     0.019 A 
HETATM    9  C   UNL     1      29.519  38.309  50.371  1.00  0.00     0.272 A 
HETATM   10  C   UNL     1      28.177  38.868  46.894  1.00  0.00     0.001 A 
HETATM   11  C   UNL     1      27.493  40.070  47.082  1.00  0.00     0.002 A 
HETATM   12  N   UNL     1      29.401  39.014  51.537  1.00  0.00    -0.152 N 
HETATM   13  O   UNL     1      30.146  37.259  50.288  1.00  0.00    -0.267 OA
HETATM   14  H   UNL     1      29.842  38.657  52.371  1.00  0.00     0.187 HD
ENDBRANCH   1   3
BRANCH   1  15
HETATM   15  N   UNL     1      28.261  42.001  53.200  1.00  0.00    -0.172 NA
HETATM   16  C   UNL     1      28.903  42.621  54.141  1.00  0.00     0.152 C 
BRANCH  16  17
HETATM   17  C   UNL     1      28.552  44.010  54.525  1.00  0.00     0.003 A 
HETATM   18  C   UNL     1      29.386  44.796  55.352  1.00  0.00     0.025 A 
HETATM   19 BR   UNL     1      31.020  44.162  56.085  1.00  0.00    -0.050 Br
HETATM   20  C   UNL     1      29.027  46.114  55.674  1.00  0.00     0.059 A 
HETATM   21  C   UNL     1      27.848  46.608  55.160  1.00  0.00     0.106 A 
HETATM   22  C   UNL     1      27.034  45.846  54.358  1.00  0.00     0.106 A 
HETATM   23  O   UNL     1      27.353  47.857  55.363  1.00  0.00    -0.323 OA
HETATM   24  O   UNL     1      25.925  46.520  53.956  1.00  0.00    -0.323 OA
HETATM   25  C   UNL     1      27.353  44.549  54.023  1.00  0.00     0.054 A 
HETATM   26  C   UNL     1      26.134  47.799  54.590  1.00  0.00     0.352 A 
ENDBRANCH  16  17
ENDBRANCH   1  15
TORSDOF 3
ENDMDL
MODEL 6
REMARK VINA RESULT:      -8.8      1.460      2.040
REMARK  3 active torsions:
REMARK  status: ('A' for Active; 'I' for Inactive)
REMARK    1  A    between atoms: C_6  and  N_7 
REMARK    2  A    between atoms: N_7  and  N_8 
REMARK    3  A    between atoms: C_9  and  C_10 
ROOT
HETATM    1  N   UNL     1      26.360  44.441  51.398  1.00  0.00    -0.108 N 
HETATM    2  H   UNL     1      26.202  43.528  50.974  1.00  0.00     0.208 HD
ENDROOT
BRANCH   1   3
HETATM    3  C   UNL     1      27.274  44.421  52.418  1.00  0.00     0.724 A 
HETATM    4  N   UNL     1      27.175  45.216  53.440  1.00  0.00    -0.062 NA
HETATM    5  C   UNL     1      28.169  45.142  54.433  1.00  0.00     0.091 A 
HETATM    6  C   UNL     1      29.241  44.247  54.366  1.00  0.00     0.062 A 
HETATM    7  C   UNL     1      28.092  46.005  55.529  1.00  0.00     0.033 A 
HETATM    8  C   UNL     1      30.220  44.202  55.364  1.00  0.00     0.019 A 
HETATM    9  C   UNL     1      29.306  43.356  53.197  1.00  0.00     0.272 A 
HETATM   10  C   UNL     1      30.128  45.069  56.451  1.00  0.00     0.001 A 
HETATM   11  C   UNL     1      29.066  45.970  56.534  1.00  0.00     0.002 A 
HETATM   12  N   UNL     1      28.296  43.521  52.290  1.00  0.00    -0.152 N 
HETATM   13  O   UNL     1      30.204  42.535  53.053  1.00  0.00    -0.267 OA
HETATM   14  H   UNL     1      28.286  42.948  51.460  1.00  0.00     0.187 HD
ENDBRANCH   1   3
BRANCH   1  15
HETATM   15  N   UNL     1      25.570  45.512  51.101  1.00  0.00    -0.172 NA
HETATM   16  C   UNL     1      25.977  46.241  50.108  1.00  0.00     0.152 C 
BRANCH  16  17
HETATM   17  C   UNL     1      25.199  47.417  49.649  1.00  0.00     0.003 A 
HETATM   18  C   UNL     1      25.823  48.601  49.195  1.00  0.00     0.025 A 
HETATM   19 BR   UNL     1      27.709  48.832  49.149  1.00  0.00    -0.050 Br
HETATM   20  C   UNL     1      25.050  49.685  48.749  1.00  0.00     0.059 A 
HETATM   21  C   UNL     1      23.679  49.553  48.768  1.00  0.00     0.106 A 
HETATM   22  C   UNL     1      23.070  48.405  49.211  1.00  0.00     0.106 A 
HETATM   23  O   UNL     1      22.784  50.494  48.368  1.00  0.00    -0.323 OA
HETATM   24  O   UNL     1      21.715  48.479  49.145  1.00  0.00    -0.323 OA
HETATM   25  C   UNL     1      23.796  47.323  49.657  1.00  0.00     0.054 A 
HETATM   26  C   UNL     1      21.537  49.803  48.603  1.00  0.00     0.352 A 
ENDBRANCH  16  17
ENDBRANCH   1  15
TORSDOF 3
ENDMDL
MODEL 7
REMARK VINA RESULT:      -8.8      5.581      8.622
REMARK  3 active torsions:
REMARK  status: ('A' for Active; 'I' for Inactive)
REMARK    1  A    between atoms: C_6  and  N_7 
REMARK    2  A    between atoms: N_7  and  N_8 
REMARK    3  A    between atoms: C_9  and  C_10 
ROOT
HETATM    1  N   UNL     1      26.746  42.718  52.025  1.00  0.00    -0.108 N 
HETATM    2  H   UNL     1      25.805  42.988  51.746  1.00  0.00     0.208 HD
ENDROOT
BRANCH   1   3
HETATM    3  C   UNL     1      27.325  41.803  51.185  1.00  0.00     0.724 A 
HETATM    4  N   UNL     1      27.986  40.781  51.639  1.00  0.00    -0.062 NA
HETATM    5  C   UNL     1      28.565  39.902  50.706  1.00  0.00     0.091 A 
HETATM    6  C   UNL     1      28.448  40.080  49.324  1.00  0.00     0.062 A 
HETATM    7  C   UNL     1      29.298  38.809  51.174  1.00  0.00     0.033 A 
HETATM    8  C   UNL     1      29.041  39.194  48.419  1.00  0.00     0.019 A 
HETATM    9  C   UNL     1      27.680  41.244  48.855  1.00  0.00     0.272 A 
HETATM   10  C   UNL     1      29.770  38.109  48.903  1.00  0.00     0.001 A 
HETATM   11  C   UNL     1      29.898  37.916  50.279  1.00  0.00     0.002 A 
HETATM   12  N   UNL     1      27.171  42.036  49.846  1.00  0.00    -0.152 N 
HETATM   13  O   UNL     1      27.517  41.481  47.663  1.00  0.00    -0.267 OA
HETATM   14  H   UNL     1      26.642  42.857  49.594  1.00  0.00     0.187 HD
ENDBRANCH   1   3
BRANCH   1  15
HETATM   15  N   UNL     1      27.266  43.084  53.232  1.00  0.00    -0.172 NA
HETATM   16  C   UNL     1      28.141  44.041  53.190  1.00  0.00     0.152 C 
BRANCH  16  17
HETATM   17  C   UNL     1      28.764  44.566  54.428  1.00  0.00     0.003 A 
HETATM   18  C   UNL     1      28.336  45.771  55.033  1.00  0.00     0.025 A 
HETATM   19 BR   UNL     1      26.949  46.857  54.320  1.00  0.00    -0.050 Br
HETATM   20  C   UNL     1      28.937  46.223  56.217  1.00  0.00     0.059 A 
HETATM   21  C   UNL     1      29.947  45.460  56.763  1.00  0.00     0.106 A 
HETATM   22  C   UNL     1      30.366  44.291  56.177  1.00  0.00     0.106 A 
HETATM   23  O   UNL     1      30.630  45.743  57.903  1.00  0.00    -0.323 OA
HETATM   24  O   UNL     1      31.367  43.692  56.874  1.00  0.00    -0.323 OA
HETATM   25  C   UNL     1      29.801  43.818  55.014  1.00  0.00     0.054 A 
HETATM   26  C   UNL     1      31.527  44.613  57.973  1.00  0.00     0.352 A 
ENDBRANCH  16  17
ENDBRANCH   1  15
TORSDOF 3
ENDMDL
MODEL 8
REMARK VINA RESULT:      -8.6      2.356      3.340
REMARK  3 active torsions:
REMARK  status: ('A' for Active; 'I' for Inactive)
REMARK    1  A    between atoms: C_6  and  N_7 
REMARK    2  A    between atoms: N_7  and  N_8 
REMARK    3  A    between atoms: C_9  and  C_10 
ROOT
HETATM    1  N   UNL     1      27.076  46.867  54.376  1.00  0.00    -0.108 N 
HETATM    2  H   UNL     1      27.185  47.846  54.633  1.00  0.00     0.208 HD
ENDROOT
BRANCH   1   3
HETATM    3  C   UNL     1      28.056  46.054  54.884  1.00  0.00     0.724 A 
HETATM    4  N   UNL     1      28.615  46.294  56.031  1.00  0.00    -0.062 NA
HETATM    5  C   UNL     1      29.628  45.419  56.467  1.00  0.00     0.091 A 
HETATM    6  C   UNL     1      30.040  44.309  55.725  1.00  0.00     0.062 A 
HETATM    7  C   UNL     1      30.257  45.673  57.689  1.00  0.00     0.033 A 
HETATM    8  C   UNL     1      31.055  43.461  56.180  1.00  0.00     0.019 A 
HETATM    9  C   UNL     1      29.370  44.069  54.438  1.00  0.00     0.272 A 
HETATM   10  C   UNL     1      31.673  43.728  57.401  1.00  0.00     0.001 A 
HETATM   11  C   UNL     1      31.275  44.833  58.154  1.00  0.00     0.002 A 
HETATM   12  N   UNL     1      28.411  44.986  54.108  1.00  0.00    -0.152 N 
HETATM   13  O   UNL     1      29.658  43.118  53.719  1.00  0.00    -0.267 OA
HETATM   14  H   UNL     1      27.919  44.886  53.233  1.00  0.00     0.187 HD
ENDBRANCH   1   3
BRANCH   1  15
HETATM   15  N   UNL     1      26.160  46.470  53.447  1.00  0.00    -0.172 NA
HETATM   16  C   UNL     1      26.424  46.819  52.226  1.00  0.00     0.152 C 
BRANCH  16  17
HETATM   17  C   UNL     1      25.537  46.427  51.106  1.00  0.00     0.003 A 
HETATM   18  C   UNL     1      25.583  45.139  50.524  1.00  0.00     0.025 A 
HETATM   19 BR   UNL     1      26.796  43.787  51.084  1.00  0.00    -0.050 Br
HETATM   20  C   UNL     1      24.710  44.799  49.479  1.00  0.00     0.059 A 
HETATM   21  C   UNL     1      23.817  45.755  49.047  1.00  0.00     0.106 A 
HETATM   22  C   UNL     1      23.770  47.007  49.607  1.00  0.00     0.106 A 
HETATM   23  O   UNL     1      22.900  45.596  48.056  1.00  0.00    -0.323 OA
HETATM   24  O   UNL     1      22.818  47.794  49.041  1.00  0.00    -0.323 OA
HETATM   25  C   UNL     1      24.612  47.376  50.633  1.00  0.00     0.054 A 
HETATM   26  C   UNL     1      22.263  46.893  48.061  1.00  0.00     0.352 A 
ENDBRANCH  16  17
ENDBRANCH   1  15
TORSDOF 3
ENDMDL
MODEL 9
REMARK VINA RESULT:      -8.4      5.807      9.026
REMARK  3 active torsions:
REMARK  status: ('A' for Active; 'I' for Inactive)
REMARK    1  A    between atoms: C_6  and  N_7 
REMARK    2  A    between atoms: N_7  and  N_8 
REMARK    3  A    between atoms: C_9  and  C_10 
ROOT
HETATM    1  N   UNL     1      29.123  40.018  52.074  1.00  0.00    -0.108 N 
HETATM    2  H   UNL     1      29.798  39.295  52.315  1.00  0.00     0.208 HD
ENDROOT
BRANCH   1   3
HETATM    3  C   UNL     1      28.717  39.975  50.766  1.00  0.00     0.724 A 
HETATM    4  N   UNL     1      28.935  38.936  50.017  1.00  0.00    -0.062 NA
HETATM    5  C   UNL     1      28.502  38.984  48.679  1.00  0.00     0.091 A 
HETATM    6  C   UNL     1      27.845  40.092  48.136  1.00  0.00     0.062 A 
HETATM    7  C   UNL     1      28.746  37.885  47.852  1.00  0.00     0.033 A 
HETATM    8  C   UNL     1      27.433  40.115  46.799  1.00  0.00     0.019 A 
HETATM    9  C   UNL     1      27.608  41.241  49.023  1.00  0.00     0.272 A 
HETATM   10  C   UNL     1      27.684  39.010  45.987  1.00  0.00     0.001 A 
HETATM   11  C   UNL     1      28.341  37.897  46.513  1.00  0.00     0.002 A 
HETATM   12  N   UNL     1      28.079  41.091  50.298  1.00  0.00    -0.152 N 
HETATM   13  O   UNL     1      27.035  42.254  48.640  1.00  0.00    -0.267 OA
HETATM   14  H   UNL     1      27.959  41.845  50.957  1.00  0.00     0.187 HD
ENDBRANCH   1   3
BRANCH   1  15
HETATM   15  N   UNL     1      28.834  41.039  52.930  1.00  0.00    -0.172 NA
HETATM   16  C   UNL     1      29.746  41.957  53.025  1.00  0.00     0.152 C 
BRANCH  16  17
HETATM   17  C   UNL     1      29.553  43.145  53.890  1.00  0.00     0.003 A 
HETATM   18  C   UNL     1      28.575  44.127  53.613  1.00  0.00     0.025 A 
HETATM   19 BR   UNL     1      27.427  44.054  52.100  1.00  0.00    -0.050 Br
HETATM   20  C   UNL     1      28.410  45.227  54.469  1.00  0.00     0.059 A 
HETATM   21  C   UNL     1      29.225  45.312  55.576  1.00  0.00     0.106 A 
HETATM   22  C   UNL     1      30.177  44.362  55.848  1.00  0.00     0.106 A 
HETATM   23  O   UNL     1      29.197  46.300  56.510  1.00  0.00    -0.323 OA
HETATM   24  O   UNL     1      30.869  44.631  56.986  1.00  0.00    -0.323 OA
HETATM   25  C   UNL     1      30.369  43.271  55.029  1.00  0.00     0.054 A 
HETATM   26  C   UNL     1      30.240  45.858  57.407  1.00  0.00     0.352 A 
ENDBRANCH  16  17
ENDBRANCH   1  15
TORSDOF 3
ENDMDL
MODEL 10
REMARK VINA RESULT:      -8.4      6.078      7.446
REMARK  3 active torsions:
REMARK  status: ('A' for Active; 'I' for Inactive)
REMARK    1  A    between atoms: C_6  and  N_7 
REMARK    2  A    between atoms: N_7  and  N_8 
REMARK    3  A    between atoms: C_9  and  C_10 
ROOT
HETATM    1  N   UNL     1      27.274  40.926  52.644  1.00  0.00    -0.108 N 
HETATM    2  H   UNL     1      26.828  40.225  53.233  1.00  0.00     0.208 HD
ENDROOT
BRANCH   1   3
HETATM    3  C   UNL     1      27.723  42.019  53.338  1.00  0.00     0.724 A 
HETATM    4  N   UNL     1      28.908  42.053  53.866  1.00  0.00    -0.062 NA
HETATM    5  C   UNL     1      29.281  43.207  54.579  1.00  0.00     0.091 A 
HETATM    6  C   UNL     1      28.435  44.311  54.728  1.00  0.00     0.062 A 
HETATM    7  C   UNL     1      30.544  43.254  55.174  1.00  0.00     0.033 A 
HETATM    8  C   UNL     1      28.830  45.443  55.448  1.00  0.00     0.019 A 
HETATM    9  C   UNL     1      27.107  44.234  54.101  1.00  0.00     0.272 A 
HETATM   10  C   UNL     1      30.093  45.473  56.036  1.00  0.00     0.001 A 
HETATM   11  C   UNL     1      30.949  44.380  55.899  1.00  0.00     0.002 A 
HETATM   12  N   UNL     1      26.846  43.063  53.444  1.00  0.00    -0.152 N 
HETATM   13  O   UNL     1      26.298  45.153  54.171  1.00  0.00    -0.267 OA
HETATM   14  H   UNL     1      25.949  42.941  53.000  1.00  0.00     0.187 HD
ENDBRANCH   1   3
BRANCH   1  15
HETATM   15  N   UNL     1      27.222  40.853  51.283  1.00  0.00    -0.172 NA
HETATM   16  C   UNL     1      27.897  39.879  50.755  1.00  0.00     0.152 C 
BRANCH  16  17
HETATM   17  C   UNL     1      27.903  39.655  49.290  1.00  0.00     0.003 A 
HETATM   18  C   UNL     1      27.597  38.398  48.719  1.00  0.00     0.025 A 
HETATM   19 BR   UNL     1      27.176  36.861  49.754  1.00  0.00    -0.050 Br
HETATM   20  C   UNL     1      27.593  38.233  47.326  1.00  0.00     0.059 A 
HETATM   21  C   UNL     1      27.894  39.327  46.544  1.00  0.00     0.106 A 
HETATM   22  C   UNL     1      28.193  40.548  47.094  1.00  0.00     0.106 A 
HETATM   23  O   UNL     1      27.929  39.348  45.185  1.00  0.00    -0.323 OA
HETATM   24  O   UNL     1      28.456  41.492  46.152  1.00  0.00    -0.323 OA
HETATM   25  C   UNL     1      28.209  40.746  48.457  1.00  0.00     0.054 A 
HETATM   26  C   UNL     1      28.280  40.728  44.941  1.00  0.00     0.352 A 
ENDBRANCH  16  17
ENDBRANCH   1  15
TORSDOF 3
ENDMDL
