MODEL 1
REMARK VINA RESULT:      -7.8      0.000      0.000
REMARK  3 active torsions:
REMARK  status: ('A' for Active; 'I' for Inactive)
REMARK    1  A    between atoms: C_7  and  C_8 
REMARK       I    between atoms: C_8  and  N_9 
REMARK    2  A    between atoms: N_9  and  C_10 
REMARK    3  A    between atoms: C_13  and  C_14 
REMARK       I    between atoms: C_14  and  N_15 
ROOT
HETATM    1  C   UNL     1      22.257  48.743  49.187  1.00  0.00     0.256 C 
HETATM    2  N   UNL     1      21.824  49.887  49.834  1.00  0.00    -0.322 N 
HETATM    3  O   UNL     1      21.551  48.003  48.510  1.00  0.00    -0.267 OA
HETATM    4  H   UNL     1      22.471  50.363  50.446  1.00  0.00     0.169 HD
ENDROOT
BRANCH   2   5
HETATM    5  C   UNL     1      20.532  50.455  49.755  1.00  0.00     0.052 A 
HETATM    6  C   UNL     1      19.413  50.013  50.461  1.00  0.00     0.147 A 
HETATM    7  N   UNL     1      18.174  50.562  50.357  1.00  0.00    -0.253 NA
HETATM    8  C   UNL     1      18.046  51.609  49.498  1.00  0.00     0.124 A 
HETATM    9  C   UNL     1      19.095  52.125  48.752  1.00  0.00     0.039 A 
HETATM   10  C   UNL     1      20.353  51.538  48.889  1.00  0.00     0.033 A 
BRANCH   8  11
HETATM   11  C   UNL     1      16.679  52.205  49.375  1.00  0.00     0.268 C 
HETATM   12  N   UNL     1      16.621  53.566  49.512  1.00  0.00    -0.365 N 
HETATM   13  H   UNL     1      17.477  54.082  49.687  1.00  0.00     0.159 HD
HETATM   14  H   UNL     1      15.735  54.042  49.445  1.00  0.00     0.159 HD
HETATM   15  O   UNL     1      15.679  51.530  49.166  1.00  0.00    -0.266 OA
ENDBRANCH   8  11
ENDBRANCH   2   5
BRANCH   1  16
HETATM   16  C   UNL     1      23.701  48.388  49.350  1.00  0.00     0.034 A 
HETATM   17  C   UNL     1      24.129  47.226  50.000  1.00  0.00     0.041 A 
HETATM   18  C   UNL     1      25.495  46.970  50.128  1.00  0.00     0.035 A 
HETATM   19  C   UNL     1      26.444  47.866  49.635  1.00  0.00     0.030 A 
HETATM   20 CL   UNL     1      26.015  45.528  50.913  1.00  0.00    -0.084 Cl
HETATM   21  C   UNL     1      26.032  49.049  49.016  1.00  0.00    -0.059 A 
HETATM   22  C   UNL     1      27.036  50.029  48.482  1.00  0.00     0.048 C 
HETATM   23  C   UNL     1      24.660  49.296  48.864  1.00  0.00     0.024 A 
ENDBRANCH   1  16
TORSDOF 3
ENDMDL
MODEL 2
REMARK VINA RESULT:      -7.8      3.435      7.881
REMARK  3 active torsions:
REMARK  status: ('A' for Active; 'I' for Inactive)
REMARK    1  A    between atoms: C_7  and  C_8 
REMARK       I    between atoms: C_8  and  N_9 
REMARK    2  A    between atoms: N_9  and  C_10 
REMARK    3  A    between atoms: C_13  and  C_14 
REMARK       I    between atoms: C_14  and  N_15 
ROOT
HETATM    1  C   UNL     1      20.746  50.462  49.655  1.00  0.00     0.256 C 
HETATM    2  N   UNL     1      21.456  49.599  48.839  1.00  0.00    -0.322 N 
HETATM    3  O   UNL     1      21.224  51.127  50.568  1.00  0.00    -0.267 OA
HETATM    4  H   UNL     1      20.940  49.026  48.187  1.00  0.00     0.169 HD
ENDROOT
BRANCH   2   5
HETATM    5  C   UNL     1      22.856  49.403  48.844  1.00  0.00     0.052 A 
HETATM    6  C   UNL     1      23.535  48.463  49.618  1.00  0.00     0.147 A 
HETATM    7  N   UNL     1      24.885  48.304  49.622  1.00  0.00    -0.253 NA
HETATM    8  C   UNL     1      25.594  49.132  48.809  1.00  0.00     0.124 A 
HETATM    9  C   UNL     1      25.015  50.099  47.999  1.00  0.00     0.039 A 
HETATM   10  C   UNL     1      23.627  50.229  48.019  1.00  0.00     0.033 A 
BRANCH   8  11
HETATM   11  C   UNL     1      27.082  48.965  48.823  1.00  0.00     0.268 C 
HETATM   12  N   UNL     1      27.800  50.129  48.830  1.00  0.00    -0.365 N 
HETATM   13  H   UNL     1      27.306  51.016  48.821  1.00  0.00     0.159 HD
HETATM   14  H   UNL     1      28.808  50.100  48.836  1.00  0.00     0.159 HD
HETATM   15  O   UNL     1      27.623  47.866  48.830  1.00  0.00    -0.266 OA
ENDBRANCH   8  11
ENDBRANCH   2   5
BRANCH   1  16
HETATM   16  C   UNL     1      19.275  50.566  49.400  1.00  0.00     0.034 A 
HETATM   17  C   UNL     1      18.546  49.568  48.745  1.00  0.00     0.041 A 
HETATM   18  C   UNL     1      17.178  49.742  48.529  1.00  0.00     0.035 A 
HETATM   19  C   UNL     1      16.528  50.907  48.937  1.00  0.00     0.030 A 
HETATM   20 CL   UNL     1      16.282  48.503  47.738  1.00  0.00    -0.084 Cl
HETATM   21  C   UNL     1      17.251  51.929  49.559  1.00  0.00    -0.059 A 
HETATM   22  C   UNL     1      16.572  53.192  50.004  1.00  0.00     0.048 C 
HETATM   23  C   UNL     1      18.620  51.744  49.801  1.00  0.00     0.024 A 
ENDBRANCH   1  16
TORSDOF 3
ENDMDL
MODEL 3
REMARK VINA RESULT:      -7.8      7.402     11.316
REMARK  3 active torsions:
REMARK  status: ('A' for Active; 'I' for Inactive)
REMARK    1  A    between atoms: C_7  and  C_8 
REMARK       I    between atoms: C_8  and  N_9 
REMARK    2  A    between atoms: N_9  and  C_10 
REMARK    3  A    between atoms: C_13  and  C_14 
REMARK       I    between atoms: C_14  and  N_15 
ROOT
HETATM    1  C   UNL     1      26.446  44.730  53.373  1.00  0.00     0.256 C 
HETATM    2  N   UNL     1      27.795  45.036  53.378  1.00  0.00    -0.322 N 
HETATM    3  O   UNL     1      25.847  44.154  54.274  1.00  0.00    -0.267 OA
HETATM    4  H   UNL     1      28.201  45.421  52.537  1.00  0.00     0.169 HD
ENDROOT
BRANCH   2   5
HETATM    5  C   UNL     1      28.696  44.832  54.448  1.00  0.00     0.052 A 
HETATM    6  C   UNL     1      28.936  45.736  55.483  1.00  0.00     0.147 A 
HETATM    7  N   UNL     1      29.820  45.527  56.494  1.00  0.00    -0.253 NA
HETATM    8  C   UNL     1      30.504  44.352  56.467  1.00  0.00     0.124 A 
HETATM    9  C   UNL     1      30.338  43.386  55.485  1.00  0.00     0.039 A 
HETATM   10  C   UNL     1      29.417  43.634  54.466  1.00  0.00     0.033 A 
BRANCH   8  11
HETATM   11  C   UNL     1      31.486  44.128  57.574  1.00  0.00     0.268 C 
HETATM   12  N   UNL     1      31.422  45.030  58.601  1.00  0.00    -0.365 N 
HETATM   13  H   UNL     1      30.740  45.780  58.560  1.00  0.00     0.159 HD
HETATM   14  H   UNL     1      32.054  44.950  59.383  1.00  0.00     0.159 HD
HETATM   15  O   UNL     1      32.291  43.206  57.568  1.00  0.00    -0.266 OA
ENDBRANCH   8  11
ENDBRANCH   2   5
BRANCH   1  16
HETATM   16  C   UNL     1      25.675  45.126  52.152  1.00  0.00     0.034 A 
HETATM   17  C   UNL     1      24.668  44.329  51.598  1.00  0.00     0.041 A 
HETATM   18  C   UNL     1      24.002  44.758  50.449  1.00  0.00     0.035 A 
HETATM   19  C   UNL     1      24.340  45.961  49.830  1.00  0.00     0.030 A 
HETATM   20 CL   UNL     1      22.752  43.781  49.782  1.00  0.00    -0.084 Cl
HETATM   21  C   UNL     1      25.369  46.751  50.350  1.00  0.00    -0.059 A 
HETATM   22  C   UNL     1      25.751  48.047  49.698  1.00  0.00     0.048 C 
HETATM   23  C   UNL     1      26.021  46.333  51.520  1.00  0.00     0.024 A 
ENDBRANCH   1  16
TORSDOF 3
ENDMDL
MODEL 4
REMARK VINA RESULT:      -7.8      7.444     11.488
REMARK  3 active torsions:
REMARK  status: ('A' for Active; 'I' for Inactive)
REMARK    1  A    between atoms: C_7  and  C_8 
REMARK       I    between atoms: C_8  and  N_9 
REMARK    2  A    between atoms: N_9  and  C_10 
REMARK    3  A    between atoms: C_13  and  C_14 
REMARK       I    between atoms: C_14  and  N_15 
ROOT
HETATM    1  C   UNL     1      26.443  44.728  53.367  1.00  0.00     0.256 C 
HETATM    2  N   UNL     1      27.803  44.981  53.353  1.00  0.00    -0.322 N 
HETATM    3  O   UNL     1      25.830  44.205  54.291  1.00  0.00    -0.267 OA
HETATM    4  H   UNL     1      28.217  45.323  52.498  1.00  0.00     0.169 HD
ENDROOT
BRANCH   2   5
HETATM    5  C   UNL     1      28.703  44.777  54.424  1.00  0.00     0.052 A 
HETATM    6  C   UNL     1      28.871  45.634  55.511  1.00  0.00     0.147 A 
HETATM    7  N   UNL     1      29.756  45.428  56.522  1.00  0.00    -0.253 NA
HETATM    8  C   UNL     1      30.517  44.304  56.439  1.00  0.00     0.124 A 
HETATM    9  C   UNL     1      30.428  43.387  55.402  1.00  0.00     0.039 A 
HETATM   10  C   UNL     1      29.504  43.630  54.385  1.00  0.00     0.033 A 
BRANCH   8  11
HETATM   11  C   UNL     1      31.500  44.084  57.546  1.00  0.00     0.268 C 
HETATM   12  N   UNL     1      31.449  44.999  58.563  1.00  0.00    -0.365 N 
HETATM   13  H   UNL     1      30.774  45.755  58.514  1.00  0.00     0.159 HD
HETATM   14  H   UNL     1      32.081  44.921  59.344  1.00  0.00     0.159 HD
HETATM   15  O   UNL     1      32.296  43.153  57.549  1.00  0.00    -0.266 OA
ENDBRANCH   8  11
ENDBRANCH   2   5
BRANCH   1  16
HETATM   16  C   UNL     1      25.678  45.114  52.140  1.00  0.00     0.034 A 
HETATM   17  C   UNL     1      25.839  46.349  51.503  1.00  0.00     0.041 A 
HETATM   18  C   UNL     1      25.079  46.645  50.370  1.00  0.00     0.035 A 
HETATM   19  C   UNL     1      24.144  45.737  49.874  1.00  0.00     0.030 A 
HETATM   20 CL   UNL     1      25.295  48.159  49.579  1.00  0.00    -0.084 Cl
HETATM   21  C   UNL     1      23.945  44.514  50.522  1.00  0.00    -0.059 A 
HETATM   22  C   UNL     1      22.942  43.524  50.007  1.00  0.00     0.048 C 
HETATM   23  C   UNL     1      24.727  44.205  51.645  1.00  0.00     0.024 A 
ENDBRANCH   1  16
TORSDOF 3
ENDMDL
MODEL 5
REMARK VINA RESULT:      -7.7      4.853      7.420
REMARK  3 active torsions:
REMARK  status: ('A' for Active; 'I' for Inactive)
REMARK    1  A    between atoms: C_7  and  C_8 
REMARK       I    between atoms: C_8  and  N_9 
REMARK    2  A    between atoms: N_9  and  C_10 
REMARK    3  A    between atoms: C_13  and  C_14 
REMARK       I    between atoms: C_14  and  N_15 
ROOT
HETATM    1  C   UNL     1      26.645  45.352  52.980  1.00  0.00     0.256 C 
HETATM    2  N   UNL     1      26.567  45.449  51.601  1.00  0.00    -0.322 N 
HETATM    3  O   UNL     1      25.922  45.945  53.773  1.00  0.00    -0.267 OA
HETATM    4  H   UNL     1      27.280  44.994  51.050  1.00  0.00     0.169 HD
ENDROOT
BRANCH   2   5
HETATM    5  C   UNL     1      25.592  46.161  50.866  1.00  0.00     0.052 A 
HETATM    6  C   UNL     1      25.532  47.549  50.741  1.00  0.00     0.147 A 
HETATM    7  N   UNL     1      24.575  48.215  50.044  1.00  0.00    -0.253 NA
HETATM    8  C   UNL     1      23.623  47.452  49.442  1.00  0.00     0.124 A 
HETATM    9  C   UNL     1      23.593  46.067  49.504  1.00  0.00     0.039 A 
HETATM   10  C   UNL     1      24.595  45.418  50.225  1.00  0.00     0.033 A 
BRANCH   8  11
HETATM   11  C   UNL     1      22.562  48.188  48.685  1.00  0.00     0.268 C 
HETATM   12  N   UNL     1      21.383  48.368  49.358  1.00  0.00    -0.365 N 
HETATM   13  H   UNL     1      21.290  48.003  50.300  1.00  0.00     0.159 HD
HETATM   14  H   UNL     1      20.618  48.851  48.914  1.00  0.00     0.159 HD
HETATM   15  O   UNL     1      22.729  48.603  47.545  1.00  0.00    -0.266 OA
ENDBRANCH   8  11
ENDBRANCH   2   5
BRANCH   1  16
HETATM   16  C   UNL     1      27.715  44.461  53.528  1.00  0.00     0.034 A 
HETATM   17  C   UNL     1      28.635  44.884  54.493  1.00  0.00     0.041 A 
HETATM   18  C   UNL     1      29.616  44.000  54.946  1.00  0.00     0.035 A 
HETATM   19  C   UNL     1      29.707  42.705  54.435  1.00  0.00     0.030 A 
HETATM   20 CL   UNL     1      30.733  44.521  56.148  1.00  0.00    -0.084 Cl
HETATM   21  C   UNL     1      28.819  42.280  53.443  1.00  0.00    -0.059 A 
HETATM   22  C   UNL     1      28.903  40.893  52.878  1.00  0.00     0.048 C 
HETATM   23  C   UNL     1      27.817  43.159  53.006  1.00  0.00     0.024 A 
ENDBRANCH   1  16
TORSDOF 3
ENDMDL
MODEL 6
REMARK VINA RESULT:      -7.7      4.843      7.349
REMARK  3 active torsions:
REMARK  status: ('A' for Active; 'I' for Inactive)
REMARK    1  A    between atoms: C_7  and  C_8 
REMARK       I    between atoms: C_8  and  N_9 
REMARK    2  A    between atoms: N_9  and  C_10 
REMARK    3  A    between atoms: C_13  and  C_14 
REMARK       I    between atoms: C_14  and  N_15 
ROOT
HETATM    1  C   UNL     1      26.761  45.157  52.703  1.00  0.00     0.256 C 
HETATM    2  N   UNL     1      26.642  45.324  51.334  1.00  0.00    -0.322 N 
HETATM    3  O   UNL     1      26.103  45.754  53.548  1.00  0.00    -0.267 OA
HETATM    4  H   UNL     1      27.306  44.854  50.737  1.00  0.00     0.169 HD
ENDROOT
BRANCH   2   5
HETATM    5  C   UNL     1      25.688  46.128  50.669  1.00  0.00     0.052 A 
HETATM    6  C   UNL     1      25.770  47.511  50.510  1.00  0.00     0.147 A 
HETATM    7  N   UNL     1      24.833  48.268  49.883  1.00  0.00    -0.253 NA
HETATM    8  C   UNL     1      23.751  47.607  49.390  1.00  0.00     0.124 A 
HETATM    9  C   UNL     1      23.574  46.235  49.493  1.00  0.00     0.039 A 
HETATM   10  C   UNL     1      24.561  45.490  50.140  1.00  0.00     0.033 A 
BRANCH   8  11
HETATM   11  C   UNL     1      22.713  48.443  48.710  1.00  0.00     0.268 C 
HETATM   12  N   UNL     1      21.531  48.571  49.388  1.00  0.00    -0.365 N 
HETATM   13  H   UNL     1      21.421  48.105  50.283  1.00  0.00     0.159 HD
HETATM   14  H   UNL     1      20.780  49.116  48.993  1.00  0.00     0.159 HD
HETATM   15  O   UNL     1      22.902  48.979  47.625  1.00  0.00    -0.266 OA
ENDBRANCH   8  11
ENDBRANCH   2   5
BRANCH   1  16
HETATM   16  C   UNL     1      27.792  44.178  53.170  1.00  0.00     0.034 A 
HETATM   17  C   UNL     1      27.887  42.877  52.665  1.00  0.00     0.041 A 
HETATM   18  C   UNL     1      28.866  42.014  53.161  1.00  0.00     0.035 A 
HETATM   19  C   UNL     1      29.739  42.421  54.169  1.00  0.00     0.030 A 
HETATM   20 CL   UNL     1      28.990  40.420  52.522  1.00  0.00    -0.084 Cl
HETATM   21  C   UNL     1      29.632  43.706  54.710  1.00  0.00    -0.059 A 
HETATM   22  C   UNL     1      30.559  44.163  55.798  1.00  0.00     0.048 C 
HETATM   23  C   UNL     1      28.666  44.582  54.194  1.00  0.00     0.024 A 
ENDBRANCH   1  16
TORSDOF 3
ENDMDL
MODEL 7
REMARK VINA RESULT:      -7.5     10.536     11.660
REMARK  3 active torsions:
REMARK  status: ('A' for Active; 'I' for Inactive)
REMARK    1  A    between atoms: C_7  and  C_8 
REMARK       I    between atoms: C_8  and  N_9 
REMARK    2  A    between atoms: N_9  and  C_10 
REMARK    3  A    between atoms: C_13  and  C_14 
REMARK       I    between atoms: C_14  and  N_15 
ROOT
HETATM    1  C   UNL     1      28.409  42.137  53.368  1.00  0.00     0.256 C 
HETATM    2  N   UNL     1      27.972  42.556  52.123  1.00  0.00    -0.322 N 
HETATM    3  O   UNL     1      28.375  40.983  53.779  1.00  0.00    -0.267 OA
HETATM    4  H   UNL     1      27.954  43.547  51.932  1.00  0.00     0.169 HD
ENDROOT
BRANCH   2   5
HETATM    5  C   UNL     1      27.504  41.726  51.078  1.00  0.00     0.052 A 
HETATM    6  C   UNL     1      28.279  40.811  50.367  1.00  0.00     0.147 A 
HETATM    7  N   UNL     1      27.813  40.036  49.353  1.00  0.00    -0.253 NA
HETATM    8  C   UNL     1      26.501  40.186  49.030  1.00  0.00     0.124 A 
HETATM    9  C   UNL     1      25.644  41.066  49.676  1.00  0.00     0.039 A 
HETATM   10  C   UNL     1      26.158  41.842  50.715  1.00  0.00     0.033 A 
BRANCH   8  11
HETATM   11  C   UNL     1      25.992  39.340  47.905  1.00  0.00     0.268 C 
HETATM   12  N   UNL     1      24.648  39.438  47.664  1.00  0.00    -0.365 N 
HETATM   13  H   UNL     1      24.084  40.052  48.242  1.00  0.00     0.159 HD
HETATM   14  H   UNL     1      24.227  38.896  46.924  1.00  0.00     0.159 HD
HETATM   15  O   UNL     1      26.720  38.613  47.242  1.00  0.00    -0.266 OA
ENDBRANCH   8  11
ENDBRANCH   2   5
BRANCH   1  16
HETATM   16  C   UNL     1      28.948  43.196  54.278  1.00  0.00     0.034 A 
HETATM   17  C   UNL     1      28.429  44.494  54.324  1.00  0.00     0.041 A 
HETATM   18  C   UNL     1      28.995  45.433  55.188  1.00  0.00     0.035 A 
HETATM   19  C   UNL     1      30.086  45.105  55.992  1.00  0.00     0.030 A 
HETATM   20 CL   UNL     1      28.339  47.024  55.254  1.00  0.00    -0.084 Cl
HETATM   21  C   UNL     1      30.640  43.823  55.929  1.00  0.00    -0.059 A 
HETATM   22  C   UNL     1      31.816  43.449  56.783  1.00  0.00     0.048 C 
HETATM   23  C   UNL     1      30.056  42.871  55.081  1.00  0.00     0.024 A 
ENDBRANCH   1  16
TORSDOF 3
ENDMDL
MODEL 8
REMARK VINA RESULT:      -7.4     10.765     12.335
REMARK  3 active torsions:
REMARK  status: ('A' for Active; 'I' for Inactive)
REMARK    1  A    between atoms: C_7  and  C_8 
REMARK       I    between atoms: C_8  and  N_9 
REMARK    2  A    between atoms: N_9  and  C_10 
REMARK    3  A    between atoms: C_13  and  C_14 
REMARK       I    between atoms: C_14  and  N_15 
ROOT
HETATM    1  C   UNL     1      28.791  43.079  52.736  1.00  0.00     0.256 C 
HETATM    2  N   UNL     1      28.556  41.718  52.820  1.00  0.00    -0.322 N 
HETATM    3  O   UNL     1      28.737  43.745  51.708  1.00  0.00    -0.267 OA
HETATM    4  H   UNL     1      28.729  41.257  53.701  1.00  0.00     0.169 HD
ENDROOT
BRANCH   2   5
HETATM    5  C   UNL     1      28.122  40.877  51.769  1.00  0.00     0.052 A 
HETATM    6  C   UNL     1      26.843  40.877  51.213  1.00  0.00     0.147 A 
HETATM    7  N   UNL     1      26.441  40.047  50.215  1.00  0.00    -0.253 NA
HETATM    8  C   UNL     1      27.367  39.168  49.749  1.00  0.00     0.124 A 
HETATM    9  C   UNL     1      28.665  39.088  50.231  1.00  0.00     0.039 A 
HETATM   10  C   UNL     1      29.043  39.960  51.253  1.00  0.00     0.033 A 
BRANCH   8  11
HETATM   11  C   UNL     1      26.919  38.246  48.658  1.00  0.00     0.268 C 
HETATM   12  N   UNL     1      26.113  37.215  49.059  1.00  0.00    -0.365 N 
HETATM   13  H   UNL     1      25.872  37.128  50.041  1.00  0.00     0.159 HD
HETATM   14  H   UNL     1      25.772  36.549  48.383  1.00  0.00     0.159 HD
HETATM   15  O   UNL     1      27.246  38.398  47.487  1.00  0.00    -0.266 OA
ENDBRANCH   8  11
ENDBRANCH   2   5
BRANCH   1  16
HETATM   16  C   UNL     1      29.155  43.774  54.010  1.00  0.00     0.034 A 
HETATM   17  C   UNL     1      28.498  44.922  54.464  1.00  0.00     0.041 A 
HETATM   18  C   UNL     1      28.904  45.525  55.655  1.00  0.00     0.035 A 
HETATM   19  C   UNL     1      29.971  45.013  56.392  1.00  0.00     0.030 A 
HETATM   20 CL   UNL     1      28.078  46.927  56.218  1.00  0.00    -0.084 Cl
HETATM   21  C   UNL     1      30.663  43.888  55.933  1.00  0.00    -0.059 A 
HETATM   22  C   UNL     1      31.816  43.323  56.709  1.00  0.00     0.048 C 
HETATM   23  C   UNL     1      30.239  43.266  54.749  1.00  0.00     0.024 A 
ENDBRANCH   1  16
TORSDOF 3
ENDMDL
MODEL 9
REMARK VINA RESULT:      -7.4     10.438     12.048
REMARK  3 active torsions:
REMARK  status: ('A' for Active; 'I' for Inactive)
REMARK    1  A    between atoms: C_7  and  C_8 
REMARK       I    between atoms: C_8  and  N_9 
REMARK    2  A    between atoms: N_9  and  C_10 
REMARK    3  A    between atoms: C_13  and  C_14 
REMARK       I    between atoms: C_14  and  N_15 
ROOT
HETATM    1  C   UNL     1      28.482  43.069  52.462  1.00  0.00     0.256 C 
HETATM    2  N   UNL     1      28.455  41.686  52.488  1.00  0.00    -0.322 N 
HETATM    3  O   UNL     1      28.150  43.766  51.509  1.00  0.00    -0.267 OA
HETATM    4  H   UNL     1      28.848  41.216  53.291  1.00  0.00     0.169 HD
ENDROOT
BRANCH   2   5
HETATM    5  C   UNL     1      27.954  40.839  51.473  1.00  0.00     0.052 A 
HETATM    6  C   UNL     1      26.639  40.830  51.008  1.00  0.00     0.147 A 
HETATM    7  N   UNL     1      26.173  39.994  50.043  1.00  0.00    -0.253 NA
HETATM    8  C   UNL     1      27.070  39.118  49.516  1.00  0.00     0.124 A 
HETATM    9  C   UNL     1      28.399  39.048  49.907  1.00  0.00     0.039 A 
HETATM   10  C   UNL     1      28.842  39.925  50.898  1.00  0.00     0.033 A 
BRANCH   8  11
HETATM   11  C   UNL     1      26.553  38.189  48.462  1.00  0.00     0.268 C 
HETATM   12  N   UNL     1      26.033  37.012  48.926  1.00  0.00    -0.365 N 
HETATM   13  H   UNL     1      26.028  36.832  49.925  1.00  0.00     0.159 HD
HETATM   14  H   UNL     1      25.667  36.332  48.278  1.00  0.00     0.159 HD
HETATM   15  O   UNL     1      26.589  38.459  47.268  1.00  0.00    -0.266 OA
ENDBRANCH   8  11
ENDBRANCH   2   5
BRANCH   1  16
HETATM   16  C   UNL     1      28.976  43.752  53.698  1.00  0.00     0.034 A 
HETATM   17  C   UNL     1      29.989  43.222  54.505  1.00  0.00     0.041 A 
HETATM   18  C   UNL     1      30.387  43.910  55.653  1.00  0.00     0.035 A 
HETATM   19  C   UNL     1      29.776  45.108  56.022  1.00  0.00     0.030 A 
HETATM   20 CL   UNL     1      31.646  43.262  56.632  1.00  0.00    -0.084 Cl
HETATM   21  C   UNL     1      28.737  45.631  55.246  1.00  0.00    -0.059 A 
HETATM   22  C   UNL     1      28.064  46.917  55.626  1.00  0.00     0.048 C 
HETATM   23  C   UNL     1      28.354  44.955  54.078  1.00  0.00     0.024 A 
ENDBRANCH   1  16
TORSDOF 3
ENDMDL
MODEL 10
REMARK VINA RESULT:      -7.3      8.052      9.910
REMARK  3 active torsions:
REMARK  status: ('A' for Active; 'I' for Inactive)
REMARK    1  A    between atoms: C_7  and  C_8 
REMARK       I    between atoms: C_8  and  N_9 
REMARK    2  A    between atoms: N_9  and  C_10 
REMARK    3  A    between atoms: C_13  and  C_14 
REMARK       I    between atoms: C_14  and  N_15 
ROOT
HETATM    1  C   UNL     1      28.785  43.820  53.381  1.00  0.00     0.256 C 
HETATM    2  N   UNL     1      27.523  44.321  53.115  1.00  0.00    -0.322 N 
HETATM    3  O   UNL     1      29.428  43.088  52.636  1.00  0.00    -0.267 OA
HETATM    4  H   UNL     1      27.048  44.831  53.846  1.00  0.00     0.169 HD
ENDROOT
BRANCH   2   5
HETATM    5  C   UNL     1      26.796  44.163  51.913  1.00  0.00     0.052 A 
HETATM    6  C   UNL     1      27.284  44.432  50.634  1.00  0.00     0.147 A 
HETATM    7  N   UNL     1      26.562  44.290  49.492  1.00  0.00    -0.253 NA
HETATM    8  C   UNL     1      25.281  43.859  49.635  1.00  0.00     0.124 A 
HETATM    9  C   UNL     1      24.700  43.562  50.860  1.00  0.00     0.039 A 
HETATM   10  C   UNL     1      25.474  43.715  52.011  1.00  0.00     0.033 A 
BRANCH   8  11
HETATM   11  C   UNL     1      24.482  43.715  48.378  1.00  0.00     0.268 C 
HETATM   12  N   UNL     1      24.746  42.589  47.645  1.00  0.00    -0.365 N 
HETATM   13  H   UNL     1      25.447  41.935  47.977  1.00  0.00     0.159 HD
HETATM   14  H   UNL     1      24.252  42.421  46.782  1.00  0.00     0.159 HD
HETATM   15  O   UNL     1      23.650  44.540  48.024  1.00  0.00    -0.266 OA
ENDBRANCH   8  11
ENDBRANCH   2   5
BRANCH   1  16
HETATM   16  C   UNL     1      29.391  44.199  54.696  1.00  0.00     0.034 A 
HETATM   17  C   UNL     1      30.524  43.568  55.220  1.00  0.00     0.041 A 
HETATM   18  C   UNL     1      31.024  43.966  56.461  1.00  0.00     0.035 A 
HETATM   19  C   UNL     1      30.399  44.970  57.199  1.00  0.00     0.030 A 
HETATM   20 CL   UNL     1      32.430  43.198  57.092  1.00  0.00    -0.084 Cl
HETATM   21  C   UNL     1      29.244  45.584  56.706  1.00  0.00    -0.059 A 
HETATM   22  C   UNL     1      28.554  46.665  57.485  1.00  0.00     0.048 C 
HETATM   23  C   UNL     1      28.756  45.204  55.447  1.00  0.00     0.024 A 
ENDBRANCH   1  16
TORSDOF 3
ENDMDL
