MODEL 1
REMARK VINA RESULT:      -7.9      0.000      0.000
REMARK  5 active torsions:
REMARK  status: ('A' for Active; 'I' for Inactive)
REMARK    1  A    between atoms: C_6  and  C_7 
REMARK    2  A    between atoms: N_10  and  C_12 
REMARK    3  A    between atoms: C_12  and  C_13 
REMARK    4  A    between atoms: C_14  and  N_15 
REMARK    5  A    between atoms: N_15  and  C_16 
ROOT
HETATM    1  C   UNL     1      28.445  42.459  52.880  1.00  0.00    -0.006 A 
HETATM    2  C   UNL     1      27.838  43.650  53.345  1.00  0.00     0.038 A 
HETATM    3  C   UNL     1      28.538  44.441  54.279  1.00  0.00     0.030 A 
HETATM    4  C   UNL     1      29.836  44.122  54.673  1.00  0.00     0.002 A 
HETATM    5  C   UNL     1      30.467  43.011  54.135  1.00  0.00     0.001 A 
HETATM    6  C   UNL     1      29.782  42.189  53.241  1.00  0.00     0.011 A 
ENDROOT
BRANCH   1   7
HETATM    7  C   UNL     1      27.674  41.489  52.010  1.00  0.00     0.275 C 
BRANCH   7   8
HETATM    8  N   UNL     1      28.492  40.721  50.973  1.00  0.00    -0.067 N 
HETATM    9  C   UNL     1      28.784  39.297  51.384  1.00  0.00     0.236 C 
HETATM   10  C   UNL     1      29.721  38.651  50.368  1.00  0.00     0.038 C 
HETATM   11  C   UNL     1      29.256  38.762  48.907  1.00  0.00     0.040 C 
HETATM   12  C   UNL     1      28.789  40.188  48.581  1.00  0.00     0.038 C 
HETATM   13  C   UNL     1      27.828  40.755  49.617  1.00  0.00     0.236 C 
HETATM   14  H   UNL     1      29.385  41.215  50.885  1.00  0.00     0.280 HD
BRANCH  11  15
HETATM   15  C   UNL     1      28.218  37.740  48.522  1.00  0.00     0.035 A 
HETATM   16  N   UNL     1      28.182  37.142  47.274  1.00  0.00    -0.278 N 
HETATM   17  C   UNL     1      29.109  37.301  46.174  1.00  0.00     0.179 C 
HETATM   18  N   UNL     1      27.134  36.320  47.112  1.00  0.00    -0.185 NA
HETATM   19  C   UNL     1      26.555  36.281  48.307  1.00  0.00     0.141 A 
HETATM   20  C   UNL     1      27.182  37.145  49.221  1.00  0.00     0.048 A 
ENDBRANCH  11  15
ENDBRANCH   7   8
ENDBRANCH   1   7
BRANCH   2  21
HETATM   21  N   UNL     1      26.574  44.061  52.860  1.00  0.00    -0.380 N 
HETATM   22  C   UNL     1      25.517  44.024  53.877  1.00  0.00     0.150 C 
BRANCH  21  23
HETATM   23  C   UNL     1      26.618  45.143  51.829  1.00  0.00     0.087 C 
HETATM   24  C   UNL     1      25.322  45.943  51.633  1.00  0.00     0.053 C 
HETATM   25  C   UNL     1      24.319  45.269  50.717  1.00  0.00     0.236 C 
HETATM   26  N   UNL     1      24.969  44.995  49.386  1.00  0.00    -0.075 N 
HETATM   27  H   UNL     1      25.284  45.895  48.994  1.00  0.00     0.279 HD
HETATM   28  C   UNL     1      23.970  44.459  48.386  1.00  0.00     0.269 C 
HETATM   29  C   UNL     1      26.167  44.094  49.513  1.00  0.00     0.236 C 
HETATM   30  C   UNL     1      27.190  44.688  50.476  1.00  0.00     0.053 C 
ENDBRANCH  21  23
ENDBRANCH   2  21
TORSDOF 5
ENDMDL
MODEL 2
REMARK VINA RESULT:      -7.7      7.534     12.047
REMARK  5 active torsions:
REMARK  status: ('A' for Active; 'I' for Inactive)
REMARK    1  A    between atoms: C_6  and  C_7 
REMARK    2  A    between atoms: N_10  and  C_12 
REMARK    3  A    between atoms: C_12  and  C_13 
REMARK    4  A    between atoms: C_14  and  N_15 
REMARK    5  A    between atoms: N_15  and  C_16 
ROOT
HETATM    1  C   UNL     1      18.378  50.586  49.621  1.00  0.00    -0.006 A 
HETATM    2  C   UNL     1      17.364  50.017  48.814  1.00  0.00     0.038 A 
HETATM    3  C   UNL     1      16.207  50.779  48.552  1.00  0.00     0.030 A 
HETATM    4  C   UNL     1      16.089  52.096  48.990  1.00  0.00     0.002 A 
HETATM    5  C   UNL     1      17.130  52.685  49.691  1.00  0.00     0.001 A 
HETATM    6  C   UNL     1      18.268  51.941  50.000  1.00  0.00     0.011 A 
ENDROOT
BRANCH   1   7
HETATM    7  C   UNL     1      19.561  49.756  50.073  1.00  0.00     0.275 C 
BRANCH   7   8
HETATM    8  N   UNL     1      20.807  49.827  49.191  1.00  0.00    -0.067 N 
HETATM    9  C   UNL     1      21.926  50.632  49.808  1.00  0.00     0.236 C 
HETATM   10  C   UNL     1      23.069  50.774  48.808  1.00  0.00     0.038 C 
HETATM   11  C   UNL     1      23.557  49.448  48.203  1.00  0.00     0.040 C 
HETATM   12  C   UNL     1      22.376  48.574  47.757  1.00  0.00     0.038 C 
HETATM   13  C   UNL     1      21.292  48.447  48.817  1.00  0.00     0.236 C 
HETATM   14  H   UNL     1      20.522  50.292  48.324  1.00  0.00     0.280 HD
BRANCH  11  15
HETATM   15  C   UNL     1      24.502  48.686  49.095  1.00  0.00     0.035 A 
HETATM   16  N   UNL     1      25.870  48.902  49.097  1.00  0.00    -0.278 N 
HETATM   17  C   UNL     1      26.625  49.886  48.353  1.00  0.00     0.179 C 
HETATM   18  N   UNL     1      26.535  48.066  49.909  1.00  0.00    -0.185 NA
HETATM   19  C   UNL     1      25.583  47.386  50.539  1.00  0.00     0.141 A 
HETATM   20  C   UNL     1      24.302  47.726  50.073  1.00  0.00     0.048 A 
ENDBRANCH  11  15
ENDBRANCH   7   8
ENDBRANCH   1   7
BRANCH   2  21
HETATM   21  N   UNL     1      17.519  48.728  48.252  1.00  0.00    -0.380 N 
HETATM   22  C   UNL     1      16.945  47.657  49.074  1.00  0.00     0.150 C 
BRANCH  21  23
HETATM   23  C   UNL     1      17.444  48.681  46.759  1.00  0.00     0.087 C 
HETATM   24  C   UNL     1      16.529  47.601  46.162  1.00  0.00     0.053 C 
HETATM   25  C   UNL     1      17.181  46.237  46.057  1.00  0.00     0.236 C 
HETATM   26  N   UNL     1      18.447  46.353  45.249  1.00  0.00    -0.075 N 
HETATM   27  H   UNL     1      18.198  46.718  44.318  1.00  0.00     0.279 HD
HETATM   28  C   UNL     1      19.060  44.995  44.988  1.00  0.00     0.269 C 
HETATM   29  C   UNL     1      19.436  47.298  45.875  1.00  0.00     0.236 C 
HETATM   30  C   UNL     1      18.817  48.678  46.067  1.00  0.00     0.053 C 
ENDBRANCH  21  23
ENDBRANCH   2  21
TORSDOF 5
ENDMDL
MODEL 3
REMARK VINA RESULT:      -7.6      2.811      7.582
REMARK  5 active torsions:
REMARK  status: ('A' for Active; 'I' for Inactive)
REMARK    1  A    between atoms: C_6  and  C_7 
REMARK    2  A    between atoms: N_10  and  C_12 
REMARK    3  A    between atoms: C_12  and  C_13 
REMARK    4  A    between atoms: C_14  and  N_15 
REMARK    5  A    between atoms: N_15  and  C_16 
ROOT
HETATM    1  C   UNL     1      27.920  43.461  51.857  1.00  0.00    -0.006 A 
HETATM    2  C   UNL     1      27.962  42.052  51.728  1.00  0.00     0.038 A 
HETATM    3  C   UNL     1      28.400  41.289  52.830  1.00  0.00     0.030 A 
HETATM    4  C   UNL     1      28.698  41.884  54.054  1.00  0.00     0.002 A 
HETATM    5  C   UNL     1      28.554  43.255  54.207  1.00  0.00     0.001 A 
HETATM    6  C   UNL     1      28.163  44.038  53.122  1.00  0.00     0.011 A 
ENDROOT
BRANCH   1   7
HETATM    7  C   UNL     1      27.621  44.337  50.659  1.00  0.00     0.275 C 
BRANCH   7   8
HETATM    8  N   UNL     1      26.321  45.137  50.720  1.00  0.00    -0.067 N 
HETATM    9  C   UNL     1      26.491  46.499  51.349  1.00  0.00     0.236 C 
HETATM   10  C   UNL     1      25.129  47.168  51.503  1.00  0.00     0.038 C 
HETATM   11  C   UNL     1      24.288  47.211  50.217  1.00  0.00     0.040 C 
HETATM   12  C   UNL     1      24.294  45.851  49.505  1.00  0.00     0.038 C 
HETATM   13  C   UNL     1      25.689  45.261  49.354  1.00  0.00     0.236 C 
HETATM   14  H   UNL     1      25.675  44.596  51.303  1.00  0.00     0.280 HD
BRANCH  11  15
HETATM   15  C   UNL     1      24.672  48.327  49.279  1.00  0.00     0.035 A 
HETATM   16  N   UNL     1      23.756  48.968  48.462  1.00  0.00    -0.278 N 
HETATM   17  C   UNL     1      22.324  48.773  48.392  1.00  0.00     0.179 C 
HETATM   18  N   UNL     1      24.319  49.877  47.651  1.00  0.00    -0.185 NA
HETATM   19  C   UNL     1      25.590  49.921  48.032  1.00  0.00     0.141 A 
HETATM   20  C   UNL     1      25.869  48.979  49.037  1.00  0.00     0.048 A 
ENDBRANCH  11  15
ENDBRANCH   7   8
ENDBRANCH   1   7
BRANCH   2  21
HETATM   21  N   UNL     1      27.542  41.417  50.535  1.00  0.00    -0.380 N 
HETATM   22  C   UNL     1      28.644  40.835  49.762  1.00  0.00     0.150 C 
BRANCH  21  23
HETATM   23  C   UNL     1      26.213  40.736  50.622  1.00  0.00     0.087 C 
HETATM   24  C   UNL     1      26.089  39.401  49.872  1.00  0.00     0.053 C 
HETATM   25  C   UNL     1      25.786  39.555  48.395  1.00  0.00     0.236 C 
HETATM   26  N   UNL     1      24.527  40.366  48.229  1.00  0.00    -0.075 N 
HETATM   27  H   UNL     1      23.764  39.873  48.715  1.00  0.00     0.279 HD
HETATM   28  C   UNL     1      24.097  40.424  46.780  1.00  0.00     0.269 C 
HETATM   29  C   UNL     1      24.653  41.740  48.827  1.00  0.00     0.236 C 
HETATM   30  C   UNL     1      25.022  41.655  50.303  1.00  0.00     0.053 C 
ENDBRANCH  21  23
ENDBRANCH   2  21
TORSDOF 5
ENDMDL
MODEL 4
REMARK VINA RESULT:      -7.5      7.559     12.432
REMARK  5 active torsions:
REMARK  status: ('A' for Active; 'I' for Inactive)
REMARK    1  A    between atoms: C_6  and  C_7 
REMARK    2  A    between atoms: N_10  and  C_12 
REMARK    3  A    between atoms: C_12  and  C_13 
REMARK    4  A    between atoms: C_14  and  N_15 
REMARK    5  A    between atoms: N_15  and  C_16 
ROOT
HETATM    1  C   UNL     1      18.391  50.687  49.629  1.00  0.00    -0.006 A 
HETATM    2  C   UNL     1      17.404  50.100  48.802  1.00  0.00     0.038 A 
HETATM    3  C   UNL     1      16.239  50.840  48.516  1.00  0.00     0.030 A 
HETATM    4  C   UNL     1      16.088  52.155  48.952  1.00  0.00     0.002 A 
HETATM    5  C   UNL     1      17.103  52.763  49.674  1.00  0.00     0.001 A 
HETATM    6  C   UNL     1      18.248  52.040  50.006  1.00  0.00     0.011 A 
ENDROOT
BRANCH   1   7
HETATM    7  C   UNL     1      19.580  49.879  50.105  1.00  0.00     0.275 C 
BRANCH   7   8
HETATM    8  N   UNL     1      20.824  49.931  49.220  1.00  0.00    -0.067 N 
HETATM    9  C   UNL     1      21.963  50.703  49.843  1.00  0.00     0.236 C 
HETATM   10  C   UNL     1      23.107  50.830  48.841  1.00  0.00     0.038 C 
HETATM   11  C   UNL     1      23.563  49.500  48.219  1.00  0.00     0.040 C 
HETATM   12  C   UNL     1      22.360  48.658  47.767  1.00  0.00     0.038 C 
HETATM   13  C   UNL     1      21.277  48.544  48.829  1.00  0.00     0.236 C 
HETATM   14  H   UNL     1      20.547  50.412  48.360  1.00  0.00     0.280 HD
BRANCH  11  15
HETATM   15  C   UNL     1      24.492  48.706  49.101  1.00  0.00     0.035 A 
HETATM   16  N   UNL     1      25.864  48.896  49.106  1.00  0.00    -0.278 N 
HETATM   17  C   UNL     1      26.638  49.877  48.377  1.00  0.00     0.179 C 
HETATM   18  N   UNL     1      26.512  48.035  49.905  1.00  0.00    -0.185 NA
HETATM   19  C   UNL     1      25.547  47.365  50.524  1.00  0.00     0.141 A 
HETATM   20  C   UNL     1      24.273  47.736  50.063  1.00  0.00     0.048 A 
ENDBRANCH  11  15
ENDBRANCH   7   8
ENDBRANCH   1   7
BRANCH   2  21
HETATM   21  N   UNL     1      17.594  48.814  48.242  1.00  0.00    -0.380 N 
HETATM   22  C   UNL     1      16.548  47.854  48.612  1.00  0.00     0.150 C 
BRANCH  21  23
HETATM   23  C   UNL     1      18.203  48.808  46.876  1.00  0.00     0.087 C 
HETATM   24  C   UNL     1      18.870  50.116  46.427  1.00  0.00     0.053 C 
HETATM   25  C   UNL     1      17.900  51.137  45.866  1.00  0.00     0.236 C 
HETATM   26  N   UNL     1      17.139  50.520  44.721  1.00  0.00    -0.075 N 
HETATM   27  H   UNL     1      17.822  50.225  44.008  1.00  0.00     0.279 HD
HETATM   28  C   UNL     1      16.264  51.540  44.029  1.00  0.00     0.269 C 
HETATM   29  C   UNL     1      16.353  49.311  45.147  1.00  0.00     0.236 C 
HETATM   30  C   UNL     1      17.266  48.268  45.782  1.00  0.00     0.053 C 
ENDBRANCH  21  23
ENDBRANCH   2  21
TORSDOF 5
ENDMDL
MODEL 5
REMARK VINA RESULT:      -7.3      4.997      9.201
REMARK  5 active torsions:
REMARK  status: ('A' for Active; 'I' for Inactive)
REMARK    1  A    between atoms: C_6  and  C_7 
REMARK    2  A    between atoms: N_10  and  C_12 
REMARK    3  A    between atoms: C_12  and  C_13 
REMARK    4  A    between atoms: C_14  and  N_15 
REMARK    5  A    between atoms: N_15  and  C_16 
ROOT
HETATM    1  C   UNL     1      22.337  48.466  48.632  1.00  0.00    -0.006 A 
HETATM    2  C   UNL     1      21.032  48.950  48.890  1.00  0.00     0.038 A 
HETATM    3  C   UNL     1      20.807  50.340  48.828  1.00  0.00     0.030 A 
HETATM    4  C   UNL     1      21.810  51.223  48.432  1.00  0.00     0.002 A 
HETATM    5  C   UNL     1      23.058  50.733  48.079  1.00  0.00     0.001 A 
HETATM    6  C   UNL     1      23.320  49.367  48.171  1.00  0.00     0.011 A 
ENDROOT
BRANCH   1   7
HETATM    7  C   UNL     1      22.675  47.006  48.848  1.00  0.00     0.275 C 
BRANCH   7   8
HETATM    8  N   UNL     1      24.122  46.700  49.230  1.00  0.00    -0.067 N 
HETATM    9  C   UNL     1      24.581  47.448  50.460  1.00  0.00     0.236 C 
HETATM   10  C   UNL     1      26.069  47.201  50.686  1.00  0.00     0.038 C 
HETATM   11  C   UNL     1      26.475  45.719  50.708  1.00  0.00     0.040 C 
HETATM   12  C   UNL     1      25.833  44.950  49.544  1.00  0.00     0.038 C 
HETATM   13  C   UNL     1      24.342  45.216  49.401  1.00  0.00     0.236 C 
HETATM   14  H   UNL     1      24.700  47.003  48.441  1.00  0.00     0.280 HD
BRANCH  11  15
HETATM   15  C   UNL     1      26.215  45.039  52.028  1.00  0.00     0.035 A 
HETATM   16  N   UNL     1      27.085  44.113  52.578  1.00  0.00    -0.278 N 
HETATM   17  C   UNL     1      28.374  43.684  52.080  1.00  0.00     0.179 C 
HETATM   18  N   UNL     1      26.627  43.572  53.718  1.00  0.00    -0.185 NA
HETATM   19  C   UNL     1      25.513  44.244  53.981  1.00  0.00     0.141 A 
HETATM   20  C   UNL     1      25.204  45.165  52.966  1.00  0.00     0.048 A 
ENDBRANCH  11  15
ENDBRANCH   7   8
ENDBRANCH   1   7
BRANCH   2  21
HETATM   21  N   UNL     1      19.967  48.061  49.168  1.00  0.00    -0.380 N 
HETATM   22  C   UNL     1      19.086  48.523  50.246  1.00  0.00     0.150 C 
BRANCH  21  23
HETATM   23  C   UNL     1      19.420  47.343  47.975  1.00  0.00     0.087 C 
HETATM   24  C   UNL     1      19.088  48.216  46.756  1.00  0.00     0.053 C 
HETATM   25  C   UNL     1      17.730  48.884  46.834  1.00  0.00     0.236 C 
HETATM   26  N   UNL     1      16.670  47.832  47.026  1.00  0.00    -0.075 N 
HETATM   27  H   UNL     1      16.718  47.181  46.228  1.00  0.00     0.279 HD
HETATM   28  C   UNL     1      15.282  48.429  46.961  1.00  0.00     0.269 C 
HETATM   29  C   UNL     1      16.876  47.042  48.289  1.00  0.00     0.236 C 
HETATM   30  C   UNL     1      18.256  46.394  48.301  1.00  0.00     0.053 C 
ENDBRANCH  21  23
ENDBRANCH   2  21
TORSDOF 5
ENDMDL
MODEL 6
REMARK VINA RESULT:      -7.2      2.468      7.897
REMARK  5 active torsions:
REMARK  status: ('A' for Active; 'I' for Inactive)
REMARK    1  A    between atoms: C_6  and  C_7 
REMARK    2  A    between atoms: N_10  and  C_12 
REMARK    3  A    between atoms: C_12  and  C_13 
REMARK    4  A    between atoms: C_14  and  N_15 
REMARK    5  A    between atoms: N_15  and  C_16 
ROOT
HETATM    1  C   UNL     1      27.544  43.158  51.494  1.00  0.00    -0.006 A 
HETATM    2  C   UNL     1      27.684  41.750  51.482  1.00  0.00     0.038 A 
HETATM    3  C   UNL     1      28.279  41.124  52.597  1.00  0.00     0.030 A 
HETATM    4  C   UNL     1      28.640  41.849  53.731  1.00  0.00     0.002 A 
HETATM    5  C   UNL     1      28.405  43.214  53.780  1.00  0.00     0.001 A 
HETATM    6  C   UNL     1      27.856  43.865  52.676  1.00  0.00     0.011 A 
ENDROOT
BRANCH   1   7
HETATM    7  C   UNL     1      27.069  43.897  50.261  1.00  0.00     0.275 C 
BRANCH   7   8
HETATM    8  N   UNL     1      25.956  44.921  50.478  1.00  0.00    -0.067 N 
HETATM    9  C   UNL     1      26.445  46.204  51.106  1.00  0.00     0.236 C 
HETATM   10  C   UNL     1      25.257  47.108  51.421  1.00  0.00     0.038 C 
HETATM   11  C   UNL     1      24.308  47.352  50.237  1.00  0.00     0.040 C 
HETATM   12  C   UNL     1      23.982  46.040  49.508  1.00  0.00     0.038 C 
HETATM   13  C   UNL     1      25.217  45.208  49.193  1.00  0.00     0.236 C 
HETATM   14  H   UNL     1      25.287  44.488  51.122  1.00  0.00     0.280 HD
BRANCH  11  15
HETATM   15  C   UNL     1      24.792  48.410  49.280  1.00  0.00     0.035 A 
HETATM   16  N   UNL     1      23.939  49.114  48.447  1.00  0.00    -0.278 N 
HETATM   17  C   UNL     1      22.496  49.047  48.374  1.00  0.00     0.179 C 
HETATM   18  N   UNL     1      24.583  49.954  47.621  1.00  0.00    -0.185 NA
HETATM   19  C   UNL     1      25.852  49.892  48.006  1.00  0.00     0.141 A 
HETATM   20  C   UNL     1      26.043  48.948  49.030  1.00  0.00     0.048 A 
ENDBRANCH  11  15
ENDBRANCH   7   8
ENDBRANCH   1   7
BRANCH   2  21
HETATM   21  N   UNL     1      27.207  40.980  50.395  1.00  0.00    -0.380 N 
HETATM   22  C   UNL     1      25.775  41.160  50.134  1.00  0.00     0.150 C 
BRANCH  21  23
HETATM   23  C   UNL     1      28.182  40.804  49.275  1.00  0.00     0.087 C 
HETATM   24  C   UNL     1      27.633  41.036  47.859  1.00  0.00     0.053 C 
HETATM   25  C   UNL     1      26.919  39.833  47.275  1.00  0.00     0.236 C 
HETATM   26  N   UNL     1      27.851  38.650  47.285  1.00  0.00    -0.075 N 
HETATM   27  H   UNL     1      28.683  38.895  46.728  1.00  0.00     0.279 HD
HETATM   28  C   UNL     1      27.241  37.461  46.577  1.00  0.00     0.269 C 
HETATM   29  C   UNL     1      28.305  38.296  48.675  1.00  0.00     0.236 C 
HETATM   30  C   UNL     1      28.977  39.490  49.344  1.00  0.00     0.053 C 
ENDBRANCH  21  23
ENDBRANCH   2  21
TORSDOF 5
ENDMDL
MODEL 7
REMARK VINA RESULT:      -7.2      6.660     10.542
REMARK  5 active torsions:
REMARK  status: ('A' for Active; 'I' for Inactive)
REMARK    1  A    between atoms: C_6  and  C_7 
REMARK    2  A    between atoms: N_10  and  C_12 
REMARK    3  A    between atoms: C_12  and  C_13 
REMARK    4  A    between atoms: C_14  and  N_15 
REMARK    5  A    between atoms: N_15  and  C_16 
ROOT
HETATM    1  C   UNL     1      20.839  49.629  48.019  1.00  0.00    -0.006 A 
HETATM    2  C   UNL     1      20.526  50.323  49.212  1.00  0.00     0.038 A 
HETATM    3  C   UNL     1      21.578  50.911  49.943  1.00  0.00     0.030 A 
HETATM    4  C   UNL     1      22.888  50.900  49.470  1.00  0.00     0.002 A 
HETATM    5  C   UNL     1      23.175  50.309  48.249  1.00  0.00     0.001 A 
HETATM    6  C   UNL     1      22.160  49.685  47.524  1.00  0.00     0.011 A 
ENDROOT
BRANCH   1   7
HETATM    7  C   UNL     1      19.778  48.839  47.284  1.00  0.00     0.275 C 
BRANCH   7   8
HETATM    8  N   UNL     1      19.918  47.319  47.331  1.00  0.00    -0.067 N 
HETATM    9  C   UNL     1      20.920  46.784  46.336  1.00  0.00     0.236 C 
HETATM   10  C   UNL     1      20.892  45.258  46.348  1.00  0.00     0.038 C 
HETATM   11  C   UNL     1      21.045  44.626  47.740  1.00  0.00     0.040 C 
HETATM   12  C   UNL     1      20.143  45.325  48.768  1.00  0.00     0.038 C 
HETATM   13  C   UNL     1      20.250  46.842  48.725  1.00  0.00     0.236 C 
HETATM   14  H   UNL     1      18.998  46.936  47.092  1.00  0.00     0.280 HD
BRANCH  11  15
HETATM   15  C   UNL     1      22.472  44.552  48.219  1.00  0.00     0.035 A 
HETATM   16  N   UNL     1      23.253  43.417  48.074  1.00  0.00    -0.278 N 
HETATM   17  C   UNL     1      22.918  42.174  47.414  1.00  0.00     0.179 C 
HETATM   18  N   UNL     1      24.466  43.536  48.636  1.00  0.00    -0.185 NA
HETATM   19  C   UNL     1      24.524  44.801  49.036  1.00  0.00     0.141 A 
HETATM   20  C   UNL     1      23.315  45.480  48.806  1.00  0.00     0.048 A 
ENDBRANCH  11  15
ENDBRANCH   7   8
ENDBRANCH   1   7
BRANCH   2  21
HETATM   21  N   UNL     1      19.185  50.458  49.645  1.00  0.00    -0.380 N 
HETATM   22  C   UNL     1      18.852  49.606  50.791  1.00  0.00     0.150 C 
BRANCH  21  23
HETATM   23  C   UNL     1      18.619  51.836  49.515  1.00  0.00     0.087 C 
HETATM   24  C   UNL     1      17.145  52.001  49.913  1.00  0.00     0.053 C 
HETATM   25  C   UNL     1      16.169  51.620  48.819  1.00  0.00     0.236 C 
HETATM   26  N   UNL     1      16.468  52.429  47.584  1.00  0.00    -0.075 N 
HETATM   27  H   UNL     1      16.382  53.427  47.828  1.00  0.00     0.279 HD
HETATM   28  C   UNL     1      15.431  52.196  46.508  1.00  0.00     0.269 C 
HETATM   29  C   UNL     1      17.862  52.189  47.072  1.00  0.00     0.236 C 
HETATM   30  C   UNL     1      18.894  52.494  48.152  1.00  0.00     0.053 C 
ENDBRANCH  21  23
ENDBRANCH   2  21
TORSDOF 5
ENDMDL
MODEL 8
REMARK VINA RESULT:      -7.2     13.235     15.784
REMARK  5 active torsions:
REMARK  status: ('A' for Active; 'I' for Inactive)
REMARK    1  A    between atoms: C_6  and  C_7 
REMARK    2  A    between atoms: N_10  and  C_12 
REMARK    3  A    between atoms: C_12  and  C_13 
REMARK    4  A    between atoms: C_14  and  N_15 
REMARK    5  A    between atoms: N_15  and  C_16 
ROOT
HETATM    1  C   UNL     1      31.450  49.482  41.394  1.00  0.00    -0.006 A 
HETATM    2  C   UNL     1      31.165  50.339  40.304  1.00  0.00     0.038 A 
HETATM    3  C   UNL     1      30.912  49.762  39.044  1.00  0.00     0.030 A 
HETATM    4  C   UNL     1      30.847  48.380  38.876  1.00  0.00     0.002 A 
HETATM    5  C   UNL     1      31.023  47.544  39.968  1.00  0.00     0.001 A 
HETATM    6  C   UNL     1      31.315  48.087  41.218  1.00  0.00     0.011 A 
ENDROOT
BRANCH   1   7
HETATM    7  C   UNL     1      31.892  50.048  42.727  1.00  0.00     0.275 C 
BRANCH   7   8
HETATM    8  N   UNL     1      33.387  50.322  42.878  1.00  0.00    -0.067 N 
HETATM    9  C   UNL     1      34.186  49.948  41.652  1.00  0.00     0.236 C 
HETATM   10  C   UNL     1      35.675  50.115  41.938  1.00  0.00     0.038 C 
HETATM   11  C   UNL     1      36.067  51.490  42.503  1.00  0.00     0.040 C 
HETATM   12  C   UNL     1      35.112  51.921  43.626  1.00  0.00     0.038 C 
HETATM   13  C   UNL     1      33.644  51.761  43.258  1.00  0.00     0.236 C 
HETATM   14  H   UNL     1      33.710  49.741  43.657  1.00  0.00     0.280 HD
BRANCH  11  15
HETATM   15  C   UNL     1      36.201  52.561  41.452  1.00  0.00     0.035 A 
HETATM   16  N   UNL     1      36.888  53.743  41.670  1.00  0.00    -0.278 N 
HETATM   17  C   UNL     1      37.635  54.145  42.842  1.00  0.00     0.179 C 
HETATM   18  N   UNL     1      36.821  54.592  40.632  1.00  0.00    -0.185 NA
HETATM   19  C   UNL     1      36.197  53.906  39.682  1.00  0.00     0.141 A 
HETATM   20  C   UNL     1      35.786  52.640  40.134  1.00  0.00     0.048 A 
ENDBRANCH  11  15
ENDBRANCH   7   8
ENDBRANCH   1   7
BRANCH   2  21
HETATM   21  N   UNL     1      31.099  51.741  40.480  1.00  0.00    -0.380 N 
HETATM   22  C   UNL     1      32.080  52.479  39.675  1.00  0.00     0.150 C 
BRANCH  21  23
HETATM   23  C   UNL     1      29.723  52.281  40.708  1.00  0.00     0.087 C 
HETATM   24  C   UNL     1      28.696  51.293  41.280  1.00  0.00     0.053 C 
HETATM   25  C   UNL     1      28.051  50.407  40.234  1.00  0.00     0.236 C 
HETATM   26  N   UNL     1      27.411  51.270  39.179  1.00  0.00    -0.075 N 
HETATM   27  H   UNL     1      26.711  51.871  39.640  1.00  0.00     0.279 HD
HETATM   28  C   UNL     1      26.625  50.440  38.189  1.00  0.00     0.269 C 
HETATM   29  C   UNL     1      28.410  52.158  38.489  1.00  0.00     0.236 C 
HETATM   30  C   UNL     1      29.143  53.034  39.499  1.00  0.00     0.053 C 
ENDBRANCH  21  23
ENDBRANCH   2  21
TORSDOF 5
ENDMDL
MODEL 9
REMARK VINA RESULT:      -7.1     11.749     14.657
REMARK  5 active torsions:
REMARK  status: ('A' for Active; 'I' for Inactive)
REMARK    1  A    between atoms: C_6  and  C_7 
REMARK    2  A    between atoms: N_10  and  C_12 
REMARK    3  A    between atoms: C_12  and  C_13 
REMARK    4  A    between atoms: C_14  and  N_15 
REMARK    5  A    between atoms: N_15  and  C_16 
ROOT
HETATM    1  C   UNL     1      29.805  50.904  39.610  1.00  0.00    -0.006 A 
HETATM    2  C   UNL     1      28.964  50.336  40.597  1.00  0.00     0.038 A 
HETATM    3  C   UNL     1      28.169  51.197  41.378  1.00  0.00     0.030 A 
HETATM    4  C   UNL     1      28.127  52.569  41.136  1.00  0.00     0.002 A 
HETATM    5  C   UNL     1      28.872  53.108  40.099  1.00  0.00     0.001 A 
HETATM    6  C   UNL     1      29.699  52.285  39.337  1.00  0.00     0.011 A 
ENDROOT
BRANCH   1   7
HETATM    7  C   UNL     1      30.801  50.047  38.858  1.00  0.00     0.275 C 
BRANCH   7   8
HETATM    8  N   UNL     1      32.218  50.009  39.426  1.00  0.00    -0.067 N 
HETATM    9  C   UNL     1      32.847  51.377  39.545  1.00  0.00     0.236 C 
HETATM   10  C   UNL     1      34.303  51.237  39.979  1.00  0.00     0.038 C 
HETATM   11  C   UNL     1      34.516  50.377  41.235  1.00  0.00     0.040 C 
HETATM   12  C   UNL     1      33.708  49.073  41.157  1.00  0.00     0.038 C 
HETATM   13  C   UNL     1      32.257  49.292  40.755  1.00  0.00     0.236 C 
HETATM   14  H   UNL     1      32.779  49.458  38.769  1.00  0.00     0.280 HD
BRANCH  11  15
HETATM   15  C   UNL     1      34.256  51.112  42.524  1.00  0.00     0.035 A 
HETATM   16  N   UNL     1      35.220  51.877  43.158  1.00  0.00    -0.278 N 
HETATM   17  C   UNL     1      36.565  52.177  42.715  1.00  0.00     0.179 C 
HETATM   18  N   UNL     1      34.806  52.382  44.330  1.00  0.00    -0.185 NA
HETATM   19  C   UNL     1      33.522  52.052  44.399  1.00  0.00     0.141 A 
HETATM   20  C   UNL     1      33.125  51.261  43.308  1.00  0.00     0.048 A 
ENDBRANCH  11  15
ENDBRANCH   7   8
ENDBRANCH   1   7
BRANCH   2  21
HETATM   21  N   UNL     1      28.894  48.934  40.774  1.00  0.00    -0.380 N 
HETATM   22  C   UNL     1      29.080  48.510  42.166  1.00  0.00     0.150 C 
BRANCH  21  23
HETATM   23  C   UNL     1      27.924  48.235  39.876  1.00  0.00     0.087 C 
HETATM   24  C   UNL     1      26.643  47.711  40.542  1.00  0.00     0.053 C 
HETATM   25  C   UNL     1      26.812  46.364  41.217  1.00  0.00     0.236 C 
HETATM   26  N   UNL     1      27.323  45.366  40.212  1.00  0.00    -0.075 N 
HETATM   27  H   UNL     1      26.640  45.312  39.441  1.00  0.00     0.279 HD
HETATM   28  C   UNL     1      27.368  43.971  40.794  1.00  0.00     0.269 C 
HETATM   29  C   UNL     1      28.652  45.770  39.634  1.00  0.00     0.236 C 
HETATM   30  C   UNL     1      28.564  47.151  38.993  1.00  0.00     0.053 C 
ENDBRANCH  21  23
ENDBRANCH   2  21
TORSDOF 5
ENDMDL
MODEL 10
REMARK VINA RESULT:      -7.1     12.425     15.356
REMARK  5 active torsions:
REMARK  status: ('A' for Active; 'I' for Inactive)
REMARK    1  A    between atoms: C_6  and  C_7 
REMARK    2  A    between atoms: N_10  and  C_12 
REMARK    3  A    between atoms: C_12  and  C_13 
REMARK    4  A    between atoms: C_14  and  N_15 
REMARK    5  A    between atoms: N_15  and  C_16 
ROOT
HETATM    1  C   UNL     1      29.289  51.331  40.634  1.00  0.00    -0.006 A 
HETATM    2  C   UNL     1      28.541  50.659  39.638  1.00  0.00     0.038 A 
HETATM    3  C   UNL     1      28.133  51.384  38.500  1.00  0.00     0.030 A 
HETATM    4  C   UNL     1      28.528  52.705  38.300  1.00  0.00     0.002 A 
HETATM    5  C   UNL     1      29.348  53.328  39.228  1.00  0.00     0.001 A 
HETATM    6  C   UNL     1      29.732  52.647  40.382  1.00  0.00     0.011 A 
ENDROOT
BRANCH   1   7
HETATM    7  C   UNL     1      29.609  50.652  41.949  1.00  0.00     0.275 C 
BRANCH   7   8
HETATM    8  N   UNL     1      31.085  50.364  42.215  1.00  0.00    -0.067 N 
HETATM    9  C   UNL     1      31.808  49.807  41.011  1.00  0.00     0.236 C 
HETATM   10  C   UNL     1      33.229  49.414  41.401  1.00  0.00     0.038 C 
HETATM   11  C   UNL     1      34.027  50.519  42.111  1.00  0.00     0.040 C 
HETATM   12  C   UNL     1      33.188  51.190  43.208  1.00  0.00     0.038 C 
HETATM   13  C   UNL     1      31.797  51.589  42.739  1.00  0.00     0.236 C 
HETATM   14  H   UNL     1      31.113  49.658  42.957  1.00  0.00     0.280 HD
BRANCH  11  15
HETATM   15  C   UNL     1      34.622  51.535  41.171  1.00  0.00     0.035 A 
HETATM   16  N   UNL     1      35.804  52.204  41.442  1.00  0.00    -0.278 N 
HETATM   17  C   UNL     1      36.698  52.030  42.566  1.00  0.00     0.179 C 
HETATM   18  N   UNL     1      36.116  53.121  40.513  1.00  0.00    -0.185 NA
HETATM   19  C   UNL     1      35.200  52.958  39.565  1.00  0.00     0.141 A 
HETATM   20  C   UNL     1      34.245  51.991  39.919  1.00  0.00     0.048 A 
ENDBRANCH  11  15
ENDBRANCH   7   8
ENDBRANCH   1   7
BRANCH   2  21
HETATM   21  N   UNL     1      28.238  49.282  39.761  1.00  0.00    -0.380 N 
HETATM   22  C   UNL     1      27.000  49.019  40.503  1.00  0.00     0.150 C 
BRANCH  21  23
HETATM   23  C   UNL     1      28.626  48.447  38.582  1.00  0.00     0.087 C 
HETATM   24  C   UNL     1      27.527  47.544  38.003  1.00  0.00     0.053 C 
HETATM   25  C   UNL     1      27.365  46.228  38.738  1.00  0.00     0.236 C 
HETATM   26  N   UNL     1      28.684  45.502  38.749  1.00  0.00    -0.075 N 
HETATM   27  H   UNL     1      28.972  45.348  37.771  1.00  0.00     0.279 HD
HETATM   28  C   UNL     1      28.545  44.116  39.339  1.00  0.00     0.269 C 
HETATM   29  C   UNL     1      29.763  46.293  39.437  1.00  0.00     0.236 C 
HETATM   30  C   UNL     1      29.931  47.659  38.782  1.00  0.00     0.053 C 
ENDBRANCH  21  23
ENDBRANCH   2  21
TORSDOF 5
ENDMDL
