MODEL 1
REMARK VINA RESULT:      -9.8      0.000      0.000
REMARK  6 active torsions:
REMARK  status: ('A' for Active; 'I' for Inactive)
REMARK    1  A    between atoms: C_3  and  N_4 
REMARK       I    between atoms: N_4  and  C_5 
REMARK       I    between atoms: C_5  and  N_6 
REMARK    2  A    between atoms: N_6  and  N_7 
REMARK       I    between atoms: N_7  and  C_8 
REMARK    3  A    between atoms: C_8  and  C_9 
REMARK    4  A    between atoms: C_9  and  N_10 
REMARK       I    between atoms: N_10  and  C_11 
REMARK       I    between atoms: C_11  and  N_12 
REMARK    5  A    between atoms: N_12  and  C_13 
REMARK    6  A    between atoms: C_16  and  O_17 
ROOT
HETATM    1  N   UNL     1      23.818  46.463  49.982  1.00  0.00    -0.265 N 
HETATM    2  C   UNL     1      25.179  46.277  50.184  1.00  0.00     0.253 C 
HETATM    3  O   UNL     1      25.976  46.181  49.249  1.00  0.00    -0.270 OA
HETATM    4  H   UNL     1      23.312  46.960  50.726  1.00  0.00     0.190 HD
ENDROOT
BRANCH   2   5
HETATM    5  C   UNL     1      25.654  46.430  51.629  1.00  0.00     0.228 C 
BRANCH   5   6
HETATM    6  N   UNL     1      26.335  45.297  52.230  1.00  0.00    -0.334 N 
HETATM    7  C   UNL     1      25.684  44.305  52.881  1.00  0.00     0.321 C 
HETATM    8  N   UNL     1      26.418  43.475  53.668  1.00  0.00    -0.309 N 
HETATM    9  O   UNL     1      24.478  44.118  52.722  1.00  0.00    -0.247 OA
HETATM   10  H   UNL     1      25.886  42.663  53.957  1.00  0.00     0.170 HD
HETATM   11  H   UNL     1      27.280  45.092  51.932  1.00  0.00     0.164 HD
BRANCH   8  12
HETATM   12  C   UNL     1      27.674  43.637  54.291  1.00  0.00     0.036 A 
HETATM   13  C   UNL     1      28.724  42.721  54.210  1.00  0.00     0.032 A 
HETATM   14  C   UNL     1      29.952  42.992  54.827  1.00  0.00     0.039 A 
HETATM   15  C   UNL     1      30.163  44.190  55.508  1.00  0.00     0.068 A 
HETATM   16  C   UNL     1      29.125  45.113  55.587  1.00  0.00     0.039 A 
HETATM   17  C   UNL     1      27.891  44.838  54.978  1.00  0.00     0.032 A 
BRANCH  15  18
HETATM   18  O   UNL     1      31.411  44.333  56.045  1.00  0.00    -0.356 OA
HETATM   19  C   UNL     1      31.767  43.428  57.084  1.00  0.00     0.210 C 
ENDBRANCH  15  18
ENDBRANCH   8  12
ENDBRANCH   5   6
ENDBRANCH   2   5
BRANCH   1  20
HETATM   20  N   UNL     1      23.451  46.783  48.652  1.00  0.00    -0.249 N 
HETATM   21  C   UNL     1      22.381  47.605  48.362  1.00  0.00     0.339 C 
HETATM   22  N   UNL     1      22.049  48.467  49.379  1.00  0.00    -0.307 N 
HETATM   23  O   UNL     1      21.859  47.532  47.256  1.00  0.00    -0.245 OA
HETATM   24  H   UNL     1      22.690  48.431  50.156  1.00  0.00     0.170 HD
HETATM   25  H   UNL     1      23.558  46.023  47.979  1.00  0.00     0.192 HD
BRANCH  22  26
HETATM   26  C   UNL     1      21.005  49.417  49.406  1.00  0.00     0.042 A 
HETATM   27  C   UNL     1      21.262  50.731  48.957  1.00  0.00    -0.034 A 
HETATM   28  C   UNL     1      22.606  51.151  48.424  1.00  0.00     0.050 C 
HETATM   29  C   UNL     1      20.230  51.688  48.997  1.00  0.00     0.032 A 
HETATM   30  C   UNL     1      18.964  51.349  49.469  1.00  0.00     0.034 A 
HETATM   31  C   UNL     1      18.707  50.058  49.910  1.00  0.00     0.026 A 
HETATM   32 CL   UNL     1      17.717  52.533  49.507  1.00  0.00    -0.084 Cl
HETATM   33  C   UNL     1      19.724  49.100  49.879  1.00  0.00     0.032 A 
ENDBRANCH  22  26
ENDBRANCH   1  20
TORSDOF 6
ENDMDL
MODEL 2
REMARK VINA RESULT:      -9.8      4.075     10.512
REMARK  6 active torsions:
REMARK  status: ('A' for Active; 'I' for Inactive)
REMARK    1  A    between atoms: C_3  and  N_4 
REMARK       I    between atoms: N_4  and  C_5 
REMARK       I    between atoms: C_5  and  N_6 
REMARK    2  A    between atoms: N_6  and  N_7 
REMARK       I    between atoms: N_7  and  C_8 
REMARK    3  A    between atoms: C_8  and  C_9 
REMARK    4  A    between atoms: C_9  and  N_10 
REMARK       I    between atoms: N_10  and  C_11 
REMARK       I    between atoms: C_11  and  N_12 
REMARK    5  A    between atoms: N_12  and  C_13 
REMARK    6  A    between atoms: C_16  and  O_17 
ROOT
HETATM    1  N   UNL     1      26.164  46.635  51.287  1.00  0.00    -0.265 N 
HETATM    2  C   UNL     1      26.653  46.930  50.021  1.00  0.00     0.253 C 
HETATM    3  O   UNL     1      27.061  46.057  49.254  1.00  0.00    -0.270 OA
HETATM    4  H   UNL     1      25.467  47.288  51.668  1.00  0.00     0.190 HD
ENDROOT
BRANCH   2   5
HETATM    5  C   UNL     1      26.439  48.370  49.555  1.00  0.00     0.228 C 
BRANCH   5   6
HETATM    6  N   UNL     1      25.141  48.705  48.997  1.00  0.00    -0.334 N 
HETATM    7  C   UNL     1      24.962  49.688  48.083  1.00  0.00     0.321 C 
HETATM    8  N   UNL     1      23.695  50.128  47.867  1.00  0.00    -0.309 N 
HETATM    9  O   UNL     1      25.903  50.129  47.424  1.00  0.00    -0.247 OA
HETATM   10  H   UNL     1      23.637  50.718  47.046  1.00  0.00     0.170 HD
HETATM   11  H   UNL     1      24.395  48.026  49.076  1.00  0.00     0.164 HD
BRANCH   8  12
HETATM   12  C   UNL     1      22.531  50.074  48.664  1.00  0.00     0.036 A 
HETATM   13  C   UNL     1      22.162  51.042  49.598  1.00  0.00     0.032 A 
HETATM   14  C   UNL     1      20.963  50.921  50.311  1.00  0.00     0.039 A 
HETATM   15  C   UNL     1      20.098  49.851  50.084  1.00  0.00     0.068 A 
HETATM   16  C   UNL     1      20.454  48.885  49.147  1.00  0.00     0.039 A 
HETATM   17  C   UNL     1      21.660  48.999  48.441  1.00  0.00     0.032 A 
BRANCH  15  18
HETATM   18  O   UNL     1      18.955  49.867  50.832  1.00  0.00    -0.356 OA
HETATM   19  C   UNL     1      18.469  48.608  51.280  1.00  0.00     0.210 C 
ENDBRANCH  15  18
ENDBRANCH   8  12
ENDBRANCH   5   6
ENDBRANCH   2   5
BRANCH   1  20
HETATM   20  N   UNL     1      25.936  45.259  51.533  1.00  0.00    -0.249 N 
HETATM   21  C   UNL     1      26.808  44.491  52.277  1.00  0.00     0.339 C 
HETATM   22  N   UNL     1      27.577  45.215  53.156  1.00  0.00    -0.307 N 
HETATM   23  O   UNL     1      26.802  43.274  52.130  1.00  0.00    -0.245 OA
HETATM   24  H   UNL     1      27.331  46.191  53.189  1.00  0.00     0.170 HD
HETATM   25  H   UNL     1      25.522  44.744  50.755  1.00  0.00     0.192 HD
BRANCH  22  26
HETATM   26  C   UNL     1      28.567  44.735  54.041  1.00  0.00     0.042 A 
HETATM   27  C   UNL     1      28.893  45.498  55.184  1.00  0.00    -0.034 A 
HETATM   28  C   UNL     1      28.202  46.795  55.509  1.00  0.00     0.050 C 
HETATM   29  C   UNL     1      29.891  45.034  56.062  1.00  0.00     0.032 A 
HETATM   30  C   UNL     1      30.553  43.833  55.815  1.00  0.00     0.034 A 
HETATM   31  C   UNL     1      30.235  43.080  54.693  1.00  0.00     0.026 A 
HETATM   32 CL   UNL     1      31.768  43.284  56.901  1.00  0.00    -0.084 Cl
HETATM   33  C   UNL     1      29.248  43.531  53.812  1.00  0.00     0.032 A 
ENDBRANCH  22  26
ENDBRANCH   1  20
TORSDOF 6
ENDMDL
MODEL 3
REMARK VINA RESULT:      -9.5      4.067     11.020
REMARK  6 active torsions:
REMARK  status: ('A' for Active; 'I' for Inactive)
REMARK    1  A    between atoms: C_3  and  N_4 
REMARK       I    between atoms: N_4  and  C_5 
REMARK       I    between atoms: C_5  and  N_6 
REMARK    2  A    between atoms: N_6  and  N_7 
REMARK       I    between atoms: N_7  and  C_8 
REMARK    3  A    between atoms: C_8  and  C_9 
REMARK    4  A    between atoms: C_9  and  N_10 
REMARK       I    between atoms: N_10  and  C_11 
REMARK       I    between atoms: C_11  and  N_12 
REMARK    5  A    between atoms: N_12  and  C_13 
REMARK    6  A    between atoms: C_16  and  O_17 
ROOT
HETATM    1  N   UNL     1      26.052  46.728  51.674  1.00  0.00    -0.265 N 
HETATM    2  C   UNL     1      25.239  46.851  50.555  1.00  0.00     0.253 C 
HETATM    3  O   UNL     1      24.205  46.195  50.417  1.00  0.00    -0.270 OA
HETATM    4  H   UNL     1      26.599  47.559  51.931  1.00  0.00     0.190 HD
ENDROOT
BRANCH   2   5
HETATM    5  C   UNL     1      25.582  48.010  49.619  1.00  0.00     0.228 C 
BRANCH   5   6
HETATM    6  N   UNL     1      24.481  48.670  48.943  1.00  0.00    -0.334 N 
HETATM    7  C   UNL     1      24.648  49.742  48.133  1.00  0.00     0.321 C 
HETATM    8  N   UNL     1      23.546  50.470  47.810  1.00  0.00    -0.309 N 
HETATM    9  O   UNL     1      25.747  50.018  47.654  1.00  0.00    -0.247 OA
HETATM   10  H   UNL     1      23.735  51.125  47.061  1.00  0.00     0.170 HD
HETATM   11  H   UNL     1      23.606  48.170  48.848  1.00  0.00     0.164 HD
BRANCH   8  12
HETATM   12  C   UNL     1      22.291  50.607  48.441  1.00  0.00     0.036 A 
HETATM   13  C   UNL     1      22.110  50.867  49.800  1.00  0.00     0.032 A 
HETATM   14  C   UNL     1      20.822  51.031  50.326  1.00  0.00     0.039 A 
HETATM   15  C   UNL     1      19.698  50.970  49.504  1.00  0.00     0.068 A 
HETATM   16  C   UNL     1      19.870  50.720  48.146  1.00  0.00     0.039 A 
HETATM   17  C   UNL     1      21.158  50.544  47.620  1.00  0.00     0.032 A 
BRANCH  15  18
HETATM   18  O   UNL     1      18.507  51.168  50.143  1.00  0.00    -0.356 OA
HETATM   19  C   UNL     1      17.357  51.310  49.319  1.00  0.00     0.210 C 
ENDBRANCH  15  18
ENDBRANCH   8  12
ENDBRANCH   5   6
ENDBRANCH   2   5
BRANCH   1  20
HETATM   20  N   UNL     1      25.486  45.993  52.744  1.00  0.00    -0.249 N 
HETATM   21  C   UNL     1      26.257  45.255  53.618  1.00  0.00     0.339 C 
HETATM   22  N   UNL     1      27.560  45.681  53.708  1.00  0.00    -0.307 N 
HETATM   23  O   UNL     1      25.733  44.342  54.246  1.00  0.00    -0.245 OA
HETATM   24  H   UNL     1      27.740  46.524  53.186  1.00  0.00     0.170 HD
HETATM   25  H   UNL     1      24.589  45.550  52.538  1.00  0.00     0.192 HD
BRANCH  22  26
HETATM   26  C   UNL     1      28.599  45.136  54.492  1.00  0.00     0.042 A 
HETATM   27  C   UNL     1      29.250  43.964  54.049  1.00  0.00    -0.034 A 
HETATM   28  C   UNL     1      28.895  43.287  52.752  1.00  0.00     0.050 C 
HETATM   29  C   UNL     1      30.276  43.405  54.836  1.00  0.00     0.032 A 
HETATM   30  C   UNL     1      30.653  43.998  56.038  1.00  0.00     0.034 A 
HETATM   31  C   UNL     1      30.016  45.151  56.477  1.00  0.00     0.026 A 
HETATM   32 CL   UNL     1      31.910  43.300  56.983  1.00  0.00    -0.084 Cl
HETATM   33  C   UNL     1      28.994  45.713  55.707  1.00  0.00     0.032 A 
ENDBRANCH  22  26
ENDBRANCH   1  20
TORSDOF 6
ENDMDL
MODEL 4
REMARK VINA RESULT:      -9.5      1.483      2.020
REMARK  6 active torsions:
REMARK  status: ('A' for Active; 'I' for Inactive)
REMARK    1  A    between atoms: C_3  and  N_4 
REMARK       I    between atoms: N_4  and  C_5 
REMARK       I    between atoms: C_5  and  N_6 
REMARK    2  A    between atoms: N_6  and  N_7 
REMARK       I    between atoms: N_7  and  C_8 
REMARK    3  A    between atoms: C_8  and  C_9 
REMARK    4  A    between atoms: C_9  and  N_10 
REMARK       I    between atoms: N_10  and  C_11 
REMARK       I    between atoms: C_11  and  N_12 
REMARK    5  A    between atoms: N_12  and  C_13 
REMARK    6  A    between atoms: C_16  and  O_17 
ROOT
HETATM    1  N   UNL     1      24.596  47.706  49.587  1.00  0.00    -0.265 N 
HETATM    2  C   UNL     1      25.537  47.423  50.568  1.00  0.00     0.253 C 
HETATM    3  O   UNL     1      26.616  48.014  50.634  1.00  0.00    -0.270 OA
HETATM    4  H   UNL     1      23.614  47.530  49.837  1.00  0.00     0.190 HD
ENDROOT
BRANCH   2   5
HETATM    5  C   UNL     1      25.059  46.500  51.689  1.00  0.00     0.228 C 
BRANCH   5   6
HETATM    6  N   UNL     1      25.964  45.449  52.118  1.00  0.00    -0.334 N 
HETATM    7  C   UNL     1      25.537  44.241  52.555  1.00  0.00     0.321 C 
HETATM    8  N   UNL     1      26.426  43.458  53.222  1.00  0.00    -0.309 N 
HETATM    9  O   UNL     1      24.404  43.833  52.305  1.00  0.00    -0.247 OA
HETATM   10  H   UNL     1      26.081  42.513  53.339  1.00  0.00     0.170 HD
HETATM   11  H   UNL     1      26.935  45.506  51.838  1.00  0.00     0.164 HD
BRANCH   8  12
HETATM   12  C   UNL     1      27.609  43.769  53.926  1.00  0.00     0.036 A 
HETATM   13  C   UNL     1      27.791  44.909  54.711  1.00  0.00     0.032 A 
HETATM   14  C   UNL     1      28.989  45.108  55.408  1.00  0.00     0.039 A 
HETATM   15  C   UNL     1      30.012  44.161  55.360  1.00  0.00     0.068 A 
HETATM   16  C   UNL     1      29.837  43.017  54.588  1.00  0.00     0.039 A 
HETATM   17  C   UNL     1      28.641  42.823  53.880  1.00  0.00     0.032 A 
BRANCH  15  18
HETATM   18  O   UNL     1      31.116  44.471  56.103  1.00  0.00    -0.356 OA
HETATM   19  C   UNL     1      31.635  43.441  56.934  1.00  0.00     0.210 C 
ENDBRANCH  15  18
ENDBRANCH   8  12
ENDBRANCH   5   6
ENDBRANCH   2   5
BRANCH   1  20
HETATM   20  N   UNL     1      24.852  48.878  48.836  1.00  0.00    -0.249 N 
HETATM   21  C   UNL     1      23.841  49.605  48.240  1.00  0.00     0.339 C 
HETATM   22  N   UNL     1      22.611  49.437  48.830  1.00  0.00    -0.307 N 
HETATM   23  O   UNL     1      24.114  50.339  47.297  1.00  0.00    -0.245 OA
HETATM   24  H   UNL     1      22.644  48.873  49.664  1.00  0.00     0.170 HD
HETATM   25  H   UNL     1      25.704  48.855  48.275  1.00  0.00     0.192 HD
BRANCH  22  26
HETATM   26  C   UNL     1      21.382  50.021  48.455  1.00  0.00     0.042 A 
HETATM   27  C   UNL     1      20.473  49.267  47.681  1.00  0.00    -0.034 A 
HETATM   28  C   UNL     1      20.755  47.848  47.263  1.00  0.00     0.050 C 
HETATM   29  C   UNL     1      19.252  49.849  47.289  1.00  0.00     0.032 A 
HETATM   30  C   UNL     1      18.935  51.154  47.660  1.00  0.00     0.034 A 
HETATM   31  C   UNL     1      19.826  51.898  48.421  1.00  0.00     0.026 A 
HETATM   32 CL   UNL     1      17.438  51.845  47.172  1.00  0.00    -0.084 Cl
HETATM   33  C   UNL     1      21.042  51.333  48.813  1.00  0.00     0.032 A 
ENDBRANCH  22  26
ENDBRANCH   1  20
TORSDOF 6
ENDMDL
MODEL 5
REMARK VINA RESULT:      -9.0      3.962     10.972
REMARK  6 active torsions:
REMARK  status: ('A' for Active; 'I' for Inactive)
REMARK    1  A    between atoms: C_3  and  N_4 
REMARK       I    between atoms: N_4  and  C_5 
REMARK       I    between atoms: C_5  and  N_6 
REMARK    2  A    between atoms: N_6  and  N_7 
REMARK       I    between atoms: N_7  and  C_8 
REMARK    3  A    between atoms: C_8  and  C_9 
REMARK    4  A    between atoms: C_9  and  N_10 
REMARK       I    between atoms: N_10  and  C_11 
REMARK       I    between atoms: C_11  and  N_12 
REMARK    5  A    between atoms: N_12  and  C_13 
REMARK    6  A    between atoms: C_16  and  O_17 
ROOT
HETATM    1  N   UNL     1      25.400  45.480  52.306  1.00  0.00    -0.265 N 
HETATM    2  C   UNL     1      24.627  45.033  51.242  1.00  0.00     0.253 C 
HETATM    3  O   UNL     1      23.889  44.051  51.331  1.00  0.00    -0.270 OA
HETATM    4  H   UNL     1      25.618  46.484  52.318  1.00  0.00     0.190 HD
ENDROOT
BRANCH   2   5
HETATM    5  C   UNL     1      24.576  45.966  50.031  1.00  0.00     0.228 C 
BRANCH   5   6
HETATM    6  N   UNL     1      23.272  46.453  49.620  1.00  0.00    -0.334 N 
HETATM    7  C   UNL     1      22.696  46.116  48.442  1.00  0.00     0.321 C 
HETATM    8  N   UNL     1      21.643  46.861  48.016  1.00  0.00    -0.309 N 
HETATM    9  O   UNL     1      23.070  45.131  47.806  1.00  0.00    -0.247 OA
HETATM   10  H   UNL     1      21.165  46.424  47.237  1.00  0.00     0.170 HD
HETATM   11  H   UNL     1      22.656  46.832  50.327  1.00  0.00     0.164 HD
BRANCH   8  12
HETATM   12  C   UNL     1      21.234  48.176  48.325  1.00  0.00     0.036 A 
HETATM   13  C   UNL     1      21.802  49.331  47.787  1.00  0.00     0.032 A 
HETATM   14  C   UNL     1      21.297  50.594  48.123  1.00  0.00     0.039 A 
HETATM   15  C   UNL     1      20.201  50.724  48.974  1.00  0.00     0.068 A 
HETATM   16  C   UNL     1      19.622  49.577  49.509  1.00  0.00     0.039 A 
HETATM   17  C   UNL     1      20.134  48.313  49.182  1.00  0.00     0.032 A 
BRANCH  15  18
HETATM   18  O   UNL     1      19.799  52.011  49.200  1.00  0.00    -0.356 OA
HETATM   19  C   UNL     1      18.803  52.530  48.328  1.00  0.00     0.210 C 
ENDBRANCH  15  18
ENDBRANCH   8  12
ENDBRANCH   5   6
ENDBRANCH   2   5
BRANCH   1  20
HETATM   20  N   UNL     1      25.092  44.889  53.555  1.00  0.00    -0.249 N 
HETATM   21  C   UNL     1      26.067  44.390  54.393  1.00  0.00     0.339 C 
HETATM   22  N   UNL     1      27.308  44.948  54.199  1.00  0.00    -0.307 N 
HETATM   23  O   UNL     1      25.758  43.553  55.233  1.00  0.00    -0.245 OA
HETATM   24  H   UNL     1      27.305  45.702  53.530  1.00  0.00     0.170 HD
HETATM   25  H   UNL     1      24.235  44.334  53.572  1.00  0.00     0.192 HD
BRANCH  22  26
HETATM   26  C   UNL     1      28.510  44.648  54.875  1.00  0.00     0.042 A 
HETATM   27  C   UNL     1      29.228  43.486  54.515  1.00  0.00    -0.034 A 
HETATM   28  C   UNL     1      28.771  42.567  53.414  1.00  0.00     0.050 C 
HETATM   29  C   UNL     1      30.419  43.172  55.197  1.00  0.00     0.032 A 
HETATM   30  C   UNL     1      30.893  43.995  56.217  1.00  0.00     0.034 A 
HETATM   31  C   UNL     1      30.191  45.138  56.573  1.00  0.00     0.026 A 
HETATM   32 CL   UNL     1      32.351  43.593  57.036  1.00  0.00    -0.084 Cl
HETATM   33  C   UNL     1      29.006  45.459  55.905  1.00  0.00     0.032 A 
ENDBRANCH  22  26
ENDBRANCH   1  20
TORSDOF 6
ENDMDL
MODEL 6
REMARK VINA RESULT:      -8.8      4.127      9.655
REMARK  6 active torsions:
REMARK  status: ('A' for Active; 'I' for Inactive)
REMARK    1  A    between atoms: C_3  and  N_4 
REMARK       I    between atoms: N_4  and  C_5 
REMARK       I    between atoms: C_5  and  N_6 
REMARK    2  A    between atoms: N_6  and  N_7 
REMARK       I    between atoms: N_7  and  C_8 
REMARK    3  A    between atoms: C_8  and  C_9 
REMARK    4  A    between atoms: C_9  and  N_10 
REMARK       I    between atoms: N_10  and  C_11 
REMARK       I    between atoms: C_11  and  N_12 
REMARK    5  A    between atoms: N_12  and  C_13 
REMARK    6  A    between atoms: C_16  and  O_17 
ROOT
HETATM    1  N   UNL     1      26.951  42.175  50.893  1.00  0.00    -0.265 N 
HETATM    2  C   UNL     1      25.950  41.720  50.044  1.00  0.00     0.253 C 
HETATM    3  O   UNL     1      25.571  40.549  50.042  1.00  0.00    -0.270 OA
HETATM    4  H   UNL     1      26.905  43.167  51.157  1.00  0.00     0.190 HD
ENDROOT
BRANCH   2   5
HETATM    5  C   UNL     1      25.197  42.808  49.278  1.00  0.00     0.228 C 
BRANCH   5   6
HETATM    6  N   UNL     1      25.344  44.175  49.743  1.00  0.00    -0.334 N 
HETATM    7  C   UNL     1      24.858  44.607  50.930  1.00  0.00     0.321 C 
HETATM    8  N   UNL     1      24.767  45.949  51.127  1.00  0.00    -0.309 N 
HETATM    9  O   UNL     1      24.564  43.818  51.827  1.00  0.00    -0.247 OA
HETATM   10  H   UNL     1      24.577  46.174  52.096  1.00  0.00     0.170 HD
HETATM   11  H   UNL     1      26.052  44.755  49.311  1.00  0.00     0.164 HD
BRANCH   8  12
HETATM   12  C   UNL     1      24.697  47.030  50.222  1.00  0.00     0.036 A 
HETATM   13  C   UNL     1      23.528  47.472  49.603  1.00  0.00     0.032 A 
HETATM   14  C   UNL     1      23.552  48.585  48.752  1.00  0.00     0.039 A 
HETATM   15  C   UNL     1      24.733  49.291  48.529  1.00  0.00     0.068 A 
HETATM   16  C   UNL     1      25.903  48.863  49.149  1.00  0.00     0.039 A 
HETATM   17  C   UNL     1      25.882  47.742  49.993  1.00  0.00     0.032 A 
BRANCH  15  18
HETATM   18  O   UNL     1      24.610  50.366  47.695  1.00  0.00    -0.356 OA
HETATM   19  C   UNL     1      23.364  51.053  47.719  1.00  0.00     0.210 C 
ENDBRANCH  15  18
ENDBRANCH   8  12
ENDBRANCH   5   6
ENDBRANCH   2   5
BRANCH   1  20
HETATM   20  N   UNL     1      27.320  41.269  51.918  1.00  0.00    -0.249 N 
HETATM   21  C   UNL     1      28.074  41.658  53.006  1.00  0.00     0.339 C 
HETATM   22  N   UNL     1      27.993  43.000  53.289  1.00  0.00    -0.307 N 
HETATM   23  O   UNL     1      28.698  40.808  53.630  1.00  0.00    -0.245 OA
HETATM   24  H   UNL     1      27.328  43.489  52.712  1.00  0.00     0.170 HD
HETATM   25  H   UNL     1      27.542  40.325  51.600  1.00  0.00     0.192 HD
BRANCH  22  26
HETATM   26  C   UNL     1      28.649  43.711  54.317  1.00  0.00     0.042 A 
HETATM   27  C   UNL     1      28.016  44.840  54.882  1.00  0.00    -0.034 A 
HETATM   28  C   UNL     1      26.650  45.298  54.446  1.00  0.00     0.050 C 
HETATM   29  C   UNL     1      28.672  45.563  55.897  1.00  0.00     0.032 A 
HETATM   30  C   UNL     1      29.932  45.174  56.346  1.00  0.00     0.034 A 
HETATM   31  C   UNL     1      30.557  44.065  55.794  1.00  0.00     0.026 A 
HETATM   32 CL   UNL     1      30.715  46.071  57.588  1.00  0.00    -0.084 Cl
HETATM   33  C   UNL     1      29.918  43.340  54.785  1.00  0.00     0.032 A 
ENDBRANCH  22  26
ENDBRANCH   1  20
TORSDOF 6
ENDMDL
MODEL 7
REMARK VINA RESULT:      -8.7      6.291      9.484
REMARK  6 active torsions:
REMARK  status: ('A' for Active; 'I' for Inactive)
REMARK    1  A    between atoms: C_3  and  N_4 
REMARK       I    between atoms: N_4  and  C_5 
REMARK       I    between atoms: C_5  and  N_6 
REMARK    2  A    between atoms: N_6  and  N_7 
REMARK       I    between atoms: N_7  and  C_8 
REMARK    3  A    between atoms: C_8  and  C_9 
REMARK    4  A    between atoms: C_9  and  N_10 
REMARK       I    between atoms: N_10  and  C_11 
REMARK       I    between atoms: C_11  and  N_12 
REMARK    5  A    between atoms: N_12  and  C_13 
REMARK    6  A    between atoms: C_16  and  O_17 
ROOT
HETATM    1  N   UNL     1      25.829  44.001  51.264  1.00  0.00    -0.265 N 
HETATM    2  C   UNL     1      24.913  43.243  50.547  1.00  0.00     0.253 C 
HETATM    3  O   UNL     1      23.904  42.765  51.067  1.00  0.00    -0.270 OA
HETATM    4  H   UNL     1      26.357  44.702  50.728  1.00  0.00     0.190 HD
ENDROOT
BRANCH   2   5
HETATM    5  C   UNL     1      25.117  43.230  49.031  1.00  0.00     0.228 C 
BRANCH   5   6
HETATM    6  N   UNL     1      25.833  42.103  48.464  1.00  0.00    -0.334 N 
HETATM    7  C   UNL     1      25.235  41.155  47.704  1.00  0.00     0.321 C 
HETATM    8  N   UNL     1      25.910  39.995  47.492  1.00  0.00    -0.309 N 
HETATM    9  O   UNL     1      24.145  41.357  47.170  1.00  0.00    -0.247 OA
HETATM   10  H   UNL     1      25.475  39.435  46.769  1.00  0.00     0.170 HD
HETATM   11  H   UNL     1      26.841  42.158  48.399  1.00  0.00     0.164 HD
BRANCH   8  12
HETATM   12  C   UNL     1      26.951  39.367  48.210  1.00  0.00     0.036 A 
HETATM   13  C   UNL     1      26.808  38.195  48.954  1.00  0.00     0.032 A 
HETATM   14  C   UNL     1      27.913  37.623  49.597  1.00  0.00     0.039 A 
HETATM   15  C   UNL     1      29.181  38.191  49.484  1.00  0.00     0.068 A 
HETATM   16  C   UNL     1      29.335  39.355  48.737  1.00  0.00     0.039 A 
HETATM   17  C   UNL     1      28.227  39.934  48.102  1.00  0.00     0.032 A 
BRANCH  15  18
HETATM   18  O   UNL     1      30.171  37.519  50.144  1.00  0.00    -0.356 OA
HETATM   19  C   UNL     1      29.815  36.909  51.379  1.00  0.00     0.210 C 
ENDBRANCH  15  18
ENDBRANCH   8  12
ENDBRANCH   5   6
ENDBRANCH   2   5
BRANCH   1  20
HETATM   20  N   UNL     1      25.397  44.394  52.554  1.00  0.00    -0.249 N 
HETATM   21  C   UNL     1      26.213  44.301  53.663  1.00  0.00     0.339 C 
HETATM   22  N   UNL     1      27.555  44.312  53.369  1.00  0.00    -0.307 N 
HETATM   23  O   UNL     1      25.701  44.257  54.775  1.00  0.00    -0.245 OA
HETATM   24  H   UNL     1      27.748  44.472  52.393  1.00  0.00     0.170 HD
HETATM   25  H   UNL     1      24.420  44.186  52.765  1.00  0.00     0.192 HD
BRANCH  22  26
HETATM   26  C   UNL     1      28.641  44.217  54.267  1.00  0.00     0.042 A 
HETATM   27  C   UNL     1      29.467  43.072  54.226  1.00  0.00    -0.034 A 
HETATM   28  C   UNL     1      29.248  41.957  53.238  1.00  0.00     0.050 C 
HETATM   29  C   UNL     1      30.541  42.964  55.130  1.00  0.00     0.032 A 
HETATM   30  C   UNL     1      30.795  43.973  56.056  1.00  0.00     0.034 A 
HETATM   31  C   UNL     1      29.986  45.100  56.099  1.00  0.00     0.026 A 
HETATM   32 CL   UNL     1      32.114  43.821  57.150  1.00  0.00    -0.084 Cl
HETATM   33  C   UNL     1      28.915  45.218  55.209  1.00  0.00     0.032 A 
ENDBRANCH  22  26
ENDBRANCH   1  20
TORSDOF 6
ENDMDL
MODEL 8
REMARK VINA RESULT:      -8.5      1.564      2.062
REMARK  6 active torsions:
REMARK  status: ('A' for Active; 'I' for Inactive)
REMARK    1  A    between atoms: C_3  and  N_4 
REMARK       I    between atoms: N_4  and  C_5 
REMARK       I    between atoms: C_5  and  N_6 
REMARK    2  A    between atoms: N_6  and  N_7 
REMARK       I    between atoms: N_7  and  C_8 
REMARK    3  A    between atoms: C_8  and  C_9 
REMARK    4  A    between atoms: C_9  and  N_10 
REMARK       I    between atoms: N_10  and  C_11 
REMARK       I    between atoms: C_11  and  N_12 
REMARK    5  A    between atoms: N_12  and  C_13 
REMARK    6  A    between atoms: C_16  and  O_17 
ROOT
HETATM    1  N   UNL     1      23.500  47.422  49.768  1.00  0.00    -0.265 N 
HETATM    2  C   UNL     1      24.632  46.765  50.233  1.00  0.00     0.253 C 
HETATM    3  O   UNL     1      25.757  47.263  50.163  1.00  0.00    -0.270 OA
HETATM    4  H   UNL     1      22.615  47.184  50.233  1.00  0.00     0.190 HD
ENDROOT
BRANCH   2   5
HETATM    5  C   UNL     1      24.368  45.493  51.039  1.00  0.00     0.228 C 
BRANCH   5   6
HETATM    6  N   UNL     1      25.509  44.655  51.355  1.00  0.00    -0.334 N 
HETATM    7  C   UNL     1      25.425  43.309  51.479  1.00  0.00     0.321 C 
HETATM    8  N   UNL     1      26.459  42.662  52.079  1.00  0.00    -0.309 N 
HETATM    9  O   UNL     1      24.477  42.681  51.010  1.00  0.00    -0.247 OA
HETATM   10  H   UNL     1      26.396  41.659  51.956  1.00  0.00     0.170 HD
HETATM   11  H   UNL     1      26.437  45.034  51.217  1.00  0.00     0.164 HD
BRANCH   8  12
HETATM   12  C   UNL     1      27.455  43.108  52.975  1.00  0.00     0.036 A 
HETATM   13  C   UNL     1      28.812  42.805  52.868  1.00  0.00     0.032 A 
HETATM   14  C   UNL     1      29.732  43.332  53.783  1.00  0.00     0.039 A 
HETATM   15  C   UNL     1      29.320  44.192  54.799  1.00  0.00     0.068 A 
HETATM   16  C   UNL     1      27.968  44.507  54.909  1.00  0.00     0.039 A 
HETATM   17  C   UNL     1      27.045  43.971  53.999  1.00  0.00     0.032 A 
BRANCH  15  18
HETATM   18  O   UNL     1      30.322  44.648  55.608  1.00  0.00    -0.356 OA
HETATM   19  C   UNL     1      29.957  45.596  56.604  1.00  0.00     0.210 C 
ENDBRANCH  15  18
ENDBRANCH   8  12
ENDBRANCH   5   6
ENDBRANCH   2   5
BRANCH   1  20
HETATM   20  N   UNL     1      23.694  48.787  49.445  1.00  0.00    -0.249 N 
HETATM   21  C   UNL     1      22.638  49.641  49.202  1.00  0.00     0.339 C 
HETATM   22  N   UNL     1      21.456  49.246  49.781  1.00  0.00    -0.307 N 
HETATM   23  O   UNL     1      22.836  50.660  48.550  1.00  0.00    -0.245 OA
HETATM   24  H   UNL     1      21.554  48.434  50.369  1.00  0.00     0.170 HD
HETATM   25  H   UNL     1      24.503  48.981  48.854  1.00  0.00     0.192 HD
BRANCH  22  26
HETATM   26  C   UNL     1      20.199  49.885  49.711  1.00  0.00     0.042 A 
HETATM   27  C   UNL     1      19.061  49.123  49.365  1.00  0.00    -0.034 A 
HETATM   28  C   UNL     1      19.135  47.645  49.094  1.00  0.00     0.050 C 
HETATM   29  C   UNL     1      17.807  49.758  49.277  1.00  0.00     0.032 A 
HETATM   30  C   UNL     1      17.681  51.122  49.530  1.00  0.00     0.034 A 
HETATM   31  C   UNL     1      18.797  51.874  49.871  1.00  0.00     0.026 A 
HETATM   32 CL   UNL     1      16.139  51.877  49.418  1.00  0.00    -0.084 Cl
HETATM   33  C   UNL     1      20.048  51.256  49.959  1.00  0.00     0.032 A 
ENDBRANCH  22  26
ENDBRANCH   1  20
TORSDOF 6
ENDMDL
MODEL 9
REMARK VINA RESULT:      -8.5      3.739     10.525
REMARK  6 active torsions:
REMARK  status: ('A' for Active; 'I' for Inactive)
REMARK    1  A    between atoms: C_3  and  N_4 
REMARK       I    between atoms: N_4  and  C_5 
REMARK       I    between atoms: C_5  and  N_6 
REMARK    2  A    between atoms: N_6  and  N_7 
REMARK       I    between atoms: N_7  and  C_8 
REMARK    3  A    between atoms: C_8  and  C_9 
REMARK    4  A    between atoms: C_9  and  N_10 
REMARK       I    between atoms: N_10  and  C_11 
REMARK       I    between atoms: C_11  and  N_12 
REMARK    5  A    between atoms: N_12  and  C_13 
REMARK    6  A    between atoms: C_16  and  O_17 
ROOT
HETATM    1  N   UNL     1      24.315  45.734  51.018  1.00  0.00    -0.265 N 
HETATM    2  C   UNL     1      25.076  46.519  50.162  1.00  0.00     0.253 C 
HETATM    3  O   UNL     1      26.091  46.095  49.607  1.00  0.00    -0.270 OA
HETATM    4  H   UNL     1      23.316  45.966  51.078  1.00  0.00     0.190 HD
ENDROOT
BRANCH   2   5
HETATM    5  C   UNL     1      24.452  47.860  49.774  1.00  0.00     0.228 C 
BRANCH   5   6
HETATM    6  N   UNL     1      23.005  47.919  49.679  1.00  0.00    -0.334 N 
HETATM    7  C   UNL     1      22.307  47.326  48.682  1.00  0.00     0.321 C 
HETATM    8  N   UNL     1      21.012  47.700  48.506  1.00  0.00    -0.309 N 
HETATM    9  O   UNL     1      22.803  46.434  47.996  1.00  0.00    -0.247 OA
HETATM   10  H   UNL     1      20.523  47.078  47.875  1.00  0.00     0.170 HD
HETATM   11  H   UNL     1      22.479  48.171  50.505  1.00  0.00     0.164 HD
BRANCH   8  12
HETATM   12  C   UNL     1      20.312  48.869  48.876  1.00  0.00     0.036 A 
HETATM   13  C   UNL     1      19.349  48.932  49.884  1.00  0.00     0.032 A 
HETATM   14  C   UNL     1      18.740  50.151  50.209  1.00  0.00     0.039 A 
HETATM   15  C   UNL     1      19.101  51.329  49.557  1.00  0.00     0.068 A 
HETATM   16  C   UNL     1      20.066  51.278  48.556  1.00  0.00     0.039 A 
HETATM   17  C   UNL     1      20.669  50.056  48.223  1.00  0.00     0.032 A 
BRANCH  15  18
HETATM   18  O   UNL     1      18.443  52.447  49.986  1.00  0.00    -0.356 OA
HETATM   19  C   UNL     1      17.023  52.421  49.911  1.00  0.00     0.210 C 
ENDBRANCH  15  18
ENDBRANCH   8  12
ENDBRANCH   5   6
ENDBRANCH   2   5
BRANCH   1  20
HETATM   20  N   UNL     1      24.640  44.355  51.009  1.00  0.00    -0.249 N 
HETATM   21  C   UNL     1      25.767  43.862  51.634  1.00  0.00     0.339 C 
HETATM   22  N   UNL     1      26.233  44.658  52.652  1.00  0.00    -0.307 N 
HETATM   23  O   UNL     1      26.221  42.782  51.274  1.00  0.00    -0.245 OA
HETATM   24  H   UNL     1      25.634  45.444  52.849  1.00  0.00     0.170 HD
HETATM   25  H   UNL     1      24.425  43.866  50.139  1.00  0.00     0.192 HD
BRANCH  22  26
HETATM   26  C   UNL     1      27.363  44.447  53.471  1.00  0.00     0.042 A 
HETATM   27  C   UNL     1      27.797  45.486  54.323  1.00  0.00    -0.034 A 
HETATM   28  C   UNL     1      27.079  46.806  54.411  1.00  0.00     0.050 C 
HETATM   29  C   UNL     1      28.934  45.288  55.130  1.00  0.00     0.032 A 
HETATM   30  C   UNL     1      29.628  44.080  55.096  1.00  0.00     0.034 A 
HETATM   31  C   UNL     1      29.204  43.056  54.261  1.00  0.00     0.026 A 
HETATM   32 CL   UNL     1      31.013  43.858  56.092  1.00  0.00    -0.084 Cl
HETATM   33  C   UNL     1      28.079  43.241  53.453  1.00  0.00     0.032 A 
ENDBRANCH  22  26
ENDBRANCH   1  20
TORSDOF 6
ENDMDL
MODEL 10
REMARK VINA RESULT:      -8.4     12.016     14.464
REMARK  6 active torsions:
REMARK  status: ('A' for Active; 'I' for Inactive)
REMARK    1  A    between atoms: C_3  and  N_4 
REMARK       I    between atoms: N_4  and  C_5 
REMARK       I    between atoms: C_5  and  N_6 
REMARK    2  A    between atoms: N_6  and  N_7 
REMARK       I    between atoms: N_7  and  C_8 
REMARK    3  A    between atoms: C_8  and  C_9 
REMARK    4  A    between atoms: C_9  and  N_10 
REMARK       I    between atoms: N_10  and  C_11 
REMARK       I    between atoms: C_11  and  N_12 
REMARK    5  A    between atoms: N_12  and  C_13 
REMARK    6  A    between atoms: C_16  and  O_17 
ROOT
HETATM    1  N   UNL     1      26.909  47.003  39.240  1.00  0.00    -0.265 N 
HETATM    2  C   UNL     1      25.843  46.937  40.128  1.00  0.00     0.253 C 
HETATM    3  O   UNL     1      25.738  46.038  40.964  1.00  0.00    -0.270 OA
HETATM    4  H   UNL     1      27.167  47.941  38.910  1.00  0.00     0.190 HD
ENDROOT
BRANCH   2   5
HETATM    5  C   UNL     1      24.936  48.168  40.156  1.00  0.00     0.228 C 
BRANCH   5   6
HETATM    6  N   UNL     1      25.532  49.443  39.800  1.00  0.00    -0.334 N 
HETATM    7  C   UNL     1      25.826  49.789  38.524  1.00  0.00     0.321 C 
HETATM    8  N   UNL     1      26.656  50.847  38.330  1.00  0.00    -0.309 N 
HETATM    9  O   UNL     1      25.312  49.208  37.568  1.00  0.00    -0.247 OA
HETATM   10  H   UNL     1      26.665  51.145  37.363  1.00  0.00     0.170 HD
HETATM   11  H   UNL     1      25.481  50.200  40.469  1.00  0.00     0.164 HD
BRANCH   8  12
HETATM   12  C   UNL     1      27.620  51.451  39.166  1.00  0.00     0.036 A 
HETATM   13  C   UNL     1      27.703  51.266  40.547  1.00  0.00     0.032 A 
HETATM   14  C   UNL     1      28.724  51.876  41.286  1.00  0.00     0.039 A 
HETATM   15  C   UNL     1      29.696  52.653  40.659  1.00  0.00     0.068 A 
HETATM   16  C   UNL     1      29.628  52.837  39.281  1.00  0.00     0.039 A 
HETATM   17  C   UNL     1      28.598  52.236  38.542  1.00  0.00     0.032 A 
BRANCH  15  18
HETATM   18  O   UNL     1      30.645  53.171  41.494  1.00  0.00    -0.356 OA
HETATM   19  C   UNL     1      30.512  52.866  42.877  1.00  0.00     0.210 C 
ENDBRANCH  15  18
ENDBRANCH   8  12
ENDBRANCH   5   6
ENDBRANCH   2   5
BRANCH   1  20
HETATM   20  N   UNL     1      27.979  46.121  39.527  1.00  0.00    -0.249 N 
HETATM   21  C   UNL     1      29.214  46.575  39.943  1.00  0.00     0.339 C 
HETATM   22  N   UNL     1      29.181  47.813  40.539  1.00  0.00    -0.307 N 
HETATM   23  O   UNL     1      30.194  45.855  39.789  1.00  0.00    -0.245 OA
HETATM   24  H   UNL     1      28.247  48.170  40.662  1.00  0.00     0.170 HD
HETATM   25  H   UNL     1      28.044  45.306  38.916  1.00  0.00     0.192 HD
BRANCH  22  26
HETATM   26  C   UNL     1      30.264  48.557  41.055  1.00  0.00     0.042 A 
HETATM   27  C   UNL     1      31.101  49.260  40.160  1.00  0.00    -0.034 A 
HETATM   28  C   UNL     1      30.863  49.267  38.674  1.00  0.00     0.050 C 
HETATM   29  C   UNL     1      32.193  49.990  40.666  1.00  0.00     0.032 A 
HETATM   30  C   UNL     1      32.451  50.027  42.035  1.00  0.00     0.034 A 
HETATM   31  C   UNL     1      31.631  49.338  42.917  1.00  0.00     0.026 A 
HETATM   32 CL   UNL     1      33.790  50.926  42.632  1.00  0.00    -0.084 Cl
HETATM   33  C   UNL     1      30.545  48.607  42.427  1.00  0.00     0.032 A 
ENDBRANCH  22  26
ENDBRANCH   1  20
TORSDOF 6
ENDMDL
