MODEL 1
REMARK VINA RESULT:      -9.3      0.000      0.000
REMARK  7 active torsions:
REMARK  status: ('A' for Active; 'I' for Inactive)
REMARK    1  A    between atoms: O_2  and  C_3 
REMARK    2  A    between atoms: C_6  and  C_7 
REMARK    3  A    between atoms: N_8  and  N_9 
REMARK       I    between atoms: N_9  and  C_10 
REMARK    4  A    between atoms: C_10  and  C_11 
REMARK       I    between atoms: C_11  and  N_12 
REMARK    5  A    between atoms: N_12  and  C_13 
REMARK    6  A    between atoms: C_14  and  C_15 
REMARK       I    between atoms: C_15  and  N_16 
REMARK    7  A    between atoms: N_16  and  C_17 
ROOT
HETATM    1  C   UNL     1      22.614  47.945  48.598  1.00  0.00     0.315 C 
HETATM    2  N   UNL     1      21.687  47.125  49.211  1.00  0.00    -0.318 N 
HETATM    3  O   UNL     1      22.621  48.389  47.461  1.00  0.00    -0.262 OA
HETATM    4  H   UNL     1      22.051  46.690  50.060  1.00  0.00     0.169 HD
ENDROOT
BRANCH   2   5
HETATM    5  C   UNL     1      20.550  46.547  48.612  1.00  0.00     0.051 A 
HETATM    6  C   UNL     1      19.234  47.037  48.664  1.00  0.00     0.058 A 
HETATM    7  C   UNL     1      18.226  46.396  47.917  1.00  0.00     0.019 A 
HETATM    8  C   UNL     1      18.501  45.254  47.166  1.00  0.00     0.001 A 
HETATM    9  C   UNL     1      19.788  44.730  47.165  1.00  0.00     0.002 A 
HETATM   10  C   UNL     1      20.800  45.367  47.887  1.00  0.00     0.030 A 
BRANCH   6  11
HETATM   11  C   UNL     1      18.726  48.075  49.604  1.00  0.00     0.254 C 
HETATM   12  N   UNL     1      18.244  49.231  49.017  1.00  0.00    -0.352 N 
HETATM   13  H   UNL     1      18.274  49.296  48.009  1.00  0.00     0.163 HD
HETATM   14  O   UNL     1      18.895  47.944  50.811  1.00  0.00    -0.268 OA
BRANCH  12  15
HETATM   15  C   UNL     1      18.077  50.456  49.793  1.00  0.00     0.084 C 
HETATM   16  C   UNL     1      19.408  51.212  49.909  1.00  0.00     0.025 C 
HETATM   17  C   UNL     1      19.804  51.917  48.613  1.00  0.00     0.002 C 
HETATM   18  C   UNL     1      18.694  52.839  48.120  1.00  0.00     0.000 C 
HETATM   19  C   UNL     1      17.381  52.084  47.950  1.00  0.00     0.002 C 
HETATM   20  C   UNL     1      16.972  51.366  49.234  1.00  0.00     0.025 C 
ENDBRANCH  12  15
ENDBRANCH   6  11
ENDBRANCH   2   5
BRANCH   1  21
HETATM   21  C   UNL     1      23.818  48.213  49.516  1.00  0.00     0.329 C 
HETATM   22  N   UNL     1      23.980  47.243  50.485  1.00  0.00    -0.239 N 
HETATM   23  H   UNL     1      23.311  46.476  50.519  1.00  0.00     0.192 HD
HETATM   24  O   UNL     1      24.484  49.225  49.328  1.00  0.00    -0.261 OA
BRANCH  22  25
HETATM   25  N   UNL     1      24.971  47.361  51.411  1.00  0.00    -0.183 NA
HETATM   26  C   UNL     1      25.259  46.282  52.066  1.00  0.00     0.150 C 
BRANCH  26  27
HETATM   27  C   UNL     1      26.302  46.267  53.114  1.00  0.00    -0.017 A 
HETATM   28  C   UNL     1      26.640  47.432  53.806  1.00  0.00     0.016 A 
HETATM   29  C   UNL     1      27.621  47.387  54.800  1.00  0.00     0.037 A 
HETATM   30  C   UNL     1      28.259  46.185  55.117  1.00  0.00     0.068 A 
HETATM   31  C   UNL     1      27.927  45.025  54.412  1.00  0.00     0.037 A 
HETATM   32  C   UNL     1      26.948  45.065  53.411  1.00  0.00     0.016 A 
BRANCH  30  33
HETATM   33  O   UNL     1      29.192  46.275  56.112  1.00  0.00    -0.356 OA
HETATM   34  C   UNL     1      30.242  45.316  56.090  1.00  0.00     0.210 C 
ENDBRANCH  30  33
ENDBRANCH  26  27
ENDBRANCH  22  25
ENDBRANCH   1  21
TORSDOF 7
ENDMDL
MODEL 2
REMARK VINA RESULT:      -9.0      3.834     10.749
REMARK  7 active torsions:
REMARK  status: ('A' for Active; 'I' for Inactive)
REMARK    1  A    between atoms: O_2  and  C_3 
REMARK    2  A    between atoms: C_6  and  C_7 
REMARK    3  A    between atoms: N_8  and  N_9 
REMARK       I    between atoms: N_9  and  C_10 
REMARK    4  A    between atoms: C_10  and  C_11 
REMARK       I    between atoms: C_11  and  N_12 
REMARK    5  A    between atoms: N_12  and  C_13 
REMARK    6  A    between atoms: C_14  and  C_15 
REMARK       I    between atoms: C_15  and  N_16 
REMARK    7  A    between atoms: N_16  and  C_17 
ROOT
HETATM    1  C   UNL     1      26.698  44.644  51.665  1.00  0.00     0.315 C 
HETATM    2  N   UNL     1      26.799  44.402  53.021  1.00  0.00    -0.318 N 
HETATM    3  O   UNL     1      27.549  44.545  50.796  1.00  0.00    -0.262 OA
HETATM    4  H   UNL     1      26.030  44.816  53.549  1.00  0.00     0.169 HD
ENDROOT
BRANCH   2   5
HETATM    5  C   UNL     1      27.965  44.048  53.727  1.00  0.00     0.051 A 
HETATM    6  C   UNL     1      28.670  42.835  53.628  1.00  0.00     0.058 A 
HETATM    7  C   UNL     1      29.885  42.682  54.325  1.00  0.00     0.019 A 
HETATM    8  C   UNL     1      30.375  43.693  55.151  1.00  0.00     0.001 A 
HETATM    9  C   UNL     1      29.647  44.866  55.302  1.00  0.00     0.002 A 
HETATM   10  C   UNL     1      28.450  45.038  54.601  1.00  0.00     0.030 A 
BRANCH   6  11
HETATM   11  C   UNL     1      28.166  41.581  53.003  1.00  0.00     0.254 C 
HETATM   12  N   UNL     1      28.153  41.562  51.620  1.00  0.00    -0.352 N 
HETATM   13  H   UNL     1      28.475  42.388  51.135  1.00  0.00     0.163 HD
HETATM   14  O   UNL     1      27.650  40.714  53.701  1.00  0.00    -0.268 OA
BRANCH  12  15
HETATM   15  C   UNL     1      27.352  40.587  50.888  1.00  0.00     0.084 C 
HETATM   16  C   UNL     1      26.233  41.285  50.100  1.00  0.00     0.025 C 
HETATM   17  C   UNL     1      26.748  42.009  48.857  1.00  0.00     0.002 C 
HETATM   18  C   UNL     1      27.546  41.072  47.958  1.00  0.00     0.000 C 
HETATM   19  C   UNL     1      28.692  40.416  48.718  1.00  0.00     0.002 C 
HETATM   20  C   UNL     1      28.198  39.692  49.970  1.00  0.00     0.025 C 
ENDBRANCH  12  15
ENDBRANCH   6  11
ENDBRANCH   2   5
BRANCH   1  21
HETATM   21  C   UNL     1      25.312  45.199  51.297  1.00  0.00     0.329 C 
HETATM   22  N   UNL     1      25.371  46.212  50.361  1.00  0.00    -0.239 N 
HETATM   23  H   UNL     1      26.286  46.504  50.020  1.00  0.00     0.192 HD
HETATM   24  O   UNL     1      24.326  44.730  51.854  1.00  0.00    -0.261 OA
BRANCH  22  25
HETATM   25  N   UNL     1      24.233  46.846  49.966  1.00  0.00    -0.183 NA
HETATM   26  C   UNL     1      24.389  48.048  49.510  1.00  0.00     0.150 C 
BRANCH  26  27
HETATM   27  C   UNL     1      23.239  48.861  49.061  1.00  0.00    -0.017 A 
HETATM   28  C   UNL     1      21.976  48.288  48.898  1.00  0.00     0.016 A 
HETATM   29  C   UNL     1      20.904  49.083  48.485  1.00  0.00     0.037 A 
HETATM   30  C   UNL     1      21.080  50.448  48.244  1.00  0.00     0.068 A 
HETATM   31  C   UNL     1      22.348  51.013  48.395  1.00  0.00     0.037 A 
HETATM   32  C   UNL     1      23.429  50.221  48.805  1.00  0.00     0.016 A 
BRANCH  30  33
HETATM   33  O   UNL     1      19.950  51.113  47.853  1.00  0.00    -0.356 OA
HETATM   34  C   UNL     1      19.443  52.090  48.754  1.00  0.00     0.210 C 
ENDBRANCH  30  33
ENDBRANCH  26  27
ENDBRANCH  22  25
ENDBRANCH   1  21
TORSDOF 7
ENDMDL
MODEL 3
REMARK VINA RESULT:      -8.9      2.443     10.362
REMARK  7 active torsions:
REMARK  status: ('A' for Active; 'I' for Inactive)
REMARK    1  A    between atoms: O_2  and  C_3 
REMARK    2  A    between atoms: C_6  and  C_7 
REMARK    3  A    between atoms: N_8  and  N_9 
REMARK       I    between atoms: N_9  and  C_10 
REMARK    4  A    between atoms: C_10  and  C_11 
REMARK       I    between atoms: C_11  and  N_12 
REMARK    5  A    between atoms: N_12  and  C_13 
REMARK    6  A    between atoms: C_14  and  C_15 
REMARK       I    between atoms: C_15  and  N_16 
REMARK    7  A    between atoms: N_16  and  C_17 
ROOT
HETATM    1  C   UNL     1      22.452  47.631  48.608  1.00  0.00     0.315 C 
HETATM    2  N   UNL     1      23.287  48.325  49.461  1.00  0.00    -0.318 N 
HETATM    3  O   UNL     1      22.735  46.836  47.726  1.00  0.00    -0.262 OA
HETATM    4  H   UNL     1      22.818  49.114  49.910  1.00  0.00     0.169 HD
ENDROOT
BRANCH   2   5
HETATM    5  C   UNL     1      24.696  48.319  49.448  1.00  0.00     0.051 A 
HETATM    6  C   UNL     1      25.536  47.346  50.016  1.00  0.00     0.058 A 
HETATM    7  C   UNL     1      26.929  47.433  49.819  1.00  0.00     0.019 A 
HETATM    8  C   UNL     1      27.491  48.494  49.112  1.00  0.00     0.001 A 
HETATM    9  C   UNL     1      26.668  49.491  48.605  1.00  0.00     0.002 A 
HETATM   10  C   UNL     1      25.285  49.408  48.777  1.00  0.00     0.030 A 
BRANCH   6  11
HETATM   11  C   UNL     1      25.125  46.306  51.000  1.00  0.00     0.254 C 
HETATM   12  N   UNL     1      25.934  46.182  52.115  1.00  0.00    -0.352 N 
HETATM   13  H   UNL     1      26.740  46.789  52.183  1.00  0.00     0.163 HD
HETATM   14  O   UNL     1      24.223  45.523  50.723  1.00  0.00    -0.268 OA
BRANCH  12  15
HETATM   15  C   UNL     1      25.887  44.986  52.950  1.00  0.00     0.084 C 
HETATM   16  C   UNL     1      26.635  43.824  52.280  1.00  0.00     0.025 C 
HETATM   17  C   UNL     1      28.153  43.983  52.345  1.00  0.00     0.002 C 
HETATM   18  C   UNL     1      28.631  44.186  53.778  1.00  0.00     0.000 C 
HETATM   19  C   UNL     1      27.933  45.371  54.434  1.00  0.00     0.002 C 
HETATM   20  C   UNL     1      26.412  45.235  54.373  1.00  0.00     0.025 C 
ENDBRANCH  12  15
ENDBRANCH   6  11
ENDBRANCH   2   5
BRANCH   1  21
HETATM   21  C   UNL     1      20.984  48.046  48.801  1.00  0.00     0.329 C 
HETATM   22  N   UNL     1      20.846  49.352  49.223  1.00  0.00    -0.239 N 
HETATM   23  H   UNL     1      21.689  49.902  49.379  1.00  0.00     0.192 HD
HETATM   24  O   UNL     1      20.108  47.213  48.591  1.00  0.00    -0.261 OA
BRANCH  22  25
HETATM   25  N   UNL     1      19.611  49.858  49.491  1.00  0.00    -0.183 NA
HETATM   26  C   UNL     1      19.213  50.812  48.711  1.00  0.00     0.150 C 
BRANCH  26  27
HETATM   27  C   UNL     1      17.901  51.466  48.895  1.00  0.00    -0.017 A 
HETATM   28  C   UNL     1      17.742  52.510  49.809  1.00  0.00     0.016 A 
HETATM   29  C   UNL     1      16.493  53.119  49.954  1.00  0.00     0.037 A 
HETATM   30  C   UNL     1      15.403  52.702  49.185  1.00  0.00     0.068 A 
HETATM   31  C   UNL     1      15.564  51.648  48.282  1.00  0.00     0.037 A 
HETATM   32  C   UNL     1      16.813  51.030  48.135  1.00  0.00     0.016 A 
BRANCH  30  33
HETATM   33  O   UNL     1      14.241  53.384  49.417  1.00  0.00    -0.356 OA
HETATM   34  C   UNL     1      13.810  53.465  50.771  1.00  0.00     0.210 C 
ENDBRANCH  30  33
ENDBRANCH  26  27
ENDBRANCH  22  25
ENDBRANCH   1  21
TORSDOF 7
ENDMDL
MODEL 4
REMARK VINA RESULT:      -8.7      3.326     10.394
REMARK  7 active torsions:
REMARK  status: ('A' for Active; 'I' for Inactive)
REMARK    1  A    between atoms: O_2  and  C_3 
REMARK    2  A    between atoms: C_6  and  C_7 
REMARK    3  A    between atoms: N_8  and  N_9 
REMARK       I    between atoms: N_9  and  C_10 
REMARK    4  A    between atoms: C_10  and  C_11 
REMARK       I    between atoms: C_11  and  N_12 
REMARK    5  A    between atoms: N_12  and  C_13 
REMARK    6  A    between atoms: C_14  and  C_15 
REMARK       I    between atoms: C_15  and  N_16 
REMARK    7  A    between atoms: N_16  and  C_17 
ROOT
HETATM    1  C   UNL     1      24.806  47.445  50.282  1.00  0.00     0.315 C 
HETATM    2  N   UNL     1      24.536  46.459  51.210  1.00  0.00    -0.318 N 
HETATM    3  O   UNL     1      25.850  48.041  50.070  1.00  0.00    -0.262 OA
HETATM    4  H   UNL     1      23.534  46.326  51.357  1.00  0.00     0.169 HD
ENDROOT
BRANCH   2   5
HETATM    5  C   UNL     1      25.415  45.964  52.193  1.00  0.00     0.051 A 
HETATM    6  C   UNL     1      25.819  44.628  52.362  1.00  0.00     0.058 A 
HETATM    7  C   UNL     1      26.794  44.317  53.331  1.00  0.00     0.019 A 
HETATM    8  C   UNL     1      27.329  45.304  54.158  1.00  0.00     0.001 A 
HETATM    9  C   UNL     1      26.883  46.614  54.037  1.00  0.00     0.002 A 
HETATM   10  C   UNL     1      25.931  46.939  53.067  1.00  0.00     0.030 A 
BRANCH   6  11
HETATM   11  C   UNL     1      25.171  43.437  51.748  1.00  0.00     0.254 C 
HETATM   12  N   UNL     1      26.024  42.411  51.384  1.00  0.00    -0.352 N 
HETATM   13  H   UNL     1      27.014  42.539  51.550  1.00  0.00     0.163 HD
HETATM   14  O   UNL     1      23.982  43.471  51.450  1.00  0.00    -0.268 OA
BRANCH  12  15
HETATM   15  C   UNL     1      25.601  41.375  50.447  1.00  0.00     0.084 C 
HETATM   16  C   UNL     1      25.778  41.847  48.997  1.00  0.00     0.025 C 
HETATM   17  C   UNL     1      27.239  41.852  48.551  1.00  0.00     0.002 C 
HETATM   18  C   UNL     1      27.891  40.491  48.765  1.00  0.00     0.000 C 
HETATM   19  C   UNL     1      27.768  40.039  50.216  1.00  0.00     0.002 C 
HETATM   20  C   UNL     1      26.313  40.034  50.683  1.00  0.00     0.025 C 
ENDBRANCH  12  15
ENDBRANCH   6  11
ENDBRANCH   2   5
BRANCH   1  21
HETATM   21  C   UNL     1      23.540  47.853  49.512  1.00  0.00     0.329 C 
HETATM   22  N   UNL     1      23.074  49.102  49.869  1.00  0.00    -0.239 N 
HETATM   23  H   UNL     1      23.576  49.618  50.590  1.00  0.00     0.192 HD
HETATM   24  O   UNL     1      23.067  47.063  48.701  1.00  0.00    -0.261 OA
BRANCH  22  25
HETATM   25  N   UNL     1      21.930  49.589  49.316  1.00  0.00    -0.183 NA
HETATM   26  C   UNL     1      21.234  50.380  50.069  1.00  0.00     0.150 C 
BRANCH  26  27
HETATM   27  C   UNL     1      19.960  50.969  49.605  1.00  0.00    -0.017 A 
HETATM   28  C   UNL     1      18.741  50.568  50.157  1.00  0.00     0.016 A 
HETATM   29  C   UNL     1      17.554  51.150  49.708  1.00  0.00     0.037 A 
HETATM   30  C   UNL     1      17.574  52.139  48.721  1.00  0.00     0.068 A 
HETATM   31  C   UNL     1      18.794  52.527  48.163  1.00  0.00     0.037 A 
HETATM   32  C   UNL     1      19.988  51.944  48.605  1.00  0.00     0.016 A 
BRANCH  30  33
HETATM   33  O   UNL     1      16.345  52.633  48.378  1.00  0.00    -0.356 OA
HETATM   34  C   UNL     1      15.659  51.960  47.329  1.00  0.00     0.210 C 
ENDBRANCH  30  33
ENDBRANCH  26  27
ENDBRANCH  22  25
ENDBRANCH   1  21
TORSDOF 7
ENDMDL
MODEL 5
REMARK VINA RESULT:      -8.4      4.232     10.707
REMARK  7 active torsions:
REMARK  status: ('A' for Active; 'I' for Inactive)
REMARK    1  A    between atoms: O_2  and  C_3 
REMARK    2  A    between atoms: C_6  and  C_7 
REMARK    3  A    between atoms: N_8  and  N_9 
REMARK       I    between atoms: N_9  and  C_10 
REMARK    4  A    between atoms: C_10  and  C_11 
REMARK       I    between atoms: C_11  and  N_12 
REMARK    5  A    between atoms: N_12  and  C_13 
REMARK    6  A    between atoms: C_14  and  C_15 
REMARK       I    between atoms: C_15  and  N_16 
REMARK    7  A    between atoms: N_16  and  C_17 
ROOT
HETATM    1  C   UNL     1      26.586  45.712  51.309  1.00  0.00     0.315 C 
HETATM    2  N   UNL     1      26.710  45.080  52.531  1.00  0.00    -0.318 N 
HETATM    3  O   UNL     1      27.212  45.528  50.277  1.00  0.00    -0.262 OA
HETATM    4  H   UNL     1      26.261  45.600  53.286  1.00  0.00     0.169 HD
ENDROOT
BRANCH   2   5
HETATM    5  C   UNL     1      27.666  44.106  52.881  1.00  0.00     0.051 A 
HETATM    6  C   UNL     1      27.812  42.830  52.310  1.00  0.00     0.058 A 
HETATM    7  C   UNL     1      28.894  42.016  52.701  1.00  0.00     0.019 A 
HETATM    8  C   UNL     1      29.792  42.433  53.682  1.00  0.00     0.001 A 
HETATM    9  C   UNL     1      29.611  43.666  54.295  1.00  0.00     0.002 A 
HETATM   10  C   UNL     1      28.554  44.491  53.902  1.00  0.00     0.030 A 
BRANCH   6  11
HETATM   11  C   UNL     1      26.811  42.139  51.451  1.00  0.00     0.254 C 
HETATM   12  N   UNL     1      27.267  41.018  50.781  1.00  0.00    -0.352 N 
HETATM   13  H   UNL     1      28.234  40.751  50.911  1.00  0.00     0.163 HD
HETATM   14  O   UNL     1      25.718  42.655  51.247  1.00  0.00    -0.268 OA
BRANCH  12  15
HETATM   15  C   UNL     1      26.540  40.476  49.637  1.00  0.00     0.084 C 
HETATM   16  C   UNL     1      27.013  41.132  48.332  1.00  0.00     0.025 C 
HETATM   17  C   UNL     1      28.383  40.629  47.880  1.00  0.00     0.002 C 
HETATM   18  C   UNL     1      28.410  39.109  47.768  1.00  0.00     0.000 C 
HETATM   19  C   UNL     1      27.994  38.449  49.078  1.00  0.00     0.002 C 
HETATM   20  C   UNL     1      26.628  38.944  49.550  1.00  0.00     0.025 C 
ENDBRANCH  12  15
ENDBRANCH   6  11
ENDBRANCH   2   5
BRANCH   1  21
HETATM   21  C   UNL     1      25.558  46.853  51.370  1.00  0.00     0.329 C 
HETATM   22  N   UNL     1      25.105  47.234  50.123  1.00  0.00    -0.239 N 
HETATM   23  H   UNL     1      25.483  46.760  49.305  1.00  0.00     0.192 HD
HETATM   24  O   UNL     1      25.261  47.316  52.466  1.00  0.00    -0.261 OA
BRANCH  22  25
HETATM   25  N   UNL     1      24.229  48.269  50.000  1.00  0.00    -0.183 NA
HETATM   26  C   UNL     1      23.185  48.037  49.270  1.00  0.00     0.150 C 
BRANCH  26  27
HETATM   27  C   UNL     1      22.159  49.075  49.036  1.00  0.00    -0.017 A 
HETATM   28  C   UNL     1      22.520  50.410  48.839  1.00  0.00     0.016 A 
HETATM   29  C   UNL     1      21.530  51.367  48.608  1.00  0.00     0.037 A 
HETATM   30  C   UNL     1      20.182  51.002  48.559  1.00  0.00     0.068 A 
HETATM   31  C   UNL     1      19.825  49.668  48.771  1.00  0.00     0.037 A 
HETATM   32  C   UNL     1      20.812  48.703  49.008  1.00  0.00     0.016 A 
BRANCH  30  33
HETATM   33  O   UNL     1      19.316  52.032  48.318  1.00  0.00    -0.356 OA
HETATM   34  C   UNL     1      17.951  51.684  48.121  1.00  0.00     0.210 C 
ENDBRANCH  30  33
ENDBRANCH  26  27
ENDBRANCH  22  25
ENDBRANCH   1  21
TORSDOF 7
ENDMDL
MODEL 6
REMARK VINA RESULT:      -8.3      1.566      4.221
REMARK  7 active torsions:
REMARK  status: ('A' for Active; 'I' for Inactive)
REMARK    1  A    between atoms: O_2  and  C_3 
REMARK    2  A    between atoms: C_6  and  C_7 
REMARK    3  A    between atoms: N_8  and  N_9 
REMARK       I    between atoms: N_9  and  C_10 
REMARK    4  A    between atoms: C_10  and  C_11 
REMARK       I    between atoms: C_11  and  N_12 
REMARK    5  A    between atoms: N_12  and  C_13 
REMARK    6  A    between atoms: C_14  and  C_15 
REMARK       I    between atoms: C_15  and  N_16 
REMARK    7  A    between atoms: N_16  and  C_17 
ROOT
HETATM    1  C   UNL     1      23.748  49.480  48.492  1.00  0.00     0.315 C 
HETATM    2  N   UNL     1      22.673  49.511  49.358  1.00  0.00    -0.318 N 
HETATM    3  O   UNL     1      23.797  49.782  47.310  1.00  0.00    -0.262 OA
HETATM    4  H   UNL     1      22.836  48.960  50.202  1.00  0.00     0.169 HD
ENDROOT
BRANCH   2   5
HETATM    5  C   UNL     1      21.342  49.840  49.035  1.00  0.00     0.051 A 
HETATM    6  C   UNL     1      20.328  48.948  48.646  1.00  0.00     0.058 A 
HETATM    7  C   UNL     1      19.015  49.428  48.464  1.00  0.00     0.019 A 
HETATM    8  C   UNL     1      18.715  50.781  48.613  1.00  0.00     0.001 A 
HETATM    9  C   UNL     1      19.729  51.675  48.933  1.00  0.00     0.002 A 
HETATM   10  C   UNL     1      21.031  51.209  49.136  1.00  0.00     0.030 A 
BRANCH   6  11
HETATM   11  C   UNL     1      20.527  47.541  48.201  1.00  0.00     0.254 C 
HETATM   12  N   UNL     1      19.514  47.007  47.426  1.00  0.00    -0.352 N 
HETATM   13  H   UNL     1      18.717  47.595  47.222  1.00  0.00     0.163 HD
HETATM   14  O   UNL     1      21.458  46.882  48.652  1.00  0.00    -0.268 OA
BRANCH  12  15
HETATM   15  C   UNL     1      19.384  45.565  47.243  1.00  0.00     0.084 C 
HETATM   16  C   UNL     1      17.914  45.173  47.036  1.00  0.00     0.025 C 
HETATM   17  C   UNL     1      17.395  45.539  45.646  1.00  0.00     0.002 C 
HETATM   18  C   UNL     1      18.276  44.952  44.550  1.00  0.00     0.000 C 
HETATM   19  C   UNL     1      19.729  45.381  44.717  1.00  0.00     0.002 C 
HETATM   20  C   UNL     1      20.265  45.029  46.104  1.00  0.00     0.025 C 
ENDBRANCH  12  15
ENDBRANCH   6  11
ENDBRANCH   2   5
BRANCH   1  21
HETATM   21  C   UNL     1      24.994  48.883  49.166  1.00  0.00     0.329 C 
HETATM   22  N   UNL     1      24.684  47.970  50.153  1.00  0.00    -0.239 N 
HETATM   23  H   UNL     1      23.703  47.789  50.354  1.00  0.00     0.192 HD
HETATM   24  O   UNL     1      26.099  49.266  48.797  1.00  0.00    -0.261 OA
BRANCH  22  25
HETATM   25  N   UNL     1      25.676  47.389  50.883  1.00  0.00    -0.183 NA
HETATM   26  C   UNL     1      25.387  47.129  52.118  1.00  0.00     0.150 C 
BRANCH  26  27
HETATM   27  C   UNL     1      26.372  46.515  53.032  1.00  0.00    -0.017 A 
HETATM   28  C   UNL     1      26.785  45.192  52.856  1.00  0.00     0.016 A 
HETATM   29  C   UNL     1      27.727  44.640  53.728  1.00  0.00     0.037 A 
HETATM   30  C   UNL     1      28.270  45.402  54.766  1.00  0.00     0.068 A 
HETATM   31  C   UNL     1      27.844  46.719  54.945  1.00  0.00     0.037 A 
HETATM   32  C   UNL     1      26.896  47.278  54.078  1.00  0.00     0.016 A 
BRANCH  30  33
HETATM   33  O   UNL     1      29.187  44.746  55.540  1.00  0.00    -0.356 OA
HETATM   34  C   UNL     1      30.173  45.549  56.177  1.00  0.00     0.210 C 
ENDBRANCH  30  33
ENDBRANCH  26  27
ENDBRANCH  22  25
ENDBRANCH   1  21
TORSDOF 7
ENDMDL
MODEL 7
REMARK VINA RESULT:      -8.2      3.007     10.374
REMARK  7 active torsions:
REMARK  status: ('A' for Active; 'I' for Inactive)
REMARK    1  A    between atoms: O_2  and  C_3 
REMARK    2  A    between atoms: C_6  and  C_7 
REMARK    3  A    between atoms: N_8  and  N_9 
REMARK       I    between atoms: N_9  and  C_10 
REMARK    4  A    between atoms: C_10  and  C_11 
REMARK       I    between atoms: C_11  and  N_12 
REMARK    5  A    between atoms: N_12  and  C_13 
REMARK    6  A    between atoms: C_14  and  C_15 
REMARK       I    between atoms: C_15  and  N_16 
REMARK    7  A    between atoms: N_16  and  C_17 
ROOT
HETATM    1  C   UNL     1      25.698  46.157  50.959  1.00  0.00     0.315 C 
HETATM    2  N   UNL     1      25.512  46.268  52.322  1.00  0.00    -0.318 N 
HETATM    3  O   UNL     1      26.728  45.968  50.332  1.00  0.00    -0.262 OA
HETATM    4  H   UNL     1      24.612  46.688  52.561  1.00  0.00     0.169 HD
ENDROOT
BRANCH   2   5
HETATM    5  C   UNL     1      26.515  46.260  53.311  1.00  0.00     0.051 A 
HETATM    6  C   UNL     1      27.258  45.147  53.744  1.00  0.00     0.058 A 
HETATM    7  C   UNL     1      28.305  45.331  54.669  1.00  0.00     0.019 A 
HETATM    8  C   UNL     1      28.585  46.589  55.200  1.00  0.00     0.001 A 
HETATM    9  C   UNL     1      27.809  47.678  54.824  1.00  0.00     0.002 A 
HETATM   10  C   UNL     1      26.781  47.513  53.893  1.00  0.00     0.030 A 
BRANCH   6  11
HETATM   11  C   UNL     1      26.928  43.720  53.475  1.00  0.00     0.254 C 
HETATM   12  N   UNL     1      27.032  43.318  52.156  1.00  0.00    -0.352 N 
HETATM   13  H   UNL     1      27.314  44.009  51.473  1.00  0.00     0.163 HD
HETATM   14  O   UNL     1      26.442  43.027  54.362  1.00  0.00    -0.268 OA
BRANCH  12  15
HETATM   15  C   UNL     1      26.391  42.094  51.688  1.00  0.00     0.084 C 
HETATM   16  C   UNL     1      25.428  42.393  50.530  1.00  0.00     0.025 C 
HETATM   17  C   UNL     1      26.153  42.683  49.217  1.00  0.00     0.002 C 
HETATM   18  C   UNL     1      27.114  41.557  48.852  1.00  0.00     0.000 C 
HETATM   19  C   UNL     1      28.109  41.290  49.975  1.00  0.00     0.002 C 
HETATM   20  C   UNL     1      27.402  41.005  51.299  1.00  0.00     0.025 C 
ENDBRANCH  12  15
ENDBRANCH   6  11
ENDBRANCH   2   5
BRANCH   1  21
HETATM   21  C   UNL     1      24.389  46.410  50.192  1.00  0.00     0.329 C 
HETATM   22  N   UNL     1      24.140  47.751  49.984  1.00  0.00    -0.239 N 
HETATM   23  H   UNL     1      24.804  48.430  50.352  1.00  0.00     0.192 HD
HETATM   24  O   UNL     1      23.706  45.445  49.866  1.00  0.00    -0.261 OA
BRANCH  22  25
HETATM   25  N   UNL     1      22.993  48.146  49.365  1.00  0.00    -0.183 NA
HETATM   26  C   UNL     1      22.780  49.423  49.338  1.00  0.00     0.150 C 
BRANCH  26  27
HETATM   27  C   UNL     1      21.568  49.993  48.713  1.00  0.00    -0.017 A 
HETATM   28  C   UNL     1      20.898  49.311  47.695  1.00  0.00     0.016 A 
HETATM   29  C   UNL     1      19.747  49.867  47.131  1.00  0.00     0.037 A 
HETATM   30  C   UNL     1      19.253  51.093  47.584  1.00  0.00     0.068 A 
HETATM   31  C   UNL     1      19.935  51.777  48.593  1.00  0.00     0.037 A 
HETATM   32  C   UNL     1      21.092  51.228  49.159  1.00  0.00     0.016 A 
BRANCH  30  33
HETATM   33  O   UNL     1      18.116  51.522  46.955  1.00  0.00    -0.356 OA
HETATM   34  C   UNL     1      17.715  50.795  45.800  1.00  0.00     0.210 C 
ENDBRANCH  30  33
ENDBRANCH  26  27
ENDBRANCH  22  25
ENDBRANCH   1  21
TORSDOF 7
ENDMDL
MODEL 8
REMARK VINA RESULT:      -8.2      3.351      4.416
REMARK  7 active torsions:
REMARK  status: ('A' for Active; 'I' for Inactive)
REMARK    1  A    between atoms: O_2  and  C_3 
REMARK    2  A    between atoms: C_6  and  C_7 
REMARK    3  A    between atoms: N_8  and  N_9 
REMARK       I    between atoms: N_9  and  C_10 
REMARK    4  A    between atoms: C_10  and  C_11 
REMARK       I    between atoms: C_11  and  N_12 
REMARK    5  A    between atoms: N_12  and  C_13 
REMARK    6  A    between atoms: C_14  and  C_15 
REMARK       I    between atoms: C_15  and  N_16 
REMARK    7  A    between atoms: N_16  and  C_17 
ROOT
HETATM    1  C   UNL     1      23.453  44.161  49.671  1.00  0.00     0.315 C 
HETATM    2  N   UNL     1      23.422  44.667  48.387  1.00  0.00    -0.318 N 
HETATM    3  O   UNL     1      22.530  43.788  50.377  1.00  0.00    -0.262 OA
HETATM    4  H   UNL     1      24.289  45.145  48.135  1.00  0.00     0.169 HD
ENDROOT
BRANCH   2   5
HETATM    5  C   UNL     1      22.274  44.940  47.617  1.00  0.00     0.051 A 
HETATM    6  C   UNL     1      21.662  46.193  47.439  1.00  0.00     0.058 A 
HETATM    7  C   UNL     1      20.578  46.314  46.546  1.00  0.00     0.019 A 
HETATM    8  C   UNL     1      20.071  45.203  45.874  1.00  0.00     0.001 A 
HETATM    9  C   UNL     1      20.633  43.953  46.099  1.00  0.00     0.002 A 
HETATM   10  C   UNL     1      21.720  43.822  46.967  1.00  0.00     0.030 A 
BRANCH   6  11
HETATM   11  C   UNL     1      21.910  47.410  48.260  1.00  0.00     0.254 C 
HETATM   12  N   UNL     1      23.193  47.925  48.198  1.00  0.00    -0.352 N 
HETATM   13  H   UNL     1      23.865  47.445  47.615  1.00  0.00     0.163 HD
HETATM   14  O   UNL     1      21.058  47.800  49.052  1.00  0.00    -0.268 OA
BRANCH  12  15
HETATM   15  C   UNL     1      23.682  48.854  49.212  1.00  0.00     0.084 C 
HETATM   16  C   UNL     1      24.643  48.147  50.179  1.00  0.00     0.025 C 
HETATM   17  C   UNL     1      26.014  47.878  49.559  1.00  0.00     0.002 C 
HETATM   18  C   UNL     1      26.635  49.156  49.008  1.00  0.00     0.000 C 
HETATM   19  C   UNL     1      25.710  49.836  48.006  1.00  0.00     0.002 C 
HETATM   20  C   UNL     1      24.331  50.107  48.605  1.00  0.00     0.025 C 
ENDBRANCH  12  15
ENDBRANCH   6  11
ENDBRANCH   2   5
BRANCH   1  21
HETATM   21  C   UNL     1      24.877  44.189  50.251  1.00  0.00     0.329 C 
HETATM   22  N   UNL     1      24.924  44.702  51.531  1.00  0.00    -0.239 N 
HETATM   23  H   UNL     1      24.056  45.018  51.958  1.00  0.00     0.192 HD
HETATM   24  O   UNL     1      25.802  43.790  49.551  1.00  0.00    -0.261 OA
BRANCH  22  25
HETATM   25  N   UNL     1      26.120  44.843  52.167  1.00  0.00    -0.183 NA
HETATM   26  C   UNL     1      26.432  43.897  52.994  1.00  0.00     0.150 C 
BRANCH  26  27
HETATM   27  C   UNL     1      27.691  43.928  53.766  1.00  0.00    -0.017 A 
HETATM   28  C   UNL     1      27.964  44.973  54.653  1.00  0.00     0.016 A 
HETATM   29  C   UNL     1      29.157  44.970  55.379  1.00  0.00     0.037 A 
HETATM   30  C   UNL     1      30.076  43.927  55.237  1.00  0.00     0.068 A 
HETATM   31  C   UNL     1      29.805  42.892  54.339  1.00  0.00     0.037 A 
HETATM   32  C   UNL     1      28.613  42.891  53.604  1.00  0.00     0.016 A 
BRANCH  30  33
HETATM   33  O   UNL     1      31.198  44.041  56.010  1.00  0.00    -0.356 OA
HETATM   34  C   UNL     1      31.024  44.600  57.307  1.00  0.00     0.210 C 
ENDBRANCH  30  33
ENDBRANCH  26  27
ENDBRANCH  22  25
ENDBRANCH   1  21
TORSDOF 7
ENDMDL
MODEL 9
REMARK VINA RESULT:      -8.2      2.803      3.849
REMARK  7 active torsions:
REMARK  status: ('A' for Active; 'I' for Inactive)
REMARK    1  A    between atoms: O_2  and  C_3 
REMARK    2  A    between atoms: C_6  and  C_7 
REMARK    3  A    between atoms: N_8  and  N_9 
REMARK       I    between atoms: N_9  and  C_10 
REMARK    4  A    between atoms: C_10  and  C_11 
REMARK       I    between atoms: C_11  and  N_12 
REMARK    5  A    between atoms: N_12  and  C_13 
REMARK    6  A    between atoms: C_14  and  C_15 
REMARK       I    between atoms: C_15  and  N_16 
REMARK    7  A    between atoms: N_16  and  C_17 
ROOT
HETATM    1  C   UNL     1      23.671  43.687  50.303  1.00  0.00     0.315 C 
HETATM    2  N   UNL     1      23.965  44.086  49.015  1.00  0.00    -0.318 N 
HETATM    3  O   UNL     1      22.777  42.955  50.701  1.00  0.00    -0.262 OA
HETATM    4  H   UNL     1      24.583  44.899  48.990  1.00  0.00     0.169 HD
ENDROOT
BRANCH   2   5
HETATM    5  C   UNL     1      23.230  43.784  47.852  1.00  0.00     0.051 A 
HETATM    6  C   UNL     1      22.089  44.457  47.382  1.00  0.00     0.058 A 
HETATM    7  C   UNL     1      21.535  44.095  46.137  1.00  0.00     0.019 A 
HETATM    8  C   UNL     1      22.069  43.048  45.388  1.00  0.00     0.001 A 
HETATM    9  C   UNL     1      23.156  42.339  45.881  1.00  0.00     0.002 A 
HETATM   10  C   UNL     1      23.727  42.700  47.104  1.00  0.00     0.030 A 
BRANCH   6  11
HETATM   11  C   UNL     1      21.255  45.410  48.164  1.00  0.00     0.254 C 
HETATM   12  N   UNL     1      21.501  46.752  47.934  1.00  0.00    -0.352 N 
HETATM   13  H   UNL     1      22.222  46.991  47.267  1.00  0.00     0.163 HD
HETATM   14  O   UNL     1      20.528  44.995  49.061  1.00  0.00    -0.268 OA
BRANCH  12  15
HETATM   15  C   UNL     1      21.051  47.773  48.875  1.00  0.00     0.084 C 
HETATM   16  C   UNL     1      22.148  48.822  49.104  1.00  0.00     0.025 C 
HETATM   17  C   UNL     1      22.308  49.779  47.923  1.00  0.00     0.002 C 
HETATM   18  C   UNL     1      20.984  50.442  47.562  1.00  0.00     0.000 C 
HETATM   19  C   UNL     1      19.902  49.406  47.280  1.00  0.00     0.002 C 
HETATM   20  C   UNL     1      19.733  48.435  48.448  1.00  0.00     0.025 C 
ENDBRANCH  12  15
ENDBRANCH   6  11
ENDBRANCH   2   5
BRANCH   1  21
HETATM   21  C   UNL     1      24.586  44.377  51.328  1.00  0.00     0.329 C 
HETATM   22  N   UNL     1      25.264  43.481  52.130  1.00  0.00    -0.239 N 
HETATM   23  H   UNL     1      25.096  42.486  51.994  1.00  0.00     0.192 HD
HETATM   24  O   UNL     1      24.618  45.602  51.353  1.00  0.00    -0.261 OA
BRANCH  22  25
HETATM   25  N   UNL     1      26.077  43.933  53.125  1.00  0.00    -0.183 NA
HETATM   26  C   UNL     1      27.322  43.590  53.032  1.00  0.00     0.150 C 
BRANCH  26  27
HETATM   27  C   UNL     1      28.314  43.995  54.050  1.00  0.00    -0.017 A 
HETATM   28  C   UNL     1      28.161  45.184  54.767  1.00  0.00     0.016 A 
HETATM   29  C   UNL     1      29.109  45.537  55.731  1.00  0.00     0.037 A 
HETATM   30  C   UNL     1      30.201  44.706  55.995  1.00  0.00     0.068 A 
HETATM   31  C   UNL     1      30.356  43.526  55.265  1.00  0.00     0.037 A 
HETATM   32  C   UNL     1      29.413  43.168  54.293  1.00  0.00     0.016 A 
BRANCH  30  33
HETATM   33  O   UNL     1      31.048  45.163  56.966  1.00  0.00    -0.356 OA
HETATM   34  C   UNL     1      30.450  45.578  58.189  1.00  0.00     0.210 C 
ENDBRANCH  30  33
ENDBRANCH  26  27
ENDBRANCH  22  25
ENDBRANCH   1  21
TORSDOF 7
ENDMDL
MODEL 10
REMARK VINA RESULT:      -8.0      1.789      2.085
REMARK  7 active torsions:
REMARK  status: ('A' for Active; 'I' for Inactive)
REMARK    1  A    between atoms: O_2  and  C_3 
REMARK    2  A    between atoms: C_6  and  C_7 
REMARK    3  A    between atoms: N_8  and  N_9 
REMARK       I    between atoms: N_9  and  C_10 
REMARK    4  A    between atoms: C_10  and  C_11 
REMARK       I    between atoms: C_11  and  N_12 
REMARK    5  A    between atoms: N_12  and  C_13 
REMARK    6  A    between atoms: C_14  and  C_15 
REMARK       I    between atoms: C_15  and  N_16 
REMARK    7  A    between atoms: N_16  and  C_17 
ROOT
HETATM    1  C   UNL     1      22.785  45.523  48.743  1.00  0.00     0.315 C 
HETATM    2  N   UNL     1      22.579  46.420  47.714  1.00  0.00    -0.318 N 
HETATM    3  O   UNL     1      22.090  44.586  49.102  1.00  0.00    -0.262 OA
HETATM    4  H   UNL     1      23.162  47.254  47.800  1.00  0.00     0.169 HD
ENDROOT
BRANCH   2   5
HETATM    5  C   UNL     1      21.449  46.493  46.875  1.00  0.00     0.051 A 
HETATM    6  C   UNL     1      20.312  47.297  47.067  1.00  0.00     0.058 A 
HETATM    7  C   UNL     1      19.314  47.334  46.072  1.00  0.00     0.019 A 
HETATM    8  C   UNL     1      19.412  46.549  44.925  1.00  0.00     0.001 A 
HETATM    9  C   UNL     1      20.503  45.704  44.764  1.00  0.00     0.002 A 
HETATM   10  C   UNL     1      21.508  45.673  45.733  1.00  0.00     0.030 A 
BRANCH   6  11
HETATM   11  C   UNL     1      19.935  47.988  48.331  1.00  0.00     0.254 C 
HETATM   12  N   UNL     1      19.722  49.351  48.229  1.00  0.00    -0.352 N 
HETATM   13  H   UNL     1      19.841  49.780  47.321  1.00  0.00     0.163 HD
HETATM   14  O   UNL     1      19.985  47.385  49.397  1.00  0.00    -0.268 OA
BRANCH  12  15
HETATM   15  C   UNL     1      19.726  50.205  49.413  1.00  0.00     0.084 C 
HETATM   16  C   UNL     1      20.243  51.609  49.068  1.00  0.00     0.025 C 
HETATM   17  C   UNL     1      19.222  52.442  48.296  1.00  0.00     0.002 C 
HETATM   18  C   UNL     1      17.891  52.516  49.035  1.00  0.00     0.000 C 
HETATM   19  C   UNL     1      17.343  51.125  49.334  1.00  0.00     0.002 C 
HETATM   20  C   UNL     1      18.354  50.274  50.100  1.00  0.00     0.025 C 
ENDBRANCH  12  15
ENDBRANCH   6  11
ENDBRANCH   2   5
BRANCH   1  21
HETATM   21  C   UNL     1      24.039  45.882  49.557  1.00  0.00     0.329 C 
HETATM   22  N   UNL     1      24.491  44.835  50.334  1.00  0.00    -0.239 N 
HETATM   23  H   UNL     1      23.972  43.959  50.317  1.00  0.00     0.192 HD
HETATM   24  O   UNL     1      24.493  47.017  49.463  1.00  0.00    -0.261 OA
BRANCH  22  25
HETATM   25  N   UNL     1      25.564  45.007  51.156  1.00  0.00    -0.183 NA
HETATM   26  C   UNL     1      25.288  45.303  52.385  1.00  0.00     0.150 C 
BRANCH  26  27
HETATM   27  C   UNL     1      26.353  45.534  53.384  1.00  0.00    -0.017 A 
HETATM   28  C   UNL     1      27.413  44.635  53.523  1.00  0.00     0.016 A 
HETATM   29  C   UNL     1      28.412  44.885  54.466  1.00  0.00     0.037 A 
HETATM   30  C   UNL     1      28.368  46.031  55.265  1.00  0.00     0.068 A 
HETATM   31  C   UNL     1      27.299  46.919  55.132  1.00  0.00     0.037 A 
HETATM   32  C   UNL     1      26.291  46.673  54.191  1.00  0.00     0.016 A 
BRANCH  30  33
HETATM   33  O   UNL     1      29.410  46.160  56.141  1.00  0.00    -0.356 OA
HETATM   34  C   UNL     1      29.086  46.123  57.526  1.00  0.00     0.210 C 
ENDBRANCH  30  33
ENDBRANCH  26  27
ENDBRANCH  22  25
ENDBRANCH   1  21
TORSDOF 7
ENDMDL
