MODEL 1
REMARK VINA RESULT:      -8.8      0.000      0.000
REMARK  7 active torsions:
REMARK  status: ('A' for Active; 'I' for Inactive)
REMARK    1  A    between atoms: O_2  and  C_3 
REMARK    2  A    between atoms: C_6  and  C_7 
REMARK    3  A    between atoms: C_7  and  C_8 
REMARK    4  A    between atoms: C_8  and  C_9 
REMARK    5  A    between atoms: C_9  and  O_10 
REMARK    6  A    between atoms: N_13  and  C_14 
REMARK    7  A    between atoms: C_14  and  N_15 
ROOT
HETATM    1  C   UNL     1      26.726  44.166  51.396  1.00  0.00     0.175 C 
HETATM    2  C   UNL     1      26.007  45.527  51.702  1.00  0.00     0.265 C 
HETATM    3  O   UNL     1      26.054  46.246  52.691  1.00  0.00    -0.269 OA
HETATM    4  N   UNL     1      25.220  45.853  50.588  1.00  0.00    -0.289 N 
HETATM    5  C   UNL     1      25.019  44.706  49.807  1.00  0.00     0.049 A 
HETATM    6  C   UNL     1      25.831  43.663  50.279  1.00  0.00     0.014 A 
HETATM    7  C   UNL     1      24.146  44.524  48.748  1.00  0.00     0.032 A 
HETATM    8  C   UNL     1      24.095  43.258  48.155  1.00  0.00     0.021 A 
HETATM    9  C   UNL     1      24.908  42.213  48.624  1.00  0.00     0.011 A 
HETATM   10 BR   UNL     1      24.812  40.518  47.794  1.00  0.00    -0.051 Br
HETATM   11  C   UNL     1      25.792  42.408  49.688  1.00  0.00     0.032 A 
ENDROOT
BRANCH   1  12
HETATM   12  C   UNL     1      26.805  43.268  52.631  1.00  0.00     0.137 C 
BRANCH  12  13
HETATM   13  C   UNL     1      28.232  42.827  52.934  1.00  0.00     0.163 C 
HETATM   14  O   UNL     1      28.808  41.954  52.288  1.00  0.00    -0.292 OA
BRANCH  13  15
HETATM   15  C   UNL     1      28.977  43.492  54.048  1.00  0.00     0.010 A 
HETATM   16  C   UNL     1      30.188  43.004  54.552  1.00  0.00     0.018 A 
HETATM   17  C   UNL     1      30.839  43.674  55.599  1.00  0.00     0.037 A 
HETATM   18  C   UNL     1      30.286  44.830  56.150  1.00  0.00     0.068 A 
HETATM   19  C   UNL     1      29.077  45.312  55.651  1.00  0.00     0.037 A 
HETATM   20  C   UNL     1      28.426  44.652  54.607  1.00  0.00     0.018 A 
BRANCH  18  21
HETATM   21  O   UNL     1      30.816  45.572  57.167  1.00  0.00    -0.356 OA
HETATM   22  C   UNL     1      29.952  45.909  58.246  1.00  0.00     0.210 C 
ENDBRANCH  18  21
ENDBRANCH  13  15
ENDBRANCH  12  13
ENDBRANCH   1  12
BRANCH   1  23
HETATM   23  O   UNL     1      28.016  44.326  50.816  1.00  0.00    -0.375 OA
HETATM   24  H   UNL     1      28.349  45.224  50.974  1.00  0.00     0.211 HD
ENDBRANCH   1  23
BRANCH   4  25
HETATM   25  C   UNL     1      24.365  47.006  50.561  1.00  0.00     0.367 C 
BRANCH  25  26
HETATM   26  N   UNL     1      25.040  48.166  49.893  1.00  0.00    -0.055 N 
HETATM   27  H   UNL     1      25.105  48.874  50.654  1.00  0.00     0.281 HD
HETATM   28  C   UNL     1      26.460  47.900  49.468  1.00  0.00     0.237 C 
HETATM   29  C   UNL     1      27.105  49.215  49.049  1.00  0.00     0.028 C 
HETATM   30  C   UNL     1      26.304  49.914  47.954  1.00  0.00     0.003 C 
HETATM   31  C   UNL     1      24.843  50.086  48.357  1.00  0.00     0.028 C 
HETATM   32  C   UNL     1      24.215  48.771  48.796  1.00  0.00     0.237 C 
ENDBRANCH  25  26
ENDBRANCH   4  25
TORSDOF 7
ENDMDL
MODEL 2
REMARK VINA RESULT:      -8.4      2.815      5.259
REMARK  7 active torsions:
REMARK  status: ('A' for Active; 'I' for Inactive)
REMARK    1  A    between atoms: O_2  and  C_3 
REMARK    2  A    between atoms: C_6  and  C_7 
REMARK    3  A    between atoms: C_7  and  C_8 
REMARK    4  A    between atoms: C_8  and  C_9 
REMARK    5  A    between atoms: C_9  and  O_10 
REMARK    6  A    between atoms: N_13  and  C_14 
REMARK    7  A    between atoms: C_14  and  N_15 
ROOT
HETATM    1  C   UNL     1      26.925  42.754  51.608  1.00  0.00     0.175 C 
HETATM    2  C   UNL     1      26.691  41.447  50.771  1.00  0.00     0.265 C 
HETATM    3  O   UNL     1      27.271  40.370  50.801  1.00  0.00    -0.269 OA
HETATM    4  N   UNL     1      25.626  41.688  49.892  1.00  0.00    -0.289 N 
HETATM    5  C   UNL     1      25.430  43.071  49.766  1.00  0.00     0.049 A 
HETATM    6  C   UNL     1      26.220  43.750  50.707  1.00  0.00     0.014 A 
HETATM    7  C   UNL     1      24.639  43.752  48.856  1.00  0.00     0.032 A 
HETATM    8  C   UNL     1      24.648  45.150  48.902  1.00  0.00     0.021 A 
HETATM    9  C   UNL     1      25.435  45.832  49.845  1.00  0.00     0.011 A 
HETATM   10 BR   UNL     1      25.418  47.721  49.876  1.00  0.00    -0.051 Br
HETATM   11  C   UNL     1      26.225  45.137  50.763  1.00  0.00     0.032 A 
ENDROOT
BRANCH   1  12
HETATM   12  C   UNL     1      28.410  43.023  51.852  1.00  0.00     0.137 C 
BRANCH  12  13
HETATM   13  C   UNL     1      28.875  42.514  53.211  1.00  0.00     0.163 C 
HETATM   14  O   UNL     1      28.958  41.317  53.478  1.00  0.00    -0.292 OA
BRANCH  13  15
HETATM   15  C   UNL     1      29.268  43.503  54.261  1.00  0.00     0.010 A 
HETATM   16  C   UNL     1      28.545  44.675  54.511  1.00  0.00     0.018 A 
HETATM   17  C   UNL     1      28.965  45.565  55.512  1.00  0.00     0.037 A 
HETATM   18  C   UNL     1      30.107  45.293  56.266  1.00  0.00     0.068 A 
HETATM   19  C   UNL     1      30.829  44.128  56.011  1.00  0.00     0.037 A 
HETATM   20  C   UNL     1      30.415  43.237  55.020  1.00  0.00     0.018 A 
BRANCH  18  21
HETATM   21  O   UNL     1      30.621  46.073  57.263  1.00  0.00    -0.356 OA
HETATM   22  C   UNL     1      30.751  45.483  58.550  1.00  0.00     0.210 C 
ENDBRANCH  18  21
ENDBRANCH  13  15
ENDBRANCH  12  13
ENDBRANCH   1  12
BRANCH   1  23
HETATM   23  O   UNL     1      26.210  42.772  52.839  1.00  0.00    -0.375 OA
HETATM   24  H   UNL     1      25.937  41.874  53.086  1.00  0.00     0.211 HD
ENDBRANCH   1  23
BRANCH   4  25
HETATM   25  C   UNL     1      25.195  40.722  48.922  1.00  0.00     0.367 C 
BRANCH  25  26
HETATM   26  N   UNL     1      26.354  40.182  48.141  1.00  0.00    -0.055 N 
HETATM   27  H   UNL     1      27.160  40.315  48.787  1.00  0.00     0.281 HD
HETATM   28  C   UNL     1      26.291  38.701  47.876  1.00  0.00     0.237 C 
HETATM   29  C   UNL     1      27.630  38.242  47.314  1.00  0.00     0.028 C 
HETATM   30  C   UNL     1      28.018  39.028  46.065  1.00  0.00     0.003 C 
HETATM   31  C   UNL     1      27.980  40.531  46.319  1.00  0.00     0.028 C 
HETATM   32  C   UNL     1      26.647  40.976  46.902  1.00  0.00     0.237 C 
ENDBRANCH  25  26
ENDBRANCH   4  25
TORSDOF 7
ENDMDL
MODEL 3
REMARK VINA RESULT:      -8.4      2.767      5.242
REMARK  7 active torsions:
REMARK  status: ('A' for Active; 'I' for Inactive)
REMARK    1  A    between atoms: O_2  and  C_3 
REMARK    2  A    between atoms: C_6  and  C_7 
REMARK    3  A    between atoms: C_7  and  C_8 
REMARK    4  A    between atoms: C_8  and  C_9 
REMARK    5  A    between atoms: C_9  and  O_10 
REMARK    6  A    between atoms: N_13  and  C_14 
REMARK    7  A    between atoms: C_14  and  N_15 
ROOT
HETATM    1  C   UNL     1      25.970  43.799  51.995  1.00  0.00     0.175 C 
HETATM    2  C   UNL     1      26.185  42.370  51.383  1.00  0.00     0.265 C 
HETATM    3  O   UNL     1      27.015  41.510  51.644  1.00  0.00    -0.269 OA
HETATM    4  N   UNL     1      25.209  42.179  50.395  1.00  0.00    -0.289 N 
HETATM    5  C   UNL     1      24.679  43.421  50.016  1.00  0.00     0.049 A 
HETATM    6  C   UNL     1      25.147  44.421  50.883  1.00  0.00     0.014 A 
HETATM    7  C   UNL     1      23.857  43.718  48.943  1.00  0.00     0.032 A 
HETATM    8  C   UNL     1      23.499  45.056  48.745  1.00  0.00     0.021 A 
HETATM    9  C   UNL     1      23.963  46.058  49.614  1.00  0.00     0.011 A 
HETATM   10 BR   UNL     1      23.456  47.854  49.314  1.00  0.00    -0.051 Br
HETATM   11  C   UNL     1      24.787  45.749  50.698  1.00  0.00     0.032 A 
ENDROOT
BRANCH   1  12
HETATM   12  C   UNL     1      27.295  44.498  52.303  1.00  0.00     0.137 C 
BRANCH  12  13
HETATM   13  C   UNL     1      27.220  45.349  53.566  1.00  0.00     0.163 C 
HETATM   14  O   UNL     1      26.313  46.152  53.772  1.00  0.00    -0.292 OA
BRANCH  13  15
HETATM   15  C   UNL     1      28.278  45.191  54.611  1.00  0.00     0.010 A 
HETATM   16  C   UNL     1      28.468  46.112  55.647  1.00  0.00     0.018 A 
HETATM   17  C   UNL     1      29.479  45.908  56.599  1.00  0.00     0.037 A 
HETATM   18  C   UNL     1      30.306  44.787  56.522  1.00  0.00     0.068 A 
HETATM   19  C   UNL     1      30.120  43.873  55.486  1.00  0.00     0.037 A 
HETATM   20  C   UNL     1      29.114  44.069  54.537  1.00  0.00     0.018 A 
BRANCH  18  21
HETATM   21  O   UNL     1      31.322  44.473  57.379  1.00  0.00    -0.356 OA
HETATM   22  C   UNL     1      31.997  43.240  57.166  1.00  0.00     0.210 C 
ENDBRANCH  18  21
ENDBRANCH  13  15
ENDBRANCH  12  13
ENDBRANCH   1  12
BRANCH   1  23
HETATM   23  O   UNL     1      25.130  43.801  53.145  1.00  0.00    -0.375 OA
HETATM   24  H   UNL     1      25.104  42.918  53.547  1.00  0.00     0.211 HD
ENDBRANCH   1  23
BRANCH   4  25
HETATM   25  C   UNL     1      25.162  41.000  49.578  1.00  0.00     0.367 C 
BRANCH  25  26
HETATM   26  N   UNL     1      26.540  40.486  49.288  1.00  0.00    -0.055 N 
HETATM   27  H   UNL     1      27.114  40.898  50.052  1.00  0.00     0.281 HD
HETATM   28  C   UNL     1      26.690  38.995  49.429  1.00  0.00     0.237 C 
HETATM   29  C   UNL     1      28.170  38.639  49.365  1.00  0.00     0.028 C 
HETATM   30  C   UNL     1      28.822  39.158  48.087  1.00  0.00     0.003 C 
HETATM   31  C   UNL     1      28.575  40.652  47.904  1.00  0.00     0.028 C 
HETATM   32  C   UNL     1      27.096  41.000  47.993  1.00  0.00     0.237 C 
ENDBRANCH  25  26
ENDBRANCH   4  25
TORSDOF 7
ENDMDL
MODEL 4
REMARK VINA RESULT:      -8.4      2.132      2.886
REMARK  7 active torsions:
REMARK  status: ('A' for Active; 'I' for Inactive)
REMARK    1  A    between atoms: O_2  and  C_3 
REMARK    2  A    between atoms: C_6  and  C_7 
REMARK    3  A    between atoms: C_7  and  C_8 
REMARK    4  A    between atoms: C_8  and  C_9 
REMARK    5  A    between atoms: C_9  and  O_10 
REMARK    6  A    between atoms: N_13  and  C_14 
REMARK    7  A    between atoms: C_14  and  N_15 
ROOT
HETATM    1  C   UNL     1      26.681  43.142  51.553  1.00  0.00     0.175 C 
HETATM    2  C   UNL     1      25.171  43.556  51.662  1.00  0.00     0.265 C 
HETATM    3  O   UNL     1      24.570  44.138  52.555  1.00  0.00    -0.269 OA
HETATM    4  N   UNL     1      24.527  43.132  50.492  1.00  0.00    -0.289 N 
HETATM    5  C   UNL     1      25.310  42.160  49.854  1.00  0.00     0.049 A 
HETATM    6  C   UNL     1      26.564  42.076  50.479  1.00  0.00     0.014 A 
HETATM    7  C   UNL     1      24.969  41.331  48.799  1.00  0.00     0.032 A 
HETATM    8  C   UNL     1      25.919  40.399  48.367  1.00  0.00     0.021 A 
HETATM    9  C   UNL     1      27.175  40.316  48.989  1.00  0.00     0.011 A 
HETATM   10 BR   UNL     1      28.433  39.045  48.375  1.00  0.00    -0.051 Br
HETATM   11  C   UNL     1      27.514  41.161  50.048  1.00  0.00     0.032 A 
ENDROOT
BRANCH   1  12
HETATM   12  C   UNL     1      27.246  42.667  52.892  1.00  0.00     0.137 C 
BRANCH  12  13
HETATM   13  C   UNL     1      28.712  43.044  53.067  1.00  0.00     0.163 C 
HETATM   14  O   UNL     1      29.588  42.681  52.285  1.00  0.00    -0.292 OA
BRANCH  13  15
HETATM   15  C   UNL     1      29.107  43.908  54.223  1.00  0.00     0.010 A 
HETATM   16  C   UNL     1      28.417  45.074  54.572  1.00  0.00     0.018 A 
HETATM   17  C   UNL     1      28.837  45.842  55.669  1.00  0.00     0.037 A 
HETATM   18  C   UNL     1      29.946  45.453  56.420  1.00  0.00     0.068 A 
HETATM   19  C   UNL     1      30.636  44.295  56.067  1.00  0.00     0.037 A 
HETATM   20  C   UNL     1      30.222  43.524  54.979  1.00  0.00     0.018 A 
BRANCH  18  21
HETATM   21  O   UNL     1      30.456  46.109  57.505  1.00  0.00    -0.356 OA
HETATM   22  C   UNL     1      30.983  45.314  58.559  1.00  0.00     0.210 C 
ENDBRANCH  18  21
ENDBRANCH  13  15
ENDBRANCH  12  13
ENDBRANCH   1  12
BRANCH   1  23
HETATM   23  O   UNL     1      27.508  44.160  50.999  1.00  0.00    -0.375 OA
HETATM   24  H   UNL     1      27.151  44.460  50.147  1.00  0.00     0.211 HD
ENDBRANCH   1  23
BRANCH   4  25
HETATM   25  C   UNL     1      23.114  43.285  50.293  1.00  0.00     0.367 C 
BRANCH  25  26
HETATM   26  N   UNL     1      22.781  44.661  49.799  1.00  0.00    -0.055 N 
HETATM   27  H   UNL     1      22.396  45.131  50.644  1.00  0.00     0.281 HD
HETATM   28  C   UNL     1      23.975  45.481  49.389  1.00  0.00     0.237 C 
HETATM   29  C   UNL     1      23.531  46.920  49.160  1.00  0.00     0.028 C 
HETATM   30  C   UNL     1      22.403  47.007  48.137  1.00  0.00     0.003 C 
HETATM   31  C   UNL     1      21.240  46.094  48.512  1.00  0.00     0.028 C 
HETATM   32  C   UNL     1      21.698  44.664  48.761  1.00  0.00     0.237 C 
ENDBRANCH  25  26
ENDBRANCH   4  25
TORSDOF 7
ENDMDL
MODEL 5
REMARK VINA RESULT:      -8.4      3.416      7.839
REMARK  7 active torsions:
REMARK  status: ('A' for Active; 'I' for Inactive)
REMARK    1  A    between atoms: O_2  and  C_3 
REMARK    2  A    between atoms: C_6  and  C_7 
REMARK    3  A    between atoms: C_7  and  C_8 
REMARK    4  A    between atoms: C_8  and  C_9 
REMARK    5  A    between atoms: C_9  and  O_10 
REMARK    6  A    between atoms: N_13  and  C_14 
REMARK    7  A    between atoms: C_14  and  N_15 
ROOT
HETATM    1  C   UNL     1      26.526  44.051  50.932  1.00  0.00     0.175 C 
HETATM    2  C   UNL     1      25.835  42.786  50.311  1.00  0.00     0.265 C 
HETATM    3  O   UNL     1      24.792  42.679  49.680  1.00  0.00    -0.269 OA
HETATM    4  N   UNL     1      26.642  41.676  50.598  1.00  0.00    -0.289 N 
HETATM    5  C   UNL     1      27.514  41.992  51.650  1.00  0.00     0.049 A 
HETATM    6  C   UNL     1      27.438  43.366  51.932  1.00  0.00     0.014 A 
HETATM    7  C   UNL     1      28.325  41.145  52.385  1.00  0.00     0.032 A 
HETATM    8  C   UNL     1      29.075  41.700  53.427  1.00  0.00     0.021 A 
HETATM    9  C   UNL     1      29.003  43.074  53.709  1.00  0.00     0.011 A 
HETATM   10 BR   UNL     1      30.034  43.787  55.123  1.00  0.00    -0.051 Br
HETATM   11  C   UNL     1      28.188  43.924  52.958  1.00  0.00     0.032 A 
ENDROOT
BRANCH   1  12
HETATM   12  C   UNL     1      25.511  45.027  51.527  1.00  0.00     0.137 C 
BRANCH  12  13
HETATM   13  C   UNL     1      26.048  46.451  51.594  1.00  0.00     0.163 C 
HETATM   14  O   UNL     1      26.786  46.840  52.495  1.00  0.00    -0.292 OA
BRANCH  13  15
HETATM   15  C   UNL     1      25.683  47.416  50.510  1.00  0.00     0.010 A 
HETATM   16  C   UNL     1      26.619  48.246  49.884  1.00  0.00     0.018 A 
HETATM   17  C   UNL     1      26.215  49.131  48.873  1.00  0.00     0.037 A 
HETATM   18  C   UNL     1      24.876  49.194  48.483  1.00  0.00     0.068 A 
HETATM   19  C   UNL     1      23.944  48.371  49.112  1.00  0.00     0.037 A 
HETATM   20  C   UNL     1      24.341  47.486  50.117  1.00  0.00     0.018 A 
BRANCH  18  21
HETATM   21  O   UNL     1      24.355  50.008  47.518  1.00  0.00    -0.356 OA
HETATM   22  C   UNL     1      22.998  50.407  47.665  1.00  0.00     0.210 C 
ENDBRANCH  18  21
ENDBRANCH  13  15
ENDBRANCH  12  13
ENDBRANCH   1  12
BRANCH   1  23
HETATM   23  O   UNL     1      27.388  44.727  50.023  1.00  0.00    -0.375 OA
HETATM   24  H   UNL     1      28.303  44.420  50.132  1.00  0.00     0.211 HD
ENDBRANCH   1  23
BRANCH   4  25
HETATM   25  C   UNL     1      26.266  40.338  50.240  1.00  0.00     0.367 C 
BRANCH  25  26
HETATM   26  N   UNL     1      27.207  39.764  49.224  1.00  0.00    -0.055 N 
HETATM   27  H   UNL     1      27.993  40.446  49.216  1.00  0.00     0.281 HD
HETATM   28  C   UNL     1      27.821  38.446  49.618  1.00  0.00     0.237 C 
HETATM   29  C   UNL     1      28.936  38.107  48.638  1.00  0.00     0.028 C 
HETATM   30  C   UNL     1      28.436  38.094  47.196  1.00  0.00     0.003 C 
HETATM   31  C   UNL     1      27.727  39.397  46.841  1.00  0.00     0.028 C 
HETATM   32  C   UNL     1      26.630  39.738  47.840  1.00  0.00     0.237 C 
ENDBRANCH  25  26
ENDBRANCH   4  25
TORSDOF 7
ENDMDL
MODEL 6
REMARK VINA RESULT:      -8.3      4.864      9.809
REMARK  7 active torsions:
REMARK  status: ('A' for Active; 'I' for Inactive)
REMARK    1  A    between atoms: O_2  and  C_3 
REMARK    2  A    between atoms: C_6  and  C_7 
REMARK    3  A    between atoms: C_7  and  C_8 
REMARK    4  A    between atoms: C_8  and  C_9 
REMARK    5  A    between atoms: C_9  and  O_10 
REMARK    6  A    between atoms: N_13  and  C_14 
REMARK    7  A    between atoms: C_14  and  N_15 
ROOT
HETATM    1  C   UNL     1      22.304  48.153  48.799  1.00  0.00     0.175 C 
HETATM    2  C   UNL     1      23.733  47.947  49.414  1.00  0.00     0.265 C 
HETATM    3  O   UNL     1      24.598  48.761  49.704  1.00  0.00    -0.269 OA
HETATM    4  N   UNL     1      23.918  46.571  49.609  1.00  0.00    -0.289 N 
HETATM    5  C   UNL     1      22.990  45.861  48.834  1.00  0.00     0.049 A 
HETATM    6  C   UNL     1      22.056  46.750  48.279  1.00  0.00     0.014 A 
HETATM    7  C   UNL     1      22.950  44.504  48.562  1.00  0.00     0.032 A 
HETATM    8  C   UNL     1      21.941  44.038  47.711  1.00  0.00     0.021 A 
HETATM    9  C   UNL     1      21.004  44.926  47.158  1.00  0.00     0.011 A 
HETATM   10 BR   UNL     1      19.655  44.257  46.016  1.00  0.00    -0.051 Br
HETATM   11  C   UNL     1      21.047  46.292  47.443  1.00  0.00     0.032 A 
ENDROOT
BRANCH   1  12
HETATM   12  C   UNL     1      22.286  49.259  47.744  1.00  0.00     0.137 C 
BRANCH  12  13
HETATM   13  C   UNL     1      21.793  50.587  48.306  1.00  0.00     0.163 C 
HETATM   14  O   UNL     1      22.497  51.316  49.001  1.00  0.00    -0.292 OA
BRANCH  13  15
HETATM   15  C   UNL     1      20.404  51.041  47.985  1.00  0.00     0.010 A 
HETATM   16  C   UNL     1      19.753  52.058  48.693  1.00  0.00     0.018 A 
HETATM   17  C   UNL     1      18.448  52.439  48.344  1.00  0.00     0.037 A 
HETATM   18  C   UNL     1      17.786  51.807  47.290  1.00  0.00     0.068 A 
HETATM   19  C   UNL     1      18.433  50.790  46.590  1.00  0.00     0.037 A 
HETATM   20  C   UNL     1      19.733  50.409  46.931  1.00  0.00     0.018 A 
BRANCH  18  21
HETATM   21  O   UNL     1      16.521  52.082  46.852  1.00  0.00    -0.356 OA
HETATM   22  C   UNL     1      15.555  52.436  47.833  1.00  0.00     0.210 C 
ENDBRANCH  18  21
ENDBRANCH  13  15
ENDBRANCH  12  13
ENDBRANCH   1  12
BRANCH   1  23
HETATM   23  O   UNL     1      21.296  48.386  49.778  1.00  0.00    -0.375 OA
HETATM   24  H   UNL     1      21.377  47.749  50.506  1.00  0.00     0.211 HD
ENDBRANCH   1  23
BRANCH   4  25
HETATM   25  C   UNL     1      25.154  46.021  50.090  1.00  0.00     0.367 C 
BRANCH  25  26
HETATM   26  N   UNL     1      25.195  46.008  51.588  1.00  0.00    -0.055 N 
HETATM   27  H   UNL     1      24.226  46.279  51.855  1.00  0.00     0.281 HD
HETATM   28  C   UNL     1      25.413  44.646  52.193  1.00  0.00     0.237 C 
HETATM   29  C   UNL     1      25.176  44.728  53.695  1.00  0.00     0.028 C 
HETATM   30  C   UNL     1      26.056  45.789  54.349  1.00  0.00     0.003 C 
HETATM   31  C   UNL     1      25.901  47.142  53.662  1.00  0.00     0.028 C 
HETATM   32  C   UNL     1      26.117  47.044  52.158  1.00  0.00     0.237 C 
ENDBRANCH  25  26
ENDBRANCH   4  25
TORSDOF 7
ENDMDL
MODEL 7
REMARK VINA RESULT:      -8.1      3.605      6.897
REMARK  7 active torsions:
REMARK  status: ('A' for Active; 'I' for Inactive)
REMARK    1  A    between atoms: O_2  and  C_3 
REMARK    2  A    between atoms: C_6  and  C_7 
REMARK    3  A    between atoms: C_7  and  C_8 
REMARK    4  A    between atoms: C_8  and  C_9 
REMARK    5  A    between atoms: C_9  and  O_10 
REMARK    6  A    between atoms: N_13  and  C_14 
REMARK    7  A    between atoms: C_14  and  N_15 
ROOT
HETATM    1  C   UNL     1      27.637  41.980  52.475  1.00  0.00     0.175 C 
HETATM    2  C   UNL     1      26.406  42.820  51.981  1.00  0.00     0.265 C 
HETATM    3  O   UNL     1      25.741  42.729  50.958  1.00  0.00    -0.269 OA
HETATM    4  N   UNL     1      26.135  43.791  52.954  1.00  0.00    -0.289 N 
HETATM    5  C   UNL     1      27.256  43.949  53.782  1.00  0.00     0.049 A 
HETATM    6  C   UNL     1      28.200  42.949  53.497  1.00  0.00     0.014 A 
HETATM    7  C   UNL     1      27.501  44.931  54.726  1.00  0.00     0.032 A 
HETATM    8  C   UNL     1      28.729  44.899  55.396  1.00  0.00     0.021 A 
HETATM    9  C   UNL     1      29.674  43.898  55.115  1.00  0.00     0.011 A 
HETATM   10 BR   UNL     1      31.320  43.889  56.044  1.00  0.00    -0.051 Br
HETATM   11  C   UNL     1      29.415  42.907  54.166  1.00  0.00     0.032 A 
ENDROOT
BRANCH   1  12
HETATM   12  C   UNL     1      28.579  41.611  51.329  1.00  0.00     0.137 C 
BRANCH  12  13
HETATM   13  C   UNL     1      28.795  40.106  51.219  1.00  0.00     0.163 C 
HETATM   14  O   UNL     1      29.338  39.448  52.104  1.00  0.00    -0.292 OA
BRANCH  13  15
HETATM   15  C   UNL     1      28.311  39.390  49.999  1.00  0.00     0.010 A 
HETATM   16  C   UNL     1      29.122  38.533  49.247  1.00  0.00     0.018 A 
HETATM   17  C   UNL     1      28.609  37.889  48.111  1.00  0.00     0.037 A 
HETATM   18  C   UNL     1      27.287  38.098  47.717  1.00  0.00     0.068 A 
HETATM   19  C   UNL     1      26.481  38.957  48.463  1.00  0.00     0.037 A 
HETATM   20  C   UNL     1      26.985  39.598  49.597  1.00  0.00     0.018 A 
BRANCH  18  21
HETATM   21  O   UNL     1      26.669  37.536  46.636  1.00  0.00    -0.356 OA
HETATM   22  C   UNL     1      25.306  37.159  46.788  1.00  0.00     0.210 C 
ENDBRANCH  18  21
ENDBRANCH  13  15
ENDBRANCH  12  13
ENDBRANCH   1  12
BRANCH   1  23
HETATM   23  O   UNL     1      27.268  40.816  53.208  1.00  0.00    -0.375 OA
HETATM   24  H   UNL     1      26.315  40.653  53.128  1.00  0.00     0.211 HD
ENDBRANCH   1  23
BRANCH   4  25
HETATM   25  C   UNL     1      25.112  44.785  52.786  1.00  0.00     0.367 C 
BRANCH  25  26
HETATM   26  N   UNL     1      25.389  45.652  51.595  1.00  0.00    -0.055 N 
HETATM   27  H   UNL     1      26.154  45.145  51.104  1.00  0.00     0.281 HD
HETATM   28  C   UNL     1      24.257  45.731  50.606  1.00  0.00     0.237 C 
HETATM   29  C   UNL     1      24.754  46.418  49.341  1.00  0.00     0.028 C 
HETATM   30  C   UNL     1      25.347  47.792  49.638  1.00  0.00     0.003 C 
HETATM   31  C   UNL     1      26.423  47.711  50.716  1.00  0.00     0.028 C 
HETATM   32  C   UNL     1      25.924  47.003  51.967  1.00  0.00     0.237 C 
ENDBRANCH  25  26
ENDBRANCH   4  25
TORSDOF 7
ENDMDL
MODEL 8
REMARK VINA RESULT:      -8.0     17.082     18.934
REMARK  7 active torsions:
REMARK  status: ('A' for Active; 'I' for Inactive)
REMARK    1  A    between atoms: O_2  and  C_3 
REMARK    2  A    between atoms: C_6  and  C_7 
REMARK    3  A    between atoms: C_7  and  C_8 
REMARK    4  A    between atoms: C_8  and  C_9 
REMARK    5  A    between atoms: C_9  and  O_10 
REMARK    6  A    between atoms: N_13  and  C_14 
REMARK    7  A    between atoms: C_14  and  N_15 
ROOT
HETATM    1  C   UNL     1      38.229  45.039  64.660  1.00  0.00     0.175 C 
HETATM    2  C   UNL     1      37.428  46.371  64.445  1.00  0.00     0.265 C 
HETATM    3  O   UNL     1      36.313  46.562  63.977  1.00  0.00    -0.269 OA
HETATM    4  N   UNL     1      38.228  47.428  64.899  1.00  0.00    -0.289 N 
HETATM    5  C   UNL     1      39.561  47.001  64.985  1.00  0.00     0.049 A 
HETATM    6  C   UNL     1      39.628  45.613  64.786  1.00  0.00     0.014 A 
HETATM    7  C   UNL     1      40.701  47.761  65.184  1.00  0.00     0.032 A 
HETATM    8  C   UNL     1      41.934  47.100  65.182  1.00  0.00     0.021 A 
HETATM    9  C   UNL     1      42.003  45.711  64.986  1.00  0.00     0.011 A 
HETATM   10 BR   UNL     1      43.688  44.855  64.993  1.00  0.00    -0.051 Br
HETATM   11  C   UNL     1      40.848  44.951  64.793  1.00  0.00     0.032 A 
ENDROOT
BRANCH   1  12
HETATM   12  C   UNL     1      38.024  44.052  63.510  1.00  0.00     0.137 C 
BRANCH  12  13
HETATM   13  C   UNL     1      37.482  42.711  63.990  1.00  0.00     0.163 C 
HETATM   14  O   UNL     1      36.355  42.581  64.462  1.00  0.00    -0.292 OA
BRANCH  13  15
HETATM   15  C   UNL     1      38.343  41.494  63.865  1.00  0.00     0.010 A 
HETATM   16  C   UNL     1      38.850  41.043  62.641  1.00  0.00     0.018 A 
HETATM   17  C   UNL     1      39.653  39.893  62.588  1.00  0.00     0.037 A 
HETATM   18  C   UNL     1      39.952  39.187  63.754  1.00  0.00     0.068 A 
HETATM   19  C   UNL     1      39.441  39.634  64.972  1.00  0.00     0.037 A 
HETATM   20  C   UNL     1      38.644  40.779  65.031  1.00  0.00     0.018 A 
BRANCH  18  21
HETATM   21  O   UNL     1      40.717  38.058  63.840  1.00  0.00    -0.356 OA
HETATM   22  C   UNL     1      41.959  38.163  64.524  1.00  0.00     0.210 C 
ENDBRANCH  18  21
ENDBRANCH  13  15
ENDBRANCH  12  13
ENDBRANCH   1  12
BRANCH   1  23
HETATM   23  O   UNL     1      37.956  44.411  65.907  1.00  0.00    -0.375 OA
HETATM   24  H   UNL     1      37.509  43.560  65.767  1.00  0.00     0.211 HD
ENDBRANCH   1  23
BRANCH   4  25
HETATM   25  C   UNL     1      37.830  48.802  64.781  1.00  0.00     0.367 C 
BRANCH  25  26
HETATM   26  N   UNL     1      37.813  49.480  66.118  1.00  0.00    -0.055 N 
HETATM   27  H   UNL     1      38.750  49.253  66.511  1.00  0.00     0.281 HD
HETATM   28  C   UNL     1      37.754  50.983  66.054  1.00  0.00     0.237 C 
HETATM   29  C   UNL     1      38.004  51.547  67.446  1.00  0.00     0.028 C 
HETATM   30  C   UNL     1      37.022  50.982  68.469  1.00  0.00     0.003 C 
HETATM   31  C   UNL     1      37.018  49.457  68.453  1.00  0.00     0.028 C 
HETATM   32  C   UNL     1      36.791  48.904  67.053  1.00  0.00     0.237 C 
ENDBRANCH  25  26
ENDBRANCH   4  25
TORSDOF 7
ENDMDL
MODEL 9
REMARK VINA RESULT:      -7.8      3.434      5.679
REMARK  7 active torsions:
REMARK  status: ('A' for Active; 'I' for Inactive)
REMARK    1  A    between atoms: O_2  and  C_3 
REMARK    2  A    between atoms: C_6  and  C_7 
REMARK    3  A    between atoms: C_7  and  C_8 
REMARK    4  A    between atoms: C_8  and  C_9 
REMARK    5  A    between atoms: C_9  and  O_10 
REMARK    6  A    between atoms: N_13  and  C_14 
REMARK    7  A    between atoms: C_14  and  N_15 
ROOT
HETATM    1  C   UNL     1      26.999  41.217  50.626  1.00  0.00     0.175 C 
HETATM    2  C   UNL     1      27.008  40.135  49.489  1.00  0.00     0.265 C 
HETATM    3  O   UNL     1      27.800  39.232  49.258  1.00  0.00    -0.269 OA
HETATM    4  N   UNL     1      25.880  40.352  48.686  1.00  0.00    -0.289 N 
HETATM    5  C   UNL     1      25.395  41.650  48.903  1.00  0.00     0.049 A 
HETATM    6  C   UNL     1      26.065  42.231  49.992  1.00  0.00     0.014 A 
HETATM    7  C   UNL     1      24.442  42.349  48.182  1.00  0.00     0.032 A 
HETATM    8  C   UNL     1      24.162  43.663  48.572  1.00  0.00     0.021 A 
HETATM    9  C   UNL     1      24.829  44.244  49.663  1.00  0.00     0.011 A 
HETATM   10 BR   UNL     1      24.420  46.021  50.161  1.00  0.00    -0.051 Br
HETATM   11  C   UNL     1      25.783  43.530  50.390  1.00  0.00     0.032 A 
ENDROOT
BRANCH   1  12
HETATM   12  C   UNL     1      28.405  41.727  50.945  1.00  0.00     0.137 C 
BRANCH  12  13
HETATM   13  C   UNL     1      28.826  41.407  52.374  1.00  0.00     0.163 C 
HETATM   14  O   UNL     1      28.988  40.258  52.776  1.00  0.00    -0.292 OA
BRANCH  13  15
HETATM   15  C   UNL     1      29.075  42.533  53.327  1.00  0.00     0.010 A 
HETATM   16  C   UNL     1      30.143  42.543  54.231  1.00  0.00     0.018 A 
HETATM   17  C   UNL     1      30.325  43.629  55.101  1.00  0.00     0.037 A 
HETATM   18  C   UNL     1      29.441  44.710  55.074  1.00  0.00     0.068 A 
HETATM   19  C   UNL     1      28.374  44.696  54.177  1.00  0.00     0.037 A 
HETATM   20  C   UNL     1      28.191  43.619  53.308  1.00  0.00     0.018 A 
BRANCH  18  21
HETATM   21  O   UNL     1      29.505  45.823  55.864  1.00  0.00    -0.356 OA
HETATM   22  C   UNL     1      28.273  46.429  56.235  1.00  0.00     0.210 C 
ENDBRANCH  18  21
ENDBRANCH  13  15
ENDBRANCH  12  13
ENDBRANCH   1  12
BRANCH   1  23
HETATM   23  O   UNL     1      26.349  40.783  51.815  1.00  0.00    -0.375 OA
HETATM   24  H   UNL     1      26.502  39.835  51.958  1.00  0.00     0.211 HD
ENDBRANCH   1  23
BRANCH   4  25
HETATM   25  C   UNL     1      25.618  39.583  47.503  1.00  0.00     0.367 C 
BRANCH  25  26
HETATM   26  N   UNL     1      26.799  39.590  46.579  1.00  0.00    -0.055 N 
HETATM   27  H   UNL     1      27.596  39.805  47.213  1.00  0.00     0.281 HD
HETATM   28  C   UNL     1      27.119  38.252  45.968  1.00  0.00     0.237 C 
HETATM   29  C   UNL     1      28.470  38.337  45.271  1.00  0.00     0.028 C 
HETATM   30  C   UNL     1      28.503  39.457  44.236  1.00  0.00     0.003 C 
HETATM   31  C   UNL     1      28.079  40.790  44.845  1.00  0.00     0.028 C 
HETATM   32  C   UNL     1      26.738  40.688  45.559  1.00  0.00     0.237 C 
ENDBRANCH  25  26
ENDBRANCH   4  25
TORSDOF 7
ENDMDL
MODEL 10
REMARK VINA RESULT:      -7.6      3.720      5.320
REMARK  7 active torsions:
REMARK  status: ('A' for Active; 'I' for Inactive)
REMARK    1  A    between atoms: O_2  and  C_3 
REMARK    2  A    between atoms: C_6  and  C_7 
REMARK    3  A    between atoms: C_7  and  C_8 
REMARK    4  A    between atoms: C_8  and  C_9 
REMARK    5  A    between atoms: C_9  and  O_10 
REMARK    6  A    between atoms: N_13  and  C_14 
REMARK    7  A    between atoms: C_14  and  N_15 
ROOT
HETATM    1  C   UNL     1      26.320  42.124  49.645  1.00  0.00     0.175 C 
HETATM    2  C   UNL     1      24.946  41.939  48.909  1.00  0.00     0.265 C 
HETATM    3  O   UNL     1      23.923  42.609  48.957  1.00  0.00    -0.269 OA
HETATM    4  N   UNL     1      25.042  40.793  48.108  1.00  0.00    -0.289 N 
HETATM    5  C   UNL     1      26.120  40.008  48.544  1.00  0.00     0.049 A 
HETATM    6  C   UNL     1      26.867  40.716  49.498  1.00  0.00     0.014 A 
HETATM    7  C   UNL     1      26.446  38.712  48.183  1.00  0.00     0.032 A 
HETATM    8  C   UNL     1      27.555  38.122  48.800  1.00  0.00     0.021 A 
HETATM    9  C   UNL     1      28.305  38.830  49.753  1.00  0.00     0.011 A 
HETATM   10 BR   UNL     1      29.797  37.999  50.563  1.00  0.00    -0.051 Br
HETATM   11  C   UNL     1      27.973  40.139  50.106  1.00  0.00     0.032 A 
ENDROOT
BRANCH   1  12
HETATM   12  C   UNL     1      26.142  42.614  51.082  1.00  0.00     0.137 C 
BRANCH  12  13
HETATM   13  C   UNL     1      27.027  43.814  51.398  1.00  0.00     0.163 C 
HETATM   14  O   UNL     1      26.947  44.876  50.786  1.00  0.00    -0.292 OA
BRANCH  13  15
HETATM   15  C   UNL     1      28.021  43.711  52.511  1.00  0.00     0.010 A 
HETATM   16  C   UNL     1      27.905  44.433  53.704  1.00  0.00     0.018 A 
HETATM   17  C   UNL     1      28.871  44.293  54.712  1.00  0.00     0.037 A 
HETATM   18  C   UNL     1      29.957  43.433  54.535  1.00  0.00     0.068 A 
HETATM   19  C   UNL     1      30.073  42.719  53.344  1.00  0.00     0.037 A 
HETATM   20  C   UNL     1      29.114  42.852  52.339  1.00  0.00     0.018 A 
BRANCH  18  21
HETATM   21  O   UNL     1      30.962  43.208  55.433  1.00  0.00    -0.356 OA
HETATM   22  C   UNL     1      31.174  44.194  56.435  1.00  0.00     0.210 C 
ENDBRANCH  18  21
ENDBRANCH  13  15
ENDBRANCH  12  13
ENDBRANCH   1  12
BRANCH   1  23
HETATM   23  O   UNL     1      27.228  42.966  48.944  1.00  0.00    -0.375 OA
HETATM   24  H   UNL     1      28.014  43.143  49.485  1.00  0.00     0.211 HD
ENDBRANCH   1  23
BRANCH   4  25
HETATM   25  C   UNL     1      23.933  40.288  47.351  1.00  0.00     0.367 C 
BRANCH  25  26
HETATM   26  N   UNL     1      23.316  41.363  46.508  1.00  0.00    -0.055 N 
HETATM   27  H   UNL     1      23.421  42.216  47.095  1.00  0.00     0.281 HD
HETATM   28  C   UNL     1      24.061  41.658  45.233  1.00  0.00     0.237 C 
HETATM   29  C   UNL     1      23.490  42.924  44.609  1.00  0.00     0.028 C 
HETATM   30  C   UNL     1      21.986  42.812  44.377  1.00  0.00     0.003 C 
HETATM   31  C   UNL     1      21.255  42.413  45.654  1.00  0.00     0.028 C 
HETATM   32  C   UNL     1      21.847  41.160  46.282  1.00  0.00     0.237 C 
ENDBRANCH  25  26
ENDBRANCH   4  25
TORSDOF 7
ENDMDL
