MODEL 1
REMARK VINA RESULT:      -9.3      0.000      0.000
REMARK  7 active torsions:
REMARK  status: ('A' for Active; 'I' for Inactive)
REMARK    1  A    between atoms: C_7  and  C_8 
REMARK    2  A    between atoms: C_8  and  N_9 
REMARK    3  A    between atoms: C_13  and  C_14 
REMARK    4  A    between atoms: C_14  and  C_15 
REMARK    5  A    between atoms: C_15  and  C_16 
REMARK    6  A    between atoms: N_26  and  C_27 
REMARK    7  A    between atoms: C_27  and  C_28 
ROOT
HETATM    1  C   UNL     1      27.811  44.003  53.732  1.00  0.00     0.123 C 
HETATM    2  N   UNL     1      27.758  42.721  54.417  1.00  0.00    -0.324 N 
HETATM    3  C   UNL     1      27.990  41.648  53.587  1.00  0.00     0.326 C 
HETATM    4  O   UNL     1      28.083  40.501  53.981  1.00  0.00    -0.247 OA
HETATM    5  N   UNL     1      28.035  42.107  52.310  1.00  0.00    -0.268 N 
HETATM    6  C   UNL     1      27.847  43.456  52.288  1.00  0.00     0.257 C 
HETATM    7  O   UNL     1      27.725  44.146  51.283  1.00  0.00    -0.270 OA
HETATM    8  H   UNL     1      27.764  42.585  55.424  1.00  0.00     0.165 HD
ENDROOT
BRANCH   1   9
HETATM    9  C   UNL     1      26.540  44.846  54.083  1.00  0.00     0.027 C 
HETATM   10  C   UNL     1      25.195  44.191  53.706  1.00  0.00     0.035 C 
HETATM   11  C   UNL     1      24.809  44.336  52.242  1.00  0.00     0.235 C 
HETATM   12  N   UNL     1      24.789  45.786  51.834  1.00  0.00    -0.067 N 
HETATM   13  H   UNL     1      23.987  46.216  52.308  1.00  0.00     0.280 HD
HETATM   14  C   UNL     1      26.020  46.571  52.193  1.00  0.00     0.235 C 
HETATM   15  C   UNL     1      26.494  46.310  53.614  1.00  0.00     0.035 C 
BRANCH  12  16
HETATM   16  C   UNL     1      24.524  45.950  50.340  1.00  0.00     0.277 C 
BRANCH  16  17
HETATM   17  C   UNL     1      24.834  47.299  49.813  1.00  0.00     0.011 A 
HETATM   18  C   UNL     1      26.040  47.821  49.365  1.00  0.00     0.035 A 
HETATM   19  C   UNL     1      27.391  47.217  49.231  1.00  0.00     0.070 C 
HETATM   20  N   UNL     1      25.766  49.119  48.994  1.00  0.00    -0.278 N 
HETATM   21  C   UNL     1      26.668  50.097  48.427  1.00  0.00     0.179 C 
HETATM   22  N   UNL     1      24.481  49.459  49.183  1.00  0.00    -0.185 NA
HETATM   23  C   UNL     1      23.909  48.353  49.644  1.00  0.00     0.149 A 
ENDBRANCH  16  17
ENDBRANCH  12  16
ENDBRANCH   1   9
BRANCH   1  24
HETATM   24  C   UNL     1      29.189  44.701  53.957  1.00  0.00     0.082 C 
BRANCH  24  25
HETATM   25  C   UNL     1      29.853  44.501  55.309  1.00  0.00    -0.034 A 
HETATM   26  C   UNL     1      29.609  45.312  56.432  1.00  0.00     0.040 A 
HETATM   27 CL   UNL     1      28.534  46.662  56.392  1.00  0.00    -0.084 Cl
HETATM   28  C   UNL     1      30.273  45.080  57.643  1.00  0.00     0.024 A 
HETATM   29  C   UNL     1      31.199  44.046  57.754  1.00  0.00     0.002 A 
HETATM   30  C   UNL     1      31.479  43.253  56.648  1.00  0.00     0.001 A 
HETATM   31  C   UNL     1      30.823  43.486  55.438  1.00  0.00     0.009 A 
ENDBRANCH  24  25
ENDBRANCH   1  24
BRANCH   5  32
HETATM   32  C   UNL     1      28.183  41.266  51.143  1.00  0.00     0.141 C 
BRANCH  32  33
HETATM   33  C   UNL     1      26.885  40.584  50.834  1.00  0.00     0.004 A 
HETATM   34  C   UNL     1      25.742  41.349  50.215  1.00  0.00     0.007 A 
HETATM   35  C   UNL     1      26.484  40.320  49.404  1.00  0.00     0.007 A 
ENDBRANCH  32  33
ENDBRANCH   5  32
TORSDOF 7
ENDMDL
MODEL 2
REMARK VINA RESULT:      -8.7      2.253      3.208
REMARK  7 active torsions:
REMARK  status: ('A' for Active; 'I' for Inactive)
REMARK    1  A    between atoms: C_7  and  C_8 
REMARK    2  A    between atoms: C_8  and  N_9 
REMARK    3  A    between atoms: C_13  and  C_14 
REMARK    4  A    between atoms: C_14  and  C_15 
REMARK    5  A    between atoms: C_15  and  C_16 
REMARK    6  A    between atoms: N_26  and  C_27 
REMARK    7  A    between atoms: C_27  and  C_28 
ROOT
HETATM    1  C   UNL     1      26.434  43.812  51.386  1.00  0.00     0.123 C 
HETATM    2  N   UNL     1      26.385  42.447  51.885  1.00  0.00    -0.324 N 
HETATM    3  C   UNL     1      26.482  41.499  50.892  1.00  0.00     0.326 C 
HETATM    4  O   UNL     1      26.556  40.304  51.109  1.00  0.00    -0.247 OA
HETATM    5  N   UNL     1      26.426  42.136  49.695  1.00  0.00    -0.268 N 
HETATM    6  C   UNL     1      26.304  43.481  49.882  1.00  0.00     0.257 C 
HETATM    7  O   UNL     1      26.120  44.313  49.003  1.00  0.00    -0.270 OA
HETATM    8  H   UNL     1      26.481  42.167  52.856  1.00  0.00     0.165 HD
ENDROOT
BRANCH   1   9
HETATM    9  C   UNL     1      25.246  44.640  51.981  1.00  0.00     0.027 C 
HETATM   10  C   UNL     1      23.840  44.155  51.571  1.00  0.00     0.035 C 
HETATM   11  C   UNL     1      23.388  44.615  50.194  1.00  0.00     0.235 C 
HETATM   12  N   UNL     1      23.448  46.116  50.084  1.00  0.00    -0.067 N 
HETATM   13  H   UNL     1      22.705  46.488  50.686  1.00  0.00     0.280 HD
HETATM   14  C   UNL     1      24.750  46.739  50.508  1.00  0.00     0.235 C 
HETATM   15  C   UNL     1      25.279  46.168  51.815  1.00  0.00     0.035 C 
BRANCH  12  16
HETATM   16  C   UNL     1      23.116  46.594  48.674  1.00  0.00     0.277 C 
BRANCH  16  17
HETATM   17  C   UNL     1      22.203  47.759  48.626  1.00  0.00     0.011 A 
HETATM   18  C   UNL     1      22.494  49.111  48.499  1.00  0.00     0.035 A 
HETATM   19  C   UNL     1      23.782  49.834  48.336  1.00  0.00     0.070 C 
HETATM   20  N   UNL     1      21.277  49.755  48.519  1.00  0.00    -0.278 N 
HETATM   21  C   UNL     1      21.012  51.170  48.386  1.00  0.00     0.179 C 
HETATM   22  N   UNL     1      20.240  48.914  48.660  1.00  0.00    -0.185 NA
HETATM   23  C   UNL     1      20.793  47.707  48.690  1.00  0.00     0.149 A 
ENDBRANCH  16  17
ENDBRANCH  12  16
ENDBRANCH   1   9
BRANCH   1  24
HETATM   24  C   UNL     1      27.861  44.422  51.563  1.00  0.00     0.082 C 
BRANCH  24  25
HETATM   25  C   UNL     1      28.652  43.983  52.784  1.00  0.00    -0.034 A 
HETATM   26  C   UNL     1      28.545  44.589  54.050  1.00  0.00     0.040 A 
HETATM   27 CL   UNL     1      27.508  45.934  54.355  1.00  0.00    -0.084 Cl
HETATM   28  C   UNL     1      29.321  44.143  55.126  1.00  0.00     0.024 A 
HETATM   29  C   UNL     1      30.226  43.097  54.960  1.00  0.00     0.002 A 
HETATM   30  C   UNL     1      30.371  42.507  53.711  1.00  0.00     0.001 A 
HETATM   31  C   UNL     1      29.603  42.953  52.634  1.00  0.00     0.009 A 
ENDBRANCH  24  25
ENDBRANCH   1  24
BRANCH   5  32
HETATM   32  C   UNL     1      26.419  41.469  48.412  1.00  0.00     0.141 C 
BRANCH  32  33
HETATM   33  C   UNL     1      27.816  41.092  48.023  1.00  0.00     0.004 A 
HETATM   34  C   UNL     1      28.154  39.671  47.649  1.00  0.00     0.007 A 
HETATM   35  C   UNL     1      28.140  40.743  46.592  1.00  0.00     0.007 A 
ENDBRANCH  32  33
ENDBRANCH   5  32
TORSDOF 7
ENDMDL
MODEL 3
REMARK VINA RESULT:      -8.6      2.172      3.448
REMARK  7 active torsions:
REMARK  status: ('A' for Active; 'I' for Inactive)
REMARK    1  A    between atoms: C_7  and  C_8 
REMARK    2  A    between atoms: C_8  and  N_9 
REMARK    3  A    between atoms: C_13  and  C_14 
REMARK    4  A    between atoms: C_14  and  C_15 
REMARK    5  A    between atoms: C_15  and  C_16 
REMARK    6  A    between atoms: N_26  and  C_27 
REMARK    7  A    between atoms: C_27  and  C_28 
ROOT
HETATM    1  C   UNL     1      26.166  44.157  52.215  1.00  0.00     0.123 C 
HETATM    2  N   UNL     1      24.771  44.009  51.833  1.00  0.00    -0.324 N 
HETATM    3  C   UNL     1      24.503  42.820  51.192  1.00  0.00     0.326 C 
HETATM    4  O   UNL     1      23.383  42.463  50.878  1.00  0.00    -0.247 OA
HETATM    5  N   UNL     1      25.685  42.196  50.953  1.00  0.00    -0.268 N 
HETATM    6  C   UNL     1      26.718  42.945  51.432  1.00  0.00     0.257 C 
HETATM    7  O   UNL     1      27.909  42.707  51.274  1.00  0.00    -0.270 OA
HETATM    8  H   UNL     1      24.001  44.584  52.161  1.00  0.00     0.165 HD
ENDROOT
BRANCH   1   9
HETATM    9  C   UNL     1      26.704  45.547  51.738  1.00  0.00     0.027 C 
HETATM   10  C   UNL     1      25.864  46.762  52.183  1.00  0.00     0.035 C 
HETATM   11  C   UNL     1      24.627  47.021  51.337  1.00  0.00     0.235 C 
HETATM   12  N   UNL     1      24.994  47.175  49.884  1.00  0.00    -0.067 N 
HETATM   13  H   UNL     1      25.499  48.064  49.799  1.00  0.00     0.280 HD
HETATM   14  C   UNL     1      25.866  46.085  49.324  1.00  0.00     0.235 C 
HETATM   15  C   UNL     1      27.022  45.722  50.244  1.00  0.00     0.035 C 
BRANCH  12  16
HETATM   16  C   UNL     1      23.758  47.314  49.000  1.00  0.00     0.277 C 
BRANCH  16  17
HETATM   17  C   UNL     1      23.214  48.689  48.928  1.00  0.00     0.011 A 
HETATM   18  C   UNL     1      21.895  49.123  48.913  1.00  0.00     0.035 A 
HETATM   19  C   UNL     1      20.610  48.382  48.998  1.00  0.00     0.070 C 
HETATM   20  N   UNL     1      21.958  50.496  48.830  1.00  0.00    -0.278 N 
HETATM   21  C   UNL     1      20.864  51.442  48.816  1.00  0.00     0.179 C 
HETATM   22  N   UNL     1      23.216  50.962  48.779  1.00  0.00    -0.185 NA
HETATM   23  C   UNL     1      23.976  49.877  48.873  1.00  0.00     0.149 A 
ENDBRANCH  16  17
ENDBRANCH  12  16
ENDBRANCH   1   9
BRANCH   1  24
HETATM   24  C   UNL     1      26.372  43.815  53.725  1.00  0.00     0.082 C 
BRANCH  24  25
HETATM   25  C   UNL     1      27.645  44.322  54.381  1.00  0.00    -0.034 A 
HETATM   26  C   UNL     1      28.806  43.546  54.549  1.00  0.00     0.040 A 
HETATM   27 CL   UNL     1      28.907  41.898  54.047  1.00  0.00    -0.084 Cl
HETATM   28  C   UNL     1      29.938  44.075  55.181  1.00  0.00     0.024 A 
HETATM   29  C   UNL     1      29.930  45.379  55.668  1.00  0.00     0.002 A 
HETATM   30  C   UNL     1      28.783  46.153  55.541  1.00  0.00     0.001 A 
HETATM   31  C   UNL     1      27.651  45.626  54.917  1.00  0.00     0.009 A 
ENDBRANCH  24  25
ENDBRANCH   1  24
BRANCH   5  32
HETATM   32  C   UNL     1      25.822  40.953  50.226  1.00  0.00     0.141 C 
BRANCH  32  33
HETATM   33  C   UNL     1      25.927  41.228  48.757  1.00  0.00     0.004 A 
HETATM   34  C   UNL     1      27.268  41.220  48.067  1.00  0.00     0.007 A 
HETATM   35  C   UNL     1      26.278  40.119  47.798  1.00  0.00     0.007 A 
ENDBRANCH  32  33
ENDBRANCH   5  32
TORSDOF 7
ENDMDL
MODEL 4
REMARK VINA RESULT:      -8.5     13.592     15.512
REMARK  7 active torsions:
REMARK  status: ('A' for Active; 'I' for Inactive)
REMARK    1  A    between atoms: C_7  and  C_8 
REMARK    2  A    between atoms: C_8  and  N_9 
REMARK    3  A    between atoms: C_13  and  C_14 
REMARK    4  A    between atoms: C_14  and  C_15 
REMARK    5  A    between atoms: C_15  and  C_16 
REMARK    6  A    between atoms: N_26  and  C_27 
REMARK    7  A    between atoms: C_27  and  C_28 
ROOT
HETATM    1  C   UNL     1      30.437  52.052  40.178  1.00  0.00     0.123 C 
HETATM    2  N   UNL     1      30.920  51.363  38.991  1.00  0.00    -0.324 N 
HETATM    3  C   UNL     1      32.212  51.695  38.654  1.00  0.00     0.326 C 
HETATM    4  O   UNL     1      32.831  51.160  37.755  1.00  0.00    -0.247 OA
HETATM    5  N   UNL     1      32.605  52.719  39.455  1.00  0.00    -0.268 N 
HETATM    6  C   UNL     1      31.602  53.058  40.313  1.00  0.00     0.257 C 
HETATM    7  O   UNL     1      31.607  54.011  41.082  1.00  0.00    -0.270 OA
HETATM    8  H   UNL     1      30.477  50.564  38.547  1.00  0.00     0.165 HD
ENDROOT
BRANCH   1   9
HETATM    9  C   UNL     1      29.041  52.698  39.887  1.00  0.00     0.027 C 
HETATM   10  C   UNL     1      27.976  52.477  40.980  1.00  0.00     0.035 C 
HETATM   11  C   UNL     1      27.288  51.121  40.928  1.00  0.00     0.235 C 
HETATM   12  N   UNL     1      26.669  50.886  39.575  1.00  0.00    -0.067 N 
HETATM   13  H   UNL     1      25.874  51.531  39.496  1.00  0.00     0.280 HD
HETATM   14  C   UNL     1      27.581  51.123  38.402  1.00  0.00     0.235 C 
HETATM   15  C   UNL     1      28.383  52.409  38.528  1.00  0.00     0.035 C 
BRANCH  12  16
HETATM   16  C   UNL     1      26.079  49.484  39.458  1.00  0.00     0.277 C 
BRANCH  16  17
HETATM   17  C   UNL     1      24.900  49.393  38.566  1.00  0.00     0.011 A 
HETATM   18  C   UNL     1      24.733  48.682  37.385  1.00  0.00     0.035 A 
HETATM   19  C   UNL     1      25.638  47.764  36.647  1.00  0.00     0.070 C 
HETATM   20  N   UNL     1      23.450  48.959  36.966  1.00  0.00    -0.278 N 
HETATM   21  C   UNL     1      22.759  48.443  35.804  1.00  0.00     0.179 C 
HETATM   22  N   UNL     1      22.799  49.799  37.785  1.00  0.00    -0.185 NA
HETATM   23  C   UNL     1      23.659  50.035  38.769  1.00  0.00     0.149 A 
ENDBRANCH  16  17
ENDBRANCH  12  16
ENDBRANCH   1   9
BRANCH   1  24
HETATM   24  C   UNL     1      30.525  51.129  41.435  1.00  0.00     0.082 C 
BRANCH  24  25
HETATM   25  C   UNL     1      31.089  49.734  41.230  1.00  0.00    -0.034 A 
HETATM   26  C   UNL     1      32.385  49.346  41.616  1.00  0.00     0.040 A 
HETATM   27 CL   UNL     1      33.505  50.434  42.352  1.00  0.00    -0.084 Cl
HETATM   28  C   UNL     1      32.845  48.045  41.378  1.00  0.00     0.024 A 
HETATM   29  C   UNL     1      32.031  47.113  40.741  1.00  0.00     0.002 A 
HETATM   30  C   UNL     1      30.759  47.484  40.322  1.00  0.00     0.001 A 
HETATM   31  C   UNL     1      30.300  48.783  40.553  1.00  0.00     0.009 A 
ENDBRANCH  24  25
ENDBRANCH   1  24
BRANCH   5  32
HETATM   32  C   UNL     1      33.878  53.398  39.351  1.00  0.00     0.141 C 
BRANCH  32  33
HETATM   33  C   UNL     1      34.954  52.567  39.981  1.00  0.00     0.004 A 
HETATM   34  C   UNL     1      35.988  51.874  39.131  1.00  0.00     0.007 A 
HETATM   35  C   UNL     1      36.383  53.048  39.986  1.00  0.00     0.007 A 
ENDBRANCH  32  33
ENDBRANCH   5  32
TORSDOF 7
ENDMDL
MODEL 5
REMARK VINA RESULT:      -8.3      5.939     10.932
REMARK  7 active torsions:
REMARK  status: ('A' for Active; 'I' for Inactive)
REMARK    1  A    between atoms: C_7  and  C_8 
REMARK    2  A    between atoms: C_8  and  N_9 
REMARK    3  A    between atoms: C_13  and  C_14 
REMARK    4  A    between atoms: C_14  and  C_15 
REMARK    5  A    between atoms: C_15  and  C_16 
REMARK    6  A    between atoms: N_26  and  C_27 
REMARK    7  A    between atoms: C_27  and  C_28 
ROOT
HETATM    1  C   UNL     1      19.131  47.873  47.963  1.00  0.00     0.123 C 
HETATM    2  N   UNL     1      19.327  48.829  46.884  1.00  0.00    -0.324 N 
HETATM    3  C   UNL     1      18.386  49.833  46.866  1.00  0.00     0.326 C 
HETATM    4  O   UNL     1      18.428  50.781  46.105  1.00  0.00    -0.247 OA
HETATM    5  N   UNL     1      17.432  49.532  47.784  1.00  0.00    -0.268 N 
HETATM    6  C   UNL     1      17.733  48.358  48.409  1.00  0.00     0.257 C 
HETATM    7  O   UNL     1      17.016  47.765  49.205  1.00  0.00    -0.270 OA
HETATM    8  H   UNL     1      20.162  48.916  46.312  1.00  0.00     0.165 HD
ENDROOT
BRANCH   1   9
HETATM    9  C   UNL     1      19.170  46.415  47.395  1.00  0.00     0.027 C 
HETATM   10  C   UNL     1      19.492  45.317  48.430  1.00  0.00     0.035 C 
HETATM   11  C   UNL     1      20.971  45.164  48.750  1.00  0.00     0.235 C 
HETATM   12  N   UNL     1      21.768  44.916  47.496  1.00  0.00    -0.067 N 
HETATM   13  H   UNL     1      21.523  43.974  47.170  1.00  0.00     0.280 HD
HETATM   14  C   UNL     1      21.512  45.881  46.371  1.00  0.00     0.235 C 
HETATM   15  C   UNL     1      20.032  46.150  46.149  1.00  0.00     0.035 C 
BRANCH  12  16
HETATM   16  C   UNL     1      23.267  44.880  47.776  1.00  0.00     0.277 C 
BRANCH  16  17
HETATM   17  C   UNL     1      23.617  44.498  49.164  1.00  0.00     0.011 A 
HETATM   18  C   UNL     1      24.287  45.222  50.142  1.00  0.00     0.035 A 
HETATM   19  C   UNL     1      24.836  46.602  50.149  1.00  0.00     0.070 C 
HETATM   20  N   UNL     1      24.347  44.392  51.239  1.00  0.00    -0.278 N 
HETATM   21  C   UNL     1      24.912  44.671  52.541  1.00  0.00     0.179 C 
HETATM   22  N   UNL     1      23.778  43.195  51.025  1.00  0.00    -0.185 NA
HETATM   23  C   UNL     1      23.306  43.269  49.786  1.00  0.00     0.149 A 
ENDBRANCH  16  17
ENDBRANCH  12  16
ENDBRANCH   1   9
BRANCH   1  24
HETATM   24  C   UNL     1      20.087  48.177  49.160  1.00  0.00     0.082 C 
BRANCH  24  25
HETATM   25  C   UNL     1      21.271  49.087  48.885  1.00  0.00    -0.034 A 
HETATM   26  C   UNL     1      21.283  50.467  49.163  1.00  0.00     0.040 A 
HETATM   27 CL   UNL     1      19.926  51.296  49.833  1.00  0.00    -0.084 Cl
HETATM   28  C   UNL     1      22.406  51.249  48.864  1.00  0.00     0.024 A 
HETATM   29  C   UNL     1      23.529  50.677  48.273  1.00  0.00     0.002 A 
HETATM   30  C   UNL     1      23.526  49.323  47.960  1.00  0.00     0.001 A 
HETATM   31  C   UNL     1      22.406  48.542  48.251  1.00  0.00     0.009 A 
ENDBRANCH  24  25
ENDBRANCH   1  24
BRANCH   5  32
HETATM   32  C   UNL     1      16.233  50.311  48.006  1.00  0.00     0.141 C 
BRANCH  32  33
HETATM   33  C   UNL     1      16.404  51.181  49.213  1.00  0.00     0.004 A 
HETATM   34  C   UNL     1      16.635  52.664  49.066  1.00  0.00     0.007 A 
HETATM   35  C   UNL     1      15.325  52.158  49.607  1.00  0.00     0.007 A 
ENDBRANCH  32  33
ENDBRANCH   5  32
TORSDOF 7
ENDMDL
MODEL 6
REMARK VINA RESULT:      -8.2      2.168      2.895
REMARK  7 active torsions:
REMARK  status: ('A' for Active; 'I' for Inactive)
REMARK    1  A    between atoms: C_7  and  C_8 
REMARK    2  A    between atoms: C_8  and  N_9 
REMARK    3  A    between atoms: C_13  and  C_14 
REMARK    4  A    between atoms: C_14  and  C_15 
REMARK    5  A    between atoms: C_15  and  C_16 
REMARK    6  A    between atoms: N_26  and  C_27 
REMARK    7  A    between atoms: C_27  and  C_28 
ROOT
HETATM    1  C   UNL     1      27.093  43.273  52.338  1.00  0.00     0.123 C 
HETATM    2  N   UNL     1      26.003  42.496  51.769  1.00  0.00    -0.324 N 
HETATM    3  C   UNL     1      26.405  41.283  51.258  1.00  0.00     0.326 C 
HETATM    4  O   UNL     1      25.634  40.447  50.826  1.00  0.00    -0.247 OA
HETATM    5  N   UNL     1      27.761  41.244  51.286  1.00  0.00    -0.268 N 
HETATM    6  C   UNL     1      28.255  42.399  51.814  1.00  0.00     0.257 C 
HETATM    7  O   UNL     1      29.438  42.713  51.872  1.00  0.00    -0.270 OA
HETATM    8  H   UNL     1      25.013  42.681  51.897  1.00  0.00     0.165 HD
ENDROOT
BRANCH   1   9
HETATM    9  C   UNL     1      27.060  44.731  51.769  1.00  0.00     0.027 C 
HETATM   10  C   UNL     1      25.793  45.540  52.114  1.00  0.00     0.035 C 
HETATM   11  C   UNL     1      24.589  45.237  51.234  1.00  0.00     0.235 C 
HETATM   12  N   UNL     1      24.926  45.435  49.779  1.00  0.00    -0.067 N 
HETATM   13  H   UNL     1      25.044  46.444  49.637  1.00  0.00     0.280 HD
HETATM   14  C   UNL     1      26.179  44.747  49.311  1.00  0.00     0.235 C 
HETATM   15  C   UNL     1      27.345  44.926  50.270  1.00  0.00     0.035 C 
BRANCH  12  16
HETATM   16  C   UNL     1      23.773  45.020  48.870  1.00  0.00     0.277 C 
BRANCH  16  17
HETATM   17  C   UNL     1      22.692  46.027  48.762  1.00  0.00     0.011 A 
HETATM   18  C   UNL     1      22.749  47.409  48.893  1.00  0.00     0.035 A 
HETATM   19  C   UNL     1      23.885  48.332  49.144  1.00  0.00     0.070 C 
HETATM   20  N   UNL     1      21.458  47.851  48.706  1.00  0.00    -0.278 N 
HETATM   21  C   UNL     1      20.971  49.213  48.706  1.00  0.00     0.179 C 
HETATM   22  N   UNL     1      20.588  46.854  48.479  1.00  0.00    -0.185 NA
HETATM   23  C   UNL     1      21.336  45.756  48.477  1.00  0.00     0.149 A 
ENDBRANCH  16  17
ENDBRANCH  12  16
ENDBRANCH   1   9
BRANCH   1  24
HETATM   24  C   UNL     1      27.127  43.136  53.893  1.00  0.00     0.082 C 
BRANCH  24  25
HETATM   25  C   UNL     1      28.342  43.699  54.609  1.00  0.00    -0.034 A 
HETATM   26  C   UNL     1      28.417  45.010  55.117  1.00  0.00     0.040 A 
HETATM   27 CL   UNL     1      27.130  46.148  54.955  1.00  0.00    -0.084 Cl
HETATM   28  C   UNL     1      29.579  45.468  55.751  1.00  0.00     0.024 A 
HETATM   29  C   UNL     1      30.688  44.637  55.880  1.00  0.00     0.002 A 
HETATM   30  C   UNL     1      30.647  43.350  55.357  1.00  0.00     0.001 A 
HETATM   31  C   UNL     1      29.492  42.893  54.719  1.00  0.00     0.009 A 
ENDBRANCH  24  25
ENDBRANCH   1  24
BRANCH   5  32
HETATM   32  C   UNL     1      28.560  40.159  50.759  1.00  0.00     0.141 C 
BRANCH  32  33
HETATM   33  C   UNL     1      28.491  40.153  49.262  1.00  0.00     0.004 A 
HETATM   34  C   UNL     1      29.282  39.151  48.460  1.00  0.00     0.007 A 
HETATM   35  C   UNL     1      27.783  39.037  48.537  1.00  0.00     0.007 A 
ENDBRANCH  32  33
ENDBRANCH   5  32
TORSDOF 7
ENDMDL
MODEL 7
REMARK VINA RESULT:      -8.1      3.973      7.786
REMARK  7 active torsions:
REMARK  status: ('A' for Active; 'I' for Inactive)
REMARK    1  A    between atoms: C_7  and  C_8 
REMARK    2  A    between atoms: C_8  and  N_9 
REMARK    3  A    between atoms: C_13  and  C_14 
REMARK    4  A    between atoms: C_14  and  C_15 
REMARK    5  A    between atoms: C_15  and  C_16 
REMARK    6  A    between atoms: N_26  and  C_27 
REMARK    7  A    between atoms: C_27  and  C_28 
ROOT
HETATM    1  C   UNL     1      26.348  42.704  51.063  1.00  0.00     0.123 C 
HETATM    2  N   UNL     1      25.197  43.110  51.854  1.00  0.00    -0.324 N 
HETATM    3  C   UNL     1      25.536  43.673  53.064  1.00  0.00     0.326 C 
HETATM    4  O   UNL     1      24.726  44.163  53.828  1.00  0.00    -0.247 OA
HETATM    5  N   UNL     1      26.875  43.525  53.235  1.00  0.00    -0.268 N 
HETATM    6  C   UNL     1      27.420  42.887  52.161  1.00  0.00     0.257 C 
HETATM    7  O   UNL     1      28.581  42.510  52.065  1.00  0.00    -0.270 OA
HETATM    8  H   UNL     1      24.243  43.189  51.516  1.00  0.00     0.165 HD
ENDROOT
BRANCH   1   9
HETATM    9  C   UNL     1      26.160  41.231  50.568  1.00  0.00     0.027 C 
HETATM   10  C   UNL     1      27.465  40.427  50.394  1.00  0.00     0.035 C 
HETATM   11  C   UNL     1      28.209  40.701  49.096  1.00  0.00     0.235 C 
HETATM   12  N   UNL     1      27.316  40.464  47.907  1.00  0.00    -0.067 N 
HETATM   13  H   UNL     1      27.158  39.452  47.851  1.00  0.00     0.280 HD
HETATM   14  C   UNL     1      25.976  41.144  47.965  1.00  0.00     0.235 C 
HETATM   15  C   UNL     1      25.297  40.996  49.318  1.00  0.00     0.035 C 
BRANCH  12  16
HETATM   16  C   UNL     1      28.002  40.849  46.599  1.00  0.00     0.277 C 
BRANCH  16  17
HETATM   17  C   UNL     1      27.990  39.784  45.571  1.00  0.00     0.011 A 
HETATM   18  C   UNL     1      28.481  39.798  44.272  1.00  0.00     0.035 A 
HETATM   19  C   UNL     1      29.199  40.843  43.497  1.00  0.00     0.070 C 
HETATM   20  N   UNL     1      28.201  38.551  43.757  1.00  0.00    -0.278 N 
HETATM   21  C   UNL     1      28.531  38.029  42.449  1.00  0.00     0.179 C 
HETATM   22  N   UNL     1      27.561  37.755  44.628  1.00  0.00    -0.185 NA
HETATM   23  C   UNL     1      27.464  38.483  45.734  1.00  0.00     0.149 A 
ENDBRANCH  16  17
ENDBRANCH  12  16
ENDBRANCH   1   9
BRANCH   1  24
HETATM   24  C   UNL     1      26.677  43.767  49.968  1.00  0.00     0.082 C 
BRANCH  24  25
HETATM   25  C   UNL     1      25.901  45.071  50.015  1.00  0.00    -0.034 A 
HETATM   26  C   UNL     1      24.669  45.277  49.366  1.00  0.00     0.040 A 
HETATM   27 CL   UNL     1      23.905  44.062  48.408  1.00  0.00    -0.084 Cl
HETATM   28  C   UNL     1      24.018  46.515  49.438  1.00  0.00     0.024 A 
HETATM   29  C   UNL     1      24.586  47.572  50.144  1.00  0.00     0.002 A 
HETATM   30  C   UNL     1      25.817  47.400  50.765  1.00  0.00     0.001 A 
HETATM   31  C   UNL     1      26.471  46.169  50.690  1.00  0.00     0.009 A 
ENDBRANCH  24  25
ENDBRANCH   1  24
BRANCH   5  32
HETATM   32  C   UNL     1      27.596  43.921  54.425  1.00  0.00     0.141 C 
BRANCH  32  33
HETATM   33  C   UNL     1      28.171  45.293  54.242  1.00  0.00     0.004 A 
HETATM   34  C   UNL     1      27.343  46.518  54.534  1.00  0.00     0.007 A 
HETATM   35  C   UNL     1      28.488  46.151  55.440  1.00  0.00     0.007 A 
ENDBRANCH  32  33
ENDBRANCH   5  32
TORSDOF 7
ENDMDL
MODEL 8
REMARK VINA RESULT:      -8.1     12.351     15.326
REMARK  7 active torsions:
REMARK  status: ('A' for Active; 'I' for Inactive)
REMARK    1  A    between atoms: C_7  and  C_8 
REMARK    2  A    between atoms: C_8  and  N_9 
REMARK    3  A    between atoms: C_13  and  C_14 
REMARK    4  A    between atoms: C_14  and  C_15 
REMARK    5  A    between atoms: C_15  and  C_16 
REMARK    6  A    between atoms: N_26  and  C_27 
REMARK    7  A    between atoms: C_27  and  C_28 
ROOT
HETATM    1  C   UNL     1      30.040  48.732  40.375  1.00  0.00     0.123 C 
HETATM    2  N   UNL     1      28.824  49.186  41.030  1.00  0.00    -0.324 N 
HETATM    3  C   UNL     1      28.470  50.473  40.693  1.00  0.00     0.326 C 
HETATM    4  O   UNL     1      27.438  51.004  41.057  1.00  0.00    -0.247 OA
HETATM    5  N   UNL     1      29.479  51.008  39.960  1.00  0.00    -0.268 N 
HETATM    6  C   UNL     1      30.480  50.097  39.801  1.00  0.00     0.257 C 
HETATM    7  O   UNL     1      31.570  50.312  39.283  1.00  0.00    -0.270 OA
HETATM    8  H   UNL     1      28.158  48.597  41.521  1.00  0.00     0.165 HD
ENDROOT
BRANCH   1   9
HETATM    9  C   UNL     1      31.017  48.119  41.433  1.00  0.00     0.027 C 
HETATM   10  C   UNL     1      30.952  48.762  42.834  1.00  0.00     0.035 C 
HETATM   11  C   UNL     1      31.725  50.065  42.969  1.00  0.00     0.235 C 
HETATM   12  N   UNL     1      33.166  49.877  42.574  1.00  0.00    -0.067 N 
HETATM   13  H   UNL     1      33.600  49.297  43.301  1.00  0.00     0.280 HD
HETATM   14  C   UNL     1      33.385  49.204  41.247  1.00  0.00     0.235 C 
HETATM   15  C   UNL     1      32.500  47.983  41.050  1.00  0.00     0.035 C 
BRANCH  12  16
HETATM   16  C   UNL     1      33.932  51.196  42.584  1.00  0.00     0.277 C 
BRANCH  16  17
HETATM   17  C   UNL     1      35.083  51.238  41.654  1.00  0.00     0.011 A 
HETATM   18  C   UNL     1      35.186  51.812  40.393  1.00  0.00     0.035 A 
HETATM   19  C   UNL     1      34.218  52.593  39.580  1.00  0.00     0.070 C 
HETATM   20  N   UNL     1      36.471  51.550  39.971  1.00  0.00    -0.278 N 
HETATM   21  C   UNL     1      37.107  51.958  38.738  1.00  0.00     0.179 C 
HETATM   22  N   UNL     1      37.184  50.844  40.864  1.00  0.00    -0.185 NA
HETATM   23  C   UNL     1      36.361  50.684  41.893  1.00  0.00     0.149 A 
ENDBRANCH  16  17
ENDBRANCH  12  16
ENDBRANCH   1   9
BRANCH   1  24
HETATM   24  C   UNL     1      29.709  47.839  39.138  1.00  0.00     0.082 C 
BRANCH  24  25
HETATM   25  C   UNL     1      28.482  46.949  39.236  1.00  0.00    -0.034 A 
HETATM   26  C   UNL     1      27.228  47.276  38.685  1.00  0.00     0.040 A 
HETATM   27 CL   UNL     1      26.934  48.756  37.849  1.00  0.00    -0.084 Cl
HETATM   28  C   UNL     1      26.134  46.415  38.832  1.00  0.00     0.024 A 
HETATM   29  C   UNL     1      26.263  45.222  39.538  1.00  0.00     0.002 A 
HETATM   30  C   UNL     1      27.483  44.895  40.118  1.00  0.00     0.001 A 
HETATM   31  C   UNL     1      28.575  45.755  39.978  1.00  0.00     0.009 A 
ENDBRANCH  24  25
ENDBRANCH   1  24
BRANCH   5  32
HETATM   32  C   UNL     1      29.512  52.374  39.486  1.00  0.00     0.141 C 
BRANCH  32  33
HETATM   33  C   UNL     1      29.760  53.308  40.631  1.00  0.00     0.004 A 
HETATM   34  C   UNL     1      30.946  53.110  41.541  1.00  0.00     0.007 A 
HETATM   35  C   UNL     1      30.917  54.275  40.588  1.00  0.00     0.007 A 
ENDBRANCH  32  33
ENDBRANCH   5  32
TORSDOF 7
ENDMDL
MODEL 9
REMARK VINA RESULT:      -8.0      9.076     12.583
REMARK  7 active torsions:
REMARK  status: ('A' for Active; 'I' for Inactive)
REMARK    1  A    between atoms: C_7  and  C_8 
REMARK    2  A    between atoms: C_8  and  N_9 
REMARK    3  A    between atoms: C_13  and  C_14 
REMARK    4  A    between atoms: C_14  and  C_15 
REMARK    5  A    between atoms: C_15  and  C_16 
REMARK    6  A    between atoms: N_26  and  C_27 
REMARK    7  A    between atoms: C_27  and  C_28 
ROOT
HETATM    1  C   UNL     1      18.638  49.787  48.480  1.00  0.00     0.123 C 
HETATM    2  N   UNL     1      17.286  49.488  48.927  1.00  0.00    -0.324 N 
HETATM    3  C   UNL     1      16.722  48.413  48.279  1.00  0.00     0.326 C 
HETATM    4  O   UNL     1      15.639  47.943  48.572  1.00  0.00    -0.247 OA
HETATM    5  N   UNL     1      17.556  48.045  47.272  1.00  0.00    -0.268 N 
HETATM    6  C   UNL     1      18.656  48.849  47.253  1.00  0.00     0.257 C 
HETATM    7  O   UNL     1      19.535  48.841  46.400  1.00  0.00    -0.270 OA
HETATM    8  H   UNL     1      16.841  49.860  49.760  1.00  0.00     0.165 HD
ENDROOT
BRANCH   1   9
HETATM    9  C   UNL     1      18.763  51.311  48.144  1.00  0.00     0.027 C 
HETATM   10  C   UNL     1      18.610  52.262  49.349  1.00  0.00     0.035 C 
HETATM   11  C   UNL     1      17.171  52.536  49.761  1.00  0.00     0.235 C 
HETATM   12  N   UNL     1      16.373  53.069  48.600  1.00  0.00    -0.067 N 
HETATM   13  H   UNL     1      16.723  54.015  48.410  1.00  0.00     0.280 HD
HETATM   14  C   UNL     1      16.474  52.270  47.330  1.00  0.00     0.235 C 
HETATM   15  C   UNL     1      17.902  51.867  46.997  1.00  0.00     0.035 C 
BRANCH  12  16
HETATM   16  C   UNL     1      14.899  53.236  48.956  1.00  0.00     0.277 C 
BRANCH  16  17
HETATM   17  C   UNL     1      14.369  54.599  48.724  1.00  0.00     0.011 A 
HETATM   18  C   UNL     1      13.879  55.175  47.560  1.00  0.00     0.035 A 
HETATM   19  C   UNL     1      13.688  54.630  46.191  1.00  0.00     0.070 C 
HETATM   20  N   UNL     1      13.527  56.462  47.904  1.00  0.00    -0.278 N 
HETATM   21  C   UNL     1      12.931  57.480  47.066  1.00  0.00     0.179 C 
HETATM   22  N   UNL     1      13.767  56.746  49.193  1.00  0.00    -0.185 NA
HETATM   23  C   UNL     1      14.243  55.614  49.699  1.00  0.00     0.149 A 
ENDBRANCH  16  17
ENDBRANCH  12  16
ENDBRANCH   1   9
BRANCH   1  24
HETATM   24  C   UNL     1      19.696  49.208  49.472  1.00  0.00     0.082 C 
BRANCH  24  25
HETATM   25  C   UNL     1      21.159  49.434  49.133  1.00  0.00    -0.034 A 
HETATM   26  C   UNL     1      22.020  48.429  48.656  1.00  0.00     0.040 A 
HETATM   27 CL   UNL     1      21.511  46.796  48.426  1.00  0.00    -0.084 Cl
HETATM   28  C   UNL     1      23.365  48.707  48.381  1.00  0.00     0.024 A 
HETATM   29  C   UNL     1      23.879  49.984  48.587  1.00  0.00     0.002 A 
HETATM   30  C   UNL     1      23.054  50.984  49.088  1.00  0.00     0.001 A 
HETATM   31  C   UNL     1      21.714  50.708  49.368  1.00  0.00     0.009 A 
ENDBRANCH  24  25
ENDBRANCH   1  24
BRANCH   5  32
HETATM   32  C   UNL     1      17.271  46.998  46.315  1.00  0.00     0.141 C 
BRANCH  32  33
HETATM   33  C   UNL     1      17.691  45.670  46.868  1.00  0.00     0.004 A 
HETATM   34  C   UNL     1      17.587  44.421  46.030  1.00  0.00     0.007 A 
HETATM   35  C   UNL     1      18.939  44.994  46.360  1.00  0.00     0.007 A 
ENDBRANCH  32  33
ENDBRANCH   5  32
TORSDOF 7
ENDMDL
MODEL 10
REMARK VINA RESULT:      -7.9      2.679      4.075
REMARK  7 active torsions:
REMARK  status: ('A' for Active; 'I' for Inactive)
REMARK    1  A    between atoms: C_7  and  C_8 
REMARK    2  A    between atoms: C_8  and  N_9 
REMARK    3  A    between atoms: C_13  and  C_14 
REMARK    4  A    between atoms: C_14  and  C_15 
REMARK    5  A    between atoms: C_15  and  C_16 
REMARK    6  A    between atoms: N_26  and  C_27 
REMARK    7  A    between atoms: C_27  and  C_28 
ROOT
HETATM    1  C   UNL     1      26.972  43.485  52.174  1.00  0.00     0.123 C 
HETATM    2  N   UNL     1      25.880  42.722  51.589  1.00  0.00    -0.324 N 
HETATM    3  C   UNL     1      26.259  41.473  51.152  1.00  0.00     0.326 C 
HETATM    4  O   UNL     1      25.478  40.646  50.721  1.00  0.00    -0.247 OA
HETATM    5  N   UNL     1      27.610  41.386  51.248  1.00  0.00    -0.268 N 
HETATM    6  C   UNL     1      28.123  42.546  51.747  1.00  0.00     0.257 C 
HETATM    7  O   UNL     1      29.312  42.819  51.849  1.00  0.00    -0.270 OA
HETATM    8  H   UNL     1      24.893  42.949  51.660  1.00  0.00     0.165 HD
ENDROOT
BRANCH   1   9
HETATM    9  C   UNL     1      27.021  44.915  51.539  1.00  0.00     0.027 C 
HETATM   10  C   UNL     1      25.941  45.893  52.045  1.00  0.00     0.035 C 
HETATM   11  C   UNL     1      24.577  45.721  51.394  1.00  0.00     0.235 C 
HETATM   12  N   UNL     1      24.681  45.825  49.895  1.00  0.00    -0.067 N 
HETATM   13  H   UNL     1      24.897  46.805  49.680  1.00  0.00     0.280 HD
HETATM   14  C   UNL     1      25.741  44.964  49.264  1.00  0.00     0.235 C 
HETATM   15  C   UNL     1      27.067  45.021  50.006  1.00  0.00     0.035 C 
BRANCH  12  16
HETATM   16  C   UNL     1      23.348  45.535  49.213  1.00  0.00     0.277 C 
BRANCH  16  17
HETATM   17  C   UNL     1      23.115  44.102  48.918  1.00  0.00     0.011 A 
HETATM   18  C   UNL     1      23.075  43.442  47.697  1.00  0.00     0.035 A 
HETATM   19  C   UNL     1      23.282  43.922  46.306  1.00  0.00     0.070 C 
HETATM   20  N   UNL     1      22.818  42.123  47.999  1.00  0.00    -0.278 N 
HETATM   21  C   UNL     1      22.709  41.003  47.090  1.00  0.00     0.179 C 
HETATM   22  N   UNL     1      22.680  41.902  49.315  1.00  0.00    -0.185 NA
HETATM   23  C   UNL     1      22.893  43.087  49.875  1.00  0.00     0.149 A 
ENDBRANCH  16  17
ENDBRANCH  12  16
ENDBRANCH   1   9
BRANCH   1  24
HETATM   24  C   UNL     1      26.927  43.419  53.733  1.00  0.00     0.082 C 
BRANCH  24  25
HETATM   25  C   UNL     1      27.812  44.394  54.491  1.00  0.00    -0.034 A 
HETATM   26  C   UNL     1      29.088  44.072  54.991  1.00  0.00     0.040 A 
HETATM   27 CL   UNL     1      29.789  42.504  54.819  1.00  0.00    -0.084 Cl
HETATM   28  C   UNL     1      29.841  45.018  55.698  1.00  0.00     0.024 A 
HETATM   29  C   UNL     1      29.334  46.293  55.932  1.00  0.00     0.002 A 
HETATM   30  C   UNL     1      28.063  46.621  55.475  1.00  0.00     0.001 A 
HETATM   31  C   UNL     1      27.308  45.679  54.775  1.00  0.00     0.009 A 
ENDBRANCH  24  25
ENDBRANCH   1  24
BRANCH   5  32
HETATM   32  C   UNL     1      28.391  40.250  50.810  1.00  0.00     0.141 C 
BRANCH  32  33
HETATM   33  C   UNL     1      28.012  39.879  49.408  1.00  0.00     0.004 A 
HETATM   34  C   UNL     1      28.718  40.501  48.230  1.00  0.00     0.007 A 
HETATM   35  C   UNL     1      28.945  39.050  48.561  1.00  0.00     0.007 A 
ENDBRANCH  32  33
ENDBRANCH   5  32
TORSDOF 7
ENDMDL
