MODEL 1
REMARK VINA RESULT:      -8.7      0.000      0.000
REMARK  6 active torsions:
REMARK  status: ('A' for Active; 'I' for Inactive)
REMARK    1  A    between atoms: C_2  and  N_3 
REMARK    2  A    between atoms: C_2  and  C_25 
REMARK    3  A    between atoms: C_7  and  N_8 
REMARK       I    between atoms: N_8  and  C_9 
REMARK       I    between atoms: C_9  and  N_10 
REMARK    4  A    between atoms: N_10  and  C_11 
REMARK    5  A    between atoms: C_11  and  C_12 
REMARK    6  A    between atoms: C_20  and  O_21 
ROOT
HETATM    1  N   UNL     1      25.538  46.915  50.337  1.00  0.00    -0.293 N 
HETATM    2  C   UNL     1      26.282  45.725  50.141  1.00  0.00     0.322 C 
HETATM    3  N   UNL     1      26.033  44.761  51.067  1.00  0.00    -0.337 N 
HETATM    4  O   UNL     1      27.035  45.555  49.200  1.00  0.00    -0.247 OA
HETATM    5  H   UNL     1      24.799  46.900  51.022  1.00  0.00     0.172 HD
HETATM    6  H   UNL     1      26.632  43.960  50.905  1.00  0.00     0.164 HD
ENDROOT
BRANCH   3   7
HETATM    7  C   UNL     1      25.633  44.972  52.437  1.00  0.00     0.181 C 
BRANCH   7   8
HETATM    8  C   UNL     1      26.798  44.810  53.343  1.00  0.00     0.028 A 
HETATM    9  N   UNL     1      27.678  43.755  53.254  1.00  0.00    -0.357 N 
HETATM   10  H   UNL     1      27.619  43.001  52.583  1.00  0.00     0.166 HD
HETATM   11  C   UNL     1      28.664  43.869  54.206  1.00  0.00     0.043 A 
HETATM   12  C   UNL     1      28.433  45.055  54.899  1.00  0.00    -0.005 A 
HETATM   13  C   UNL     1      29.744  43.030  54.493  1.00  0.00     0.033 A 
HETATM   14  C   UNL     1      27.258  45.636  54.351  1.00  0.00     0.040 A 
HETATM   15  C   UNL     1      29.332  45.432  55.913  1.00  0.00     0.050 A 
HETATM   16  C   UNL     1      30.441  44.624  56.198  1.00  0.00     0.069 A 
HETATM   17  C   UNL     1      30.629  43.429  55.503  1.00  0.00     0.039 A 
BRANCH  16  18
HETATM   18  O   UNL     1      31.256  45.109  57.185  1.00  0.00    -0.356 OA
HETATM   19  C   UNL     1      30.657  45.321  58.458  1.00  0.00     0.210 C 
ENDBRANCH  16  18
ENDBRANCH   7   8
ENDBRANCH   3   7
BRANCH   1  20
HETATM   20  C   UNL     1      25.718  48.074  49.590  1.00  0.00     0.129 A 
HETATM   21  N   UNL     1      24.730  48.917  49.118  1.00  0.00    -0.249 N 
HETATM   22  N   UNL     1      25.220  49.978  48.443  1.00  0.00    -0.183 NA
HETATM   23  C   UNL     1      26.540  49.806  48.482  1.00  0.00     0.142 A 
HETATM   24  C   UNL     1      26.905  48.643  49.181  1.00  0.00     0.071 A 
BRANCH  21  25
HETATM   25  C   UNL     1      23.274  48.792  49.230  1.00  0.00     0.111 C 
HETATM   26  C   UNL     1      22.638  50.177  49.387  1.00  0.00     0.035 C 
BRANCH  25  27
HETATM   27  C   UNL     1      22.649  47.936  48.094  1.00  0.00     0.002 C 
HETATM   28  C   UNL     1      22.476  46.470  48.515  1.00  0.00     0.011 C 
HETATM   29  C   UNL     1      21.289  48.485  47.648  1.00  0.00     0.011 C 
ENDBRANCH  25  27
ENDBRANCH  21  25
ENDBRANCH   1  20
TORSDOF 6
ENDMDL
MODEL 2
REMARK VINA RESULT:      -8.3      3.421      9.703
REMARK  6 active torsions:
REMARK  status: ('A' for Active; 'I' for Inactive)
REMARK    1  A    between atoms: C_2  and  N_3 
REMARK    2  A    between atoms: C_2  and  C_25 
REMARK    3  A    between atoms: C_7  and  N_8 
REMARK       I    between atoms: N_8  and  C_9 
REMARK       I    between atoms: C_9  and  N_10 
REMARK    4  A    between atoms: N_10  and  C_11 
REMARK    5  A    between atoms: C_11  and  C_12 
REMARK    6  A    between atoms: C_20  and  O_21 
ROOT
HETATM    1  N   UNL     1      24.971  46.123  50.386  1.00  0.00    -0.293 N 
HETATM    2  C   UNL     1      25.338  47.488  50.295  1.00  0.00     0.322 C 
HETATM    3  N   UNL     1      24.368  48.286  49.775  1.00  0.00    -0.337 N 
HETATM    4  O   UNL     1      26.402  47.922  50.696  1.00  0.00    -0.247 OA
HETATM    5  H   UNL     1      24.007  45.882  50.215  1.00  0.00     0.172 HD
HETATM    6  H   UNL     1      24.709  49.236  49.687  1.00  0.00     0.164 HD
ENDROOT
BRANCH   3   7
HETATM    7  C   UNL     1      23.357  47.896  48.822  1.00  0.00     0.181 C 
BRANCH   7   8
HETATM    8  C   UNL     1      22.150  48.747  48.977  1.00  0.00     0.028 A 
HETATM    9  N   UNL     1      20.967  48.283  49.507  1.00  0.00    -0.357 N 
HETATM   10  H   UNL     1      20.803  47.340  49.832  1.00  0.00     0.166 HD
HETATM   11  C   UNL     1      20.030  49.288  49.542  1.00  0.00     0.043 A 
HETATM   12  C   UNL     1      20.643  50.442  49.060  1.00  0.00    -0.005 A 
HETATM   13  C   UNL     1      18.702  49.270  49.978  1.00  0.00     0.033 A 
HETATM   14  C   UNL     1      21.973  50.090  48.705  1.00  0.00     0.040 A 
HETATM   15  C   UNL     1      19.904  51.639  49.028  1.00  0.00     0.050 A 
HETATM   16  C   UNL     1      18.580  51.653  49.489  1.00  0.00     0.069 A 
HETATM   17  C   UNL     1      17.988  50.475  49.942  1.00  0.00     0.039 A 
BRANCH  16  18
HETATM   18  O   UNL     1      17.975  52.880  49.433  1.00  0.00    -0.356 OA
HETATM   19  C   UNL     1      16.604  52.931  49.813  1.00  0.00     0.210 C 
ENDBRANCH  16  18
ENDBRANCH   7   8
ENDBRANCH   3   7
BRANCH   1  20
HETATM   20  C   UNL     1      25.842  45.109  50.770  1.00  0.00     0.129 A 
HETATM   21  N   UNL     1      26.183  44.755  52.061  1.00  0.00    -0.249 N 
HETATM   22  N   UNL     1      27.038  43.711  52.114  1.00  0.00    -0.183 NA
HETATM   23  C   UNL     1      27.246  43.398  50.836  1.00  0.00     0.142 A 
HETATM   24  C   UNL     1      26.530  44.230  49.961  1.00  0.00     0.071 A 
BRANCH  21  25
HETATM   25  C   UNL     1      25.773  45.366  53.329  1.00  0.00     0.111 C 
HETATM   26  C   UNL     1      25.395  44.278  54.339  1.00  0.00     0.035 C 
BRANCH  25  27
HETATM   27  C   UNL     1      26.804  46.397  53.868  1.00  0.00     0.002 C 
HETATM   28  C   UNL     1      26.117  47.648  54.430  1.00  0.00     0.011 C 
HETATM   29  C   UNL     1      27.698  45.793  54.957  1.00  0.00     0.011 C 
ENDBRANCH  25  27
ENDBRANCH  21  25
ENDBRANCH   1  20
TORSDOF 6
ENDMDL
MODEL 3
REMARK VINA RESULT:      -8.2      1.449      2.503
REMARK  6 active torsions:
REMARK  status: ('A' for Active; 'I' for Inactive)
REMARK    1  A    between atoms: C_2  and  N_3 
REMARK    2  A    between atoms: C_2  and  C_25 
REMARK    3  A    between atoms: C_7  and  N_8 
REMARK       I    between atoms: N_8  and  C_9 
REMARK       I    between atoms: C_9  and  N_10 
REMARK    4  A    between atoms: N_10  and  C_11 
REMARK    5  A    between atoms: C_11  and  C_12 
REMARK    6  A    between atoms: C_20  and  O_21 
ROOT
HETATM    1  N   UNL     1      23.655  45.793  49.975  1.00  0.00    -0.293 N 
HETATM    2  C   UNL     1      24.814  44.982  49.905  1.00  0.00     0.322 C 
HETATM    3  N   UNL     1      25.430  44.795  51.102  1.00  0.00    -0.337 N 
HETATM    4  O   UNL     1      25.197  44.451  48.878  1.00  0.00    -0.247 OA
HETATM    5  H   UNL     1      23.300  46.029  50.888  1.00  0.00     0.172 HD
HETATM    6  H   UNL     1      26.277  44.255  50.977  1.00  0.00     0.164 HD
ENDROOT
BRANCH   3   7
HETATM    7  C   UNL     1      25.436  45.715  52.214  1.00  0.00     0.181 C 
BRANCH   7   8
HETATM    8  C   UNL     1      26.571  45.413  53.123  1.00  0.00     0.028 A 
HETATM    9  N   UNL     1      27.442  44.368  52.915  1.00  0.00    -0.357 N 
HETATM   10  H   UNL     1      27.396  43.713  52.146  1.00  0.00     0.166 HD
HETATM   11  C   UNL     1      28.399  44.336  53.902  1.00  0.00     0.043 A 
HETATM   12  C   UNL     1      28.159  45.419  54.745  1.00  0.00    -0.005 A 
HETATM   13  C   UNL     1      29.461  43.449  54.103  1.00  0.00     0.033 A 
HETATM   14  C   UNL     1      27.008  46.087  54.247  1.00  0.00     0.040 A 
HETATM   15  C   UNL     1      29.031  45.641  55.826  1.00  0.00     0.050 A 
HETATM   16  C   UNL     1      30.122  44.784  56.030  1.00  0.00     0.069 A 
HETATM   17  C   UNL     1      30.318  43.694  55.184  1.00  0.00     0.039 A 
BRANCH  16  18
HETATM   18  O   UNL     1      30.911  45.118  57.097  1.00  0.00    -0.356 OA
HETATM   19  C   UNL     1      30.335  45.985  58.068  1.00  0.00     0.210 C 
ENDBRANCH  16  18
ENDBRANCH   7   8
ENDBRANCH   3   7
BRANCH   1  20
HETATM   20  C   UNL     1      22.936  46.218  48.863  1.00  0.00     0.129 A 
HETATM   21  N   UNL     1      22.747  47.523  48.448  1.00  0.00    -0.249 N 
HETATM   22  N   UNL     1      22.021  47.616  47.313  1.00  0.00    -0.183 NA
HETATM   23  C   UNL     1      21.740  46.351  47.004  1.00  0.00     0.142 A 
HETATM   24  C   UNL     1      22.283  45.444  47.929  1.00  0.00     0.071 A 
BRANCH  21  25
HETATM   25  C   UNL     1      23.194  48.770  49.076  1.00  0.00     0.111 C 
HETATM   26  C   UNL     1      24.707  48.935  48.897  1.00  0.00     0.035 C 
BRANCH  25  27
HETATM   27  C   UNL     1      22.366  50.006  48.629  1.00  0.00     0.002 C 
HETATM   28  C   UNL     1      21.208  50.294  49.592  1.00  0.00     0.011 C 
HETATM   29  C   UNL     1      23.236  51.263  48.512  1.00  0.00     0.011 C 
ENDBRANCH  25  27
ENDBRANCH  21  25
ENDBRANCH   1  20
TORSDOF 6
ENDMDL
MODEL 4
REMARK VINA RESULT:      -8.0      3.326     10.234
REMARK  6 active torsions:
REMARK  status: ('A' for Active; 'I' for Inactive)
REMARK    1  A    between atoms: C_2  and  N_3 
REMARK    2  A    between atoms: C_2  and  C_25 
REMARK    3  A    between atoms: C_7  and  N_8 
REMARK       I    between atoms: N_8  and  C_9 
REMARK       I    between atoms: C_9  and  N_10 
REMARK    4  A    between atoms: N_10  and  C_11 
REMARK    5  A    between atoms: C_11  and  C_12 
REMARK    6  A    between atoms: C_20  and  O_21 
ROOT
HETATM    1  N   UNL     1      24.583  45.903  50.447  1.00  0.00    -0.293 N 
HETATM    2  C   UNL     1      24.724  47.312  50.401  1.00  0.00     0.322 C 
HETATM    3  N   UNL     1      23.619  47.962  49.948  1.00  0.00    -0.337 N 
HETATM    4  O   UNL     1      25.721  47.897  50.781  1.00  0.00    -0.247 OA
HETATM    5  H   UNL     1      23.664  45.517  50.300  1.00  0.00     0.172 HD
HETATM    6  H   UNL     1      23.800  48.956  49.887  1.00  0.00     0.164 HD
ENDROOT
BRANCH   3   7
HETATM    7  C   UNL     1      22.645  47.448  49.016  1.00  0.00     0.181 C 
BRANCH   7   8
HETATM    8  C   UNL     1      21.639  48.492  48.697  1.00  0.00     0.028 A 
HETATM    9  N   UNL     1      21.412  49.587  49.501  1.00  0.00    -0.357 N 
HETATM   10  H   UNL     1      21.891  49.782  50.370  1.00  0.00     0.166 HD
HETATM   11  C   UNL     1      20.439  50.391  48.956  1.00  0.00     0.043 A 
HETATM   12  C   UNL     1      20.061  49.818  47.744  1.00  0.00    -0.005 A 
HETATM   13  C   UNL     1      19.882  51.582  49.429  1.00  0.00     0.033 A 
HETATM   14  C   UNL     1      20.819  48.625  47.593  1.00  0.00     0.040 A 
HETATM   15  C   UNL     1      19.098  50.472  46.956  1.00  0.00     0.050 A 
HETATM   16  C   UNL     1      18.546  51.685  47.394  1.00  0.00     0.069 A 
HETATM   17  C   UNL     1      18.927  52.219  48.625  1.00  0.00     0.039 A 
BRANCH  16  18
HETATM   18  O   UNL     1      17.640  52.239  46.531  1.00  0.00    -0.356 OA
HETATM   19  C   UNL     1      17.589  51.686  45.220  1.00  0.00     0.210 C 
ENDBRANCH  16  18
ENDBRANCH   7   8
ENDBRANCH   3   7
BRANCH   1  20
HETATM   20  C   UNL     1      25.620  45.029  50.758  1.00  0.00     0.129 A 
HETATM   21  N   UNL     1      26.122  44.755  52.016  1.00  0.00    -0.249 N 
HETATM   22  N   UNL     1      27.117  43.842  51.999  1.00  0.00    -0.183 NA
HETATM   23  C   UNL     1      27.252  43.534  50.710  1.00  0.00     0.142 A 
HETATM   24  C   UNL     1      26.350  44.239  49.897  1.00  0.00     0.071 A 
BRANCH  21  25
HETATM   25  C   UNL     1      25.746  45.330  53.311  1.00  0.00     0.111 C 
HETATM   26  C   UNL     1      25.409  44.212  54.304  1.00  0.00     0.035 C 
BRANCH  25  27
HETATM   27  C   UNL     1      26.782  46.357  53.844  1.00  0.00     0.002 C 
HETATM   28  C   UNL     1      26.103  47.623  54.384  1.00  0.00     0.011 C 
HETATM   29  C   UNL     1      27.662  45.759  54.948  1.00  0.00     0.011 C 
ENDBRANCH  25  27
ENDBRANCH  21  25
ENDBRANCH   1  20
TORSDOF 6
ENDMDL
MODEL 5
REMARK VINA RESULT:      -7.9      2.776      9.313
REMARK  6 active torsions:
REMARK  status: ('A' for Active; 'I' for Inactive)
REMARK    1  A    between atoms: C_2  and  N_3 
REMARK    2  A    between atoms: C_2  and  C_25 
REMARK    3  A    between atoms: C_7  and  N_8 
REMARK       I    between atoms: N_8  and  C_9 
REMARK       I    between atoms: C_9  and  N_10 
REMARK    4  A    between atoms: N_10  and  C_11 
REMARK    5  A    between atoms: C_11  and  C_12 
REMARK    6  A    between atoms: C_20  and  O_21 
ROOT
HETATM    1  N   UNL     1      26.342  45.362  51.856  1.00  0.00    -0.293 N 
HETATM    2  C   UNL     1      24.962  45.072  51.720  1.00  0.00     0.322 C 
HETATM    3  N   UNL     1      24.459  45.347  50.487  1.00  0.00    -0.337 N 
HETATM    4  O   UNL     1      24.294  44.570  52.605  1.00  0.00    -0.247 OA
HETATM    5  H   UNL     1      26.859  45.590  51.021  1.00  0.00     0.172 HD
HETATM    6  H   UNL     1      23.462  45.170  50.471  1.00  0.00     0.164 HD
ENDROOT
BRANCH   3   7
HETATM    7  C   UNL     1      24.926  46.368  49.580  1.00  0.00     0.181 C 
BRANCH   7   8
HETATM    8  C   UNL     1      23.857  47.371  49.343  1.00  0.00     0.028 A 
HETATM    9  N   UNL     1      22.535  47.032  49.165  1.00  0.00    -0.357 N 
HETATM   10  H   UNL     1      22.167  46.090  49.173  1.00  0.00     0.166 HD
HETATM   11  C   UNL     1      21.770  48.160  48.980  1.00  0.00     0.043 A 
HETATM   12  C   UNL     1      22.621  49.258  49.085  1.00  0.00    -0.005 A 
HETATM   13  C   UNL     1      20.398  48.293  48.748  1.00  0.00     0.033 A 
HETATM   14  C   UNL     1      23.929  48.751  49.311  1.00  0.00     0.040 A 
HETATM   15  C   UNL     1      22.077  50.549  48.973  1.00  0.00     0.050 A 
HETATM   16  C   UNL     1      20.699  50.711  48.772  1.00  0.00     0.069 A 
HETATM   17  C   UNL     1      19.878  49.590  48.645  1.00  0.00     0.039 A 
BRANCH  16  18
HETATM   18  O   UNL     1      20.285  52.014  48.706  1.00  0.00    -0.356 OA
HETATM   19  C   UNL     1      18.958  52.237  48.242  1.00  0.00     0.210 C 
ENDBRANCH  16  18
ENDBRANCH   7   8
ENDBRANCH   3   7
BRANCH   1  20
HETATM   20  C   UNL     1      27.038  45.277  53.056  1.00  0.00     0.129 A 
HETATM   21  N   UNL     1      28.051  44.389  53.365  1.00  0.00    -0.249 N 
HETATM   22  N   UNL     1      28.550  44.569  54.607  1.00  0.00    -0.183 NA
HETATM   23  C   UNL     1      27.840  45.583  55.097  1.00  0.00     0.142 A 
HETATM   24  C   UNL     1      26.891  46.062  54.179  1.00  0.00     0.071 A 
BRANCH  21  25
HETATM   25  C   UNL     1      28.610  43.302  52.556  1.00  0.00     0.111 C 
HETATM   26  C   UNL     1      30.075  43.063  52.936  1.00  0.00     0.035 C 
BRANCH  25  27
HETATM   27  C   UNL     1      27.735  42.018  52.576  1.00  0.00     0.002 C 
HETATM   28  C   UNL     1      27.358  41.563  51.160  1.00  0.00     0.011 C 
HETATM   29  C   UNL     1      28.437  40.861  53.296  1.00  0.00     0.011 C 
ENDBRANCH  25  27
ENDBRANCH  21  25
ENDBRANCH   1  20
TORSDOF 6
ENDMDL
MODEL 6
REMARK VINA RESULT:      -7.8      1.940      3.148
REMARK  6 active torsions:
REMARK  status: ('A' for Active; 'I' for Inactive)
REMARK    1  A    between atoms: C_2  and  N_3 
REMARK    2  A    between atoms: C_2  and  C_25 
REMARK    3  A    between atoms: C_7  and  N_8 
REMARK       I    between atoms: N_8  and  C_9 
REMARK       I    between atoms: C_9  and  N_10 
REMARK    4  A    between atoms: N_10  and  C_11 
REMARK    5  A    between atoms: C_11  and  C_12 
REMARK    6  A    between atoms: C_20  and  O_21 
ROOT
HETATM    1  N   UNL     1      24.945  44.473  50.563  1.00  0.00    -0.293 N 
HETATM    2  C   UNL     1      24.481  43.202  50.983  1.00  0.00     0.322 C 
HETATM    3  N   UNL     1      25.443  42.420  51.541  1.00  0.00    -0.337 N 
HETATM    4  O   UNL     1      23.317  42.857  50.904  1.00  0.00    -0.247 OA
HETATM    5  H   UNL     1      25.873  44.750  50.842  1.00  0.00     0.172 HD
HETATM    6  H   UNL     1      25.062  41.510  51.770  1.00  0.00     0.164 HD
ENDROOT
BRANCH   3   7
HETATM    7  C   UNL     1      26.853  42.447  51.235  1.00  0.00     0.181 C 
BRANCH   7   8
HETATM    8  C   UNL     1      27.618  42.992  52.385  1.00  0.00     0.028 A 
HETATM    9  N   UNL     1      28.847  42.504  52.768  1.00  0.00    -0.357 N 
HETATM   10  H   UNL     1      29.338  41.742  52.319  1.00  0.00     0.166 HD
HETATM   11  C   UNL     1      29.326  43.203  53.851  1.00  0.00     0.043 A 
HETATM   12  C   UNL     1      28.395  44.197  54.144  1.00  0.00    -0.005 A 
HETATM   13  C   UNL     1      30.510  43.045  54.576  1.00  0.00     0.033 A 
HETATM   14  C   UNL     1      27.326  44.053  53.220  1.00  0.00     0.040 A 
HETATM   15  C   UNL     1      28.667  45.089  55.197  1.00  0.00     0.050 A 
HETATM   16  C   UNL     1      29.863  44.972  55.920  1.00  0.00     0.069 A 
HETATM   17  C   UNL     1      30.761  43.949  55.617  1.00  0.00     0.039 A 
BRANCH  16  18
HETATM   18  O   UNL     1      30.026  45.911  56.901  1.00  0.00    -0.356 OA
HETATM   19  C   UNL     1      28.893  46.179  57.721  1.00  0.00     0.210 C 
ENDBRANCH  16  18
ENDBRANCH   7   8
ENDBRANCH   3   7
BRANCH   1  20
HETATM   20  C   UNL     1      24.171  45.388  49.858  1.00  0.00     0.129 A 
HETATM   21  N   UNL     1      24.256  46.766  49.919  1.00  0.00    -0.249 N 
HETATM   22  N   UNL     1      23.384  47.386  49.096  1.00  0.00    -0.183 NA
HETATM   23  C   UNL     1      22.731  46.387  48.505  1.00  0.00     0.142 A 
HETATM   24  C   UNL     1      23.179  45.128  48.938  1.00  0.00     0.071 A 
BRANCH  21  25
HETATM   25  C   UNL     1      25.120  47.606  50.755  1.00  0.00     0.111 C 
HETATM   26  C   UNL     1      25.285  46.974  52.141  1.00  0.00     0.035 C 
BRANCH  25  27
HETATM   27  C   UNL     1      26.463  47.971  50.064  1.00  0.00     0.002 C 
HETATM   28  C   UNL     1      27.173  46.730  49.507  1.00  0.00     0.011 C 
HETATM   29  C   UNL     1      26.263  48.978  48.925  1.00  0.00     0.011 C 
ENDBRANCH  25  27
ENDBRANCH  21  25
ENDBRANCH   1  20
TORSDOF 6
ENDMDL
MODEL 7
REMARK VINA RESULT:      -7.8      2.944      4.546
REMARK  6 active torsions:
REMARK  status: ('A' for Active; 'I' for Inactive)
REMARK    1  A    between atoms: C_2  and  N_3 
REMARK    2  A    between atoms: C_2  and  C_25 
REMARK    3  A    between atoms: C_7  and  N_8 
REMARK       I    between atoms: N_8  and  C_9 
REMARK       I    between atoms: C_9  and  N_10 
REMARK    4  A    between atoms: N_10  and  C_11 
REMARK    5  A    between atoms: C_11  and  C_12 
REMARK    6  A    between atoms: C_20  and  O_21 
ROOT
HETATM    1  N   UNL     1      22.428  48.935  49.589  1.00  0.00    -0.293 N 
HETATM    2  C   UNL     1      22.948  47.889  48.788  1.00  0.00     0.322 C 
HETATM    3  N   UNL     1      24.031  47.268  49.326  1.00  0.00    -0.337 N 
HETATM    4  O   UNL     1      22.442  47.536  47.738  1.00  0.00    -0.247 OA
HETATM    5  H   UNL     1      22.784  49.031  50.526  1.00  0.00     0.172 HD
HETATM    6  H   UNL     1      24.387  46.570  48.685  1.00  0.00     0.164 HD
ENDROOT
BRANCH   3   7
HETATM    7  C   UNL     1      25.008  47.862  50.206  1.00  0.00     0.181 C 
BRANCH   7   8
HETATM    8  C   UNL     1      25.582  46.830  51.107  1.00  0.00     0.028 A 
HETATM    9  N   UNL     1      25.985  47.098  52.396  1.00  0.00    -0.357 N 
HETATM   10  H   UNL     1      25.937  48.002  52.846  1.00  0.00     0.166 HD
HETATM   11  C   UNL     1      26.462  45.957  52.997  1.00  0.00     0.043 A 
HETATM   12  C   UNL     1      26.320  44.917  52.082  1.00  0.00    -0.005 A 
HETATM   13  C   UNL     1      26.986  45.763  54.278  1.00  0.00     0.033 A 
HETATM   14  C   UNL     1      25.769  45.477  50.897  1.00  0.00     0.040 A 
HETATM   15  C   UNL     1      26.700  43.619  52.467  1.00  0.00     0.050 A 
HETATM   16  C   UNL     1      27.200  43.393  53.758  1.00  0.00     0.069 A 
HETATM   17  C   UNL     1      27.353  44.460  54.642  1.00  0.00     0.039 A 
BRANCH  16  18
HETATM   18  O   UNL     1      27.510  42.087  54.023  1.00  0.00    -0.356 OA
HETATM   19  C   UNL     1      28.755  41.614  53.522  1.00  0.00     0.210 C 
ENDBRANCH  16  18
ENDBRANCH   7   8
ENDBRANCH   3   7
BRANCH   1  20
HETATM   20  C   UNL     1      21.404  49.785  49.185  1.00  0.00     0.129 A 
HETATM   21  N   UNL     1      20.046  49.538  49.255  1.00  0.00    -0.249 N 
HETATM   22  N   UNL     1      19.298  50.570  48.807  1.00  0.00    -0.183 NA
HETATM   23  C   UNL     1      20.195  51.485  48.442  1.00  0.00     0.142 A 
HETATM   24  C   UNL     1      21.514  51.053  48.656  1.00  0.00     0.071 A 
BRANCH  21  25
HETATM   25  C   UNL     1      19.345  48.334  49.709  1.00  0.00     0.111 C 
HETATM   26  C   UNL     1      18.588  48.625  51.010  1.00  0.00     0.035 C 
BRANCH  25  27
HETATM   27  C   UNL     1      18.470  47.686  48.601  1.00  0.00     0.002 C 
HETATM   28  C   UNL     1      19.076  46.371  48.093  1.00  0.00     0.011 C 
HETATM   29  C   UNL     1      17.041  47.415  49.088  1.00  0.00     0.011 C 
ENDBRANCH  25  27
ENDBRANCH  21  25
ENDBRANCH   1  20
TORSDOF 6
ENDMDL
MODEL 8
REMARK VINA RESULT:      -7.7      3.615      7.163
REMARK  6 active torsions:
REMARK  status: ('A' for Active; 'I' for Inactive)
REMARK    1  A    between atoms: C_2  and  N_3 
REMARK    2  A    between atoms: C_2  and  C_25 
REMARK    3  A    between atoms: C_7  and  N_8 
REMARK       I    between atoms: N_8  and  C_9 
REMARK       I    between atoms: C_9  and  N_10 
REMARK    4  A    between atoms: N_10  and  C_11 
REMARK    5  A    between atoms: C_11  and  C_12 
REMARK    6  A    between atoms: C_20  and  O_21 
ROOT
HETATM    1  N   UNL     1      25.113  45.384  52.161  1.00  0.00    -0.293 N 
HETATM    2  C   UNL     1      25.210  45.948  50.866  1.00  0.00     0.322 C 
HETATM    3  N   UNL     1      24.266  45.500  49.996  1.00  0.00    -0.337 N 
HETATM    4  O   UNL     1      26.028  46.799  50.567  1.00  0.00    -0.247 OA
HETATM    5  H   UNL     1      24.293  44.839  52.376  1.00  0.00     0.172 HD
HETATM    6  H   UNL     1      24.422  45.897  49.078  1.00  0.00     0.164 HD
ENDROOT
BRANCH   3   7
HETATM    7  C   UNL     1      23.631  44.204  50.015  1.00  0.00     0.181 C 
BRANCH   7   8
HETATM    8  C   UNL     1      24.645  43.133  49.840  1.00  0.00     0.028 A 
HETATM    9  N   UNL     1      25.472  43.054  48.742  1.00  0.00    -0.357 N 
HETATM   10  H   UNL     1      25.469  43.697  47.961  1.00  0.00     0.166 HD
HETATM   11  C   UNL     1      26.316  41.974  48.852  1.00  0.00     0.043 A 
HETATM   12  C   UNL     1      26.052  41.367  50.078  1.00  0.00    -0.005 A 
HETATM   13  C   UNL     1      27.298  41.501  47.977  1.00  0.00     0.033 A 
HETATM   14  C   UNL     1      25.000  42.102  50.688  1.00  0.00     0.040 A 
HETATM   15  C   UNL     1      26.815  40.249  50.459  1.00  0.00     0.050 A 
HETATM   16  C   UNL     1      27.828  39.775  49.613  1.00  0.00     0.069 A 
HETATM   17  C   UNL     1      28.049  40.390  48.381  1.00  0.00     0.039 A 
BRANCH  16  18
HETATM   18  O   UNL     1      28.518  38.700  50.104  1.00  0.00    -0.356 OA
HETATM   19  C   UNL     1      29.443  38.079  49.217  1.00  0.00     0.210 C 
ENDBRANCH  16  18
ENDBRANCH   7   8
ENDBRANCH   3   7
BRANCH   1  20
HETATM   20  C   UNL     1      26.041  45.600  53.174  1.00  0.00     0.129 A 
HETATM   21  N   UNL     1      27.169  44.846  53.438  1.00  0.00    -0.249 N 
HETATM   22  N   UNL     1      27.890  45.322  54.476  1.00  0.00    -0.183 NA
HETATM   23  C   UNL     1      27.208  46.391  54.881  1.00  0.00     0.142 A 
HETATM   24  C   UNL     1      26.055  46.611  54.109  1.00  0.00     0.071 A 
BRANCH  21  25
HETATM   25  C   UNL     1      27.646  43.627  52.777  1.00  0.00     0.111 C 
HETATM   26  C   UNL     1      28.225  43.969  51.400  1.00  0.00     0.035 C 
BRANCH  25  27
HETATM   27  C   UNL     1      28.596  42.784  53.671  1.00  0.00     0.002 C 
HETATM   28  C   UNL     1      28.193  41.304  53.692  1.00  0.00     0.011 C 
HETATM   29  C   UNL     1      30.055  42.892  53.212  1.00  0.00     0.011 C 
ENDBRANCH  25  27
ENDBRANCH  21  25
ENDBRANCH   1  20
TORSDOF 6
ENDMDL
MODEL 9
REMARK VINA RESULT:      -7.6      3.099      5.198
REMARK  6 active torsions:
REMARK  status: ('A' for Active; 'I' for Inactive)
REMARK    1  A    between atoms: C_2  and  N_3 
REMARK    2  A    between atoms: C_2  and  C_25 
REMARK    3  A    between atoms: C_7  and  N_8 
REMARK       I    between atoms: N_8  and  C_9 
REMARK       I    between atoms: C_9  and  N_10 
REMARK    4  A    between atoms: N_10  and  C_11 
REMARK    5  A    between atoms: C_11  and  C_12 
REMARK    6  A    between atoms: C_20  and  O_21 
ROOT
HETATM    1  N   UNL     1      21.252  47.821  49.258  1.00  0.00    -0.293 N 
HETATM    2  C   UNL     1      22.121  47.502  48.186  1.00  0.00     0.322 C 
HETATM    3  N   UNL     1      23.423  47.367  48.552  1.00  0.00    -0.337 N 
HETATM    4  O   UNL     1      21.735  47.311  47.047  1.00  0.00    -0.247 OA
HETATM    5  H   UNL     1      21.622  47.769  50.194  1.00  0.00     0.172 HD
HETATM    6  H   UNL     1      23.998  47.193  47.737  1.00  0.00     0.164 HD
ENDROOT
BRANCH   3   7
HETATM    7  C   UNL     1      24.080  48.042  49.645  1.00  0.00     0.181 C 
BRANCH   7   8
HETATM    8  C   UNL     1      24.914  47.084  50.413  1.00  0.00     0.028 A 
HETATM    9  N   UNL     1      25.766  46.182  49.815  1.00  0.00    -0.357 N 
HETATM   10  H   UNL     1      25.902  46.080  48.819  1.00  0.00     0.166 HD
HETATM   11  C   UNL     1      26.419  45.434  50.767  1.00  0.00     0.043 A 
HETATM   12  C   UNL     1      26.006  45.899  52.013  1.00  0.00    -0.005 A 
HETATM   13  C   UNL     1      27.350  44.402  50.621  1.00  0.00     0.033 A 
HETATM   14  C   UNL     1      25.060  46.933  51.779  1.00  0.00     0.040 A 
HETATM   15  C   UNL     1      26.562  45.322  53.169  1.00  0.00     0.050 A 
HETATM   16  C   UNL     1      27.522  44.307  53.049  1.00  0.00     0.069 A 
HETATM   17  C   UNL     1      27.894  43.846  51.787  1.00  0.00     0.039 A 
BRANCH  16  18
HETATM   18  O   UNL     1      28.007  43.844  54.242  1.00  0.00    -0.356 OA
HETATM   19  C   UNL     1      29.182  44.475  54.739  1.00  0.00     0.210 C 
ENDBRANCH  16  18
ENDBRANCH   7   8
ENDBRANCH   3   7
BRANCH   1  20
HETATM   20  C   UNL     1      19.905  48.126  49.101  1.00  0.00     0.129 A 
HETATM   21  N   UNL     1      19.374  49.199  48.410  1.00  0.00    -0.249 N 
HETATM   22  N   UNL     1      18.023  49.214  48.415  1.00  0.00    -0.183 NA
HETATM   23  C   UNL     1      17.691  48.136  49.123  1.00  0.00     0.142 A 
HETATM   24  C   UNL     1      18.816  47.425  49.571  1.00  0.00     0.071 A 
BRANCH  21  25
HETATM   25  C   UNL     1      20.066  50.295  47.726  1.00  0.00     0.111 C 
HETATM   26  C   UNL     1      19.425  50.548  46.357  1.00  0.00     0.035 C 
BRANCH  25  27
HETATM   27  C   UNL     1      20.202  51.570  48.604  1.00  0.00     0.002 C 
HETATM   28  C   UNL     1      18.998  52.506  48.440  1.00  0.00     0.011 C 
HETATM   29  C   UNL     1      20.359  51.224  50.090  1.00  0.00     0.011 C 
ENDBRANCH  25  27
ENDBRANCH  21  25
ENDBRANCH   1  20
TORSDOF 6
ENDMDL
MODEL 10
REMARK VINA RESULT:      -7.6      9.995     14.457
REMARK  6 active torsions:
REMARK  status: ('A' for Active; 'I' for Inactive)
REMARK    1  A    between atoms: C_2  and  N_3 
REMARK    2  A    between atoms: C_2  and  C_25 
REMARK    3  A    between atoms: C_7  and  N_8 
REMARK       I    between atoms: N_8  and  C_9 
REMARK       I    between atoms: C_9  and  N_10 
REMARK    4  A    between atoms: N_10  and  C_11 
REMARK    5  A    between atoms: C_11  and  C_12 
REMARK    6  A    between atoms: C_20  and  O_21 
ROOT
HETATM    1  N   UNL     1      15.678  51.436  48.187  1.00  0.00    -0.293 N 
HETATM    2  C   UNL     1      15.919  52.257  47.058  1.00  0.00     0.322 C 
HETATM    3  N   UNL     1      15.318  53.475  47.124  1.00  0.00    -0.337 N 
HETATM    4  O   UNL     1      16.641  51.930  46.135  1.00  0.00    -0.247 OA
HETATM    5  H   UNL     1      15.233  51.855  48.987  1.00  0.00     0.172 HD
HETATM    6  H   UNL     1      15.482  53.991  46.268  1.00  0.00     0.164 HD
ENDROOT
BRANCH   3   7
HETATM    7  C   UNL     1      14.090  53.788  47.814  1.00  0.00     0.181 C 
BRANCH   7   8
HETATM    8  C   UNL     1      14.370  54.632  49.003  1.00  0.00     0.028 A 
HETATM    9  N   UNL     1      14.617  55.984  48.923  1.00  0.00    -0.357 N 
HETATM   10  H   UNL     1      14.638  56.524  48.068  1.00  0.00     0.166 HD
HETATM   11  C   UNL     1      14.829  56.509  50.176  1.00  0.00     0.043 A 
HETATM   12  C   UNL     1      14.670  55.471  51.091  1.00  0.00    -0.005 A 
HETATM   13  C   UNL     1      15.129  57.816  50.569  1.00  0.00     0.033 A 
HETATM   14  C   UNL     1      14.384  54.297  50.344  1.00  0.00     0.040 A 
HETATM   15  C   UNL     1      14.796  55.753  52.463  1.00  0.00     0.050 A 
HETATM   16  C   UNL     1      15.065  57.063  52.884  1.00  0.00     0.069 A 
HETATM   17  C   UNL     1      15.244  58.074  51.941  1.00  0.00     0.039 A 
BRANCH  16  18
HETATM   18  O   UNL     1      15.138  57.216  54.242  1.00  0.00    -0.356 OA
HETATM   19  C   UNL     1      16.379  57.681  54.764  1.00  0.00     0.210 C 
ENDBRANCH  16  18
ENDBRANCH   7   8
ENDBRANCH   3   7
BRANCH   1  20
HETATM   20  C   UNL     1      16.088  50.110  48.283  1.00  0.00     0.129 A 
HETATM   21  N   UNL     1      17.217  49.637  48.923  1.00  0.00    -0.249 N 
HETATM   22  N   UNL     1      17.332  48.293  48.865  1.00  0.00    -0.183 NA
HETATM   23  C   UNL     1      16.262  47.906  48.173  1.00  0.00     0.142 A 
HETATM   24  C   UNL     1      15.456  48.990  47.789  1.00  0.00     0.071 A 
BRANCH  21  25
HETATM   25  C   UNL     1      18.279  50.384  49.605  1.00  0.00     0.111 C 
HETATM   26  C   UNL     1      18.872  49.539  50.737  1.00  0.00     0.035 C 
BRANCH  25  27
HETATM   27  C   UNL     1      19.338  50.963  48.627  1.00  0.00     0.002 C 
HETATM   28  C   UNL     1      19.190  52.480  48.459  1.00  0.00     0.011 C 
HETATM   29  C   UNL     1      20.768  50.654  49.087  1.00  0.00     0.011 C 
ENDBRANCH  25  27
ENDBRANCH  21  25
ENDBRANCH   1  20
TORSDOF 6
ENDMDL
