MODEL 1
REMARK VINA RESULT:      -8.3      0.000      0.000
REMARK  7 active torsions:
REMARK  status: ('A' for Active; 'I' for Inactive)
REMARK    1  A    between atoms: C_7  and  C_8 
REMARK    2  A    between atoms: C_8  and  N_9 
REMARK       I    between atoms: N_9  and  C_10 
REMARK       I    between atoms: C_10  and  N_11 
REMARK    3  A    between atoms: N_11  and  C_12 
REMARK    4  A    between atoms: C_12  and  C_13 
REMARK    5  A    between atoms: C_13  and  C_14 
REMARK    6  A    between atoms: C_14  and  O_15 
REMARK    7  A    between atoms: C_14  and  C_16 
ROOT
HETATM    1  N   UNL     1      24.872  44.406  51.400  1.00  0.00    -0.337 N 
HETATM    2  C   UNL     1      24.677  44.860  50.120  1.00  0.00     0.316 C 
HETATM    3  N   UNL     1      23.486  45.502  49.978  1.00  0.00    -0.339 N 
HETATM    4  O   UNL     1      25.507  44.713  49.229  1.00  0.00    -0.247 OA
HETATM    5  H   UNL     1      24.045  44.436  51.981  1.00  0.00     0.164 HD
HETATM    6  H   UNL     1      22.793  45.424  50.719  1.00  0.00     0.164 HD
ENDROOT
BRANCH   1   7
HETATM    7  C   UNL     1      25.817  43.344  51.684  1.00  0.00     0.183 C 
BRANCH   7   8
HETATM    8  C   UNL     1      26.875  43.757  52.638  1.00  0.00     0.044 A 
HETATM    9  N   UNL     1      27.919  42.929  53.029  1.00  0.00    -0.343 N 
HETATM   10  C   UNL     1      28.693  43.523  53.924  1.00  0.00     0.112 A 
HETATM   11  H   UNL     1      28.038  41.979  52.657  1.00  0.00     0.167 HD
HETATM   12  N   UNL     1      28.171  44.743  54.171  1.00  0.00    -0.311 N 
HETATM   13  C   UNL     1      29.911  43.044  54.616  1.00  0.00     0.049 A 
HETATM   14  C   UNL     1      28.722  45.620  55.103  1.00  0.00     0.014 A 
HETATM   15  C   UNL     1      27.051  44.914  53.369  1.00  0.00     0.125 A 
HETATM   16  C   UNL     1      28.093  46.955  55.374  1.00  0.00     0.068 C 
HETATM   17  C   UNL     1      29.832  45.191  55.743  1.00  0.00     0.025 A 
HETATM   18  C   UNL     1      30.454  43.892  55.506  1.00  0.00     0.006 A 
ENDBRANCH   7   8
ENDBRANCH   1   7
BRANCH   3  19
HETATM   19  C   UNL     1      22.924  45.887  48.688  1.00  0.00     0.085 C 
HETATM   20  C   UNL     1      21.570  45.217  48.454  1.00  0.00     0.032 C 
BRANCH  19  21
HETATM   21  C   UNL     1      22.876  47.424  48.552  1.00  0.00     0.063 C 
BRANCH  21  22
HETATM   22  C   UNL     1      23.606  48.256  49.619  1.00  0.00     0.177 C 
BRANCH  22  23
HETATM   23  O   UNL     1      22.779  49.346  50.057  1.00  0.00    -0.389 OA
HETATM   24  H   UNL     1      23.336  50.142  49.945  1.00  0.00     0.210 HD
ENDBRANCH  22  23
BRANCH  22  25
HETATM   25  C   UNL     1      24.924  48.806  49.182  1.00  0.00     0.081 A 
HETATM   26  O   UNL     1      26.043  48.141  49.605  1.00  0.00    -0.324 OA
HETATM   27  C   UNL     1      27.114  48.785  49.076  1.00  0.00     0.142 A 
HETATM   28  C   UNL     1      26.704  49.847  48.305  1.00  0.00     0.027 A 
HETATM   29  C   UNL     1      25.289  49.857  48.366  1.00  0.00     0.037 A 
ENDBRANCH  22  25
ENDBRANCH  21  22
ENDBRANCH  19  21
ENDBRANCH   3  19
TORSDOF 7
ENDMDL
MODEL 2
REMARK VINA RESULT:      -8.3      2.994      4.144
REMARK  7 active torsions:
REMARK  status: ('A' for Active; 'I' for Inactive)
REMARK    1  A    between atoms: C_7  and  C_8 
REMARK    2  A    between atoms: C_8  and  N_9 
REMARK       I    between atoms: N_9  and  C_10 
REMARK       I    between atoms: C_10  and  N_11 
REMARK    3  A    between atoms: N_11  and  C_12 
REMARK    4  A    between atoms: C_12  and  C_13 
REMARK    5  A    between atoms: C_13  and  C_14 
REMARK    6  A    between atoms: C_14  and  O_15 
REMARK    7  A    between atoms: C_14  and  C_16 
ROOT
HETATM    1  N   UNL     1      28.126  42.064  52.755  1.00  0.00    -0.337 N 
HETATM    2  C   UNL     1      27.418  42.679  51.754  1.00  0.00     0.316 C 
HETATM    3  N   UNL     1      26.296  41.985  51.418  1.00  0.00    -0.339 N 
HETATM    4  O   UNL     1      27.762  43.744  51.252  1.00  0.00    -0.247 OA
HETATM    5  H   UNL     1      27.831  41.118  52.951  1.00  0.00     0.164 HD
HETATM    6  H   UNL     1      26.184  41.035  51.762  1.00  0.00     0.164 HD
ENDROOT
BRANCH   1   7
HETATM    7  C   UNL     1      29.530  42.355  52.968  1.00  0.00     0.183 C 
BRANCH   7   8
HETATM    8  C   UNL     1      29.766  43.210  54.158  1.00  0.00     0.044 A 
HETATM    9  N   UNL     1      30.714  42.924  55.130  1.00  0.00    -0.343 N 
HETATM   10  C   UNL     1      30.685  43.818  56.107  1.00  0.00     0.112 A 
HETATM   11  H   UNL     1      31.336  42.108  55.071  1.00  0.00     0.167 HD
HETATM   12  N   UNL     1      29.703  44.699  55.824  1.00  0.00    -0.311 N 
HETATM   13  C   UNL     1      31.501  43.930  57.337  1.00  0.00     0.049 A 
HETATM   14  C   UNL     1      29.374  45.754  56.674  1.00  0.00     0.014 A 
HETATM   15  C   UNL     1      29.131  44.349  54.609  1.00  0.00     0.125 A 
HETATM   16  C   UNL     1      28.254  46.694  56.342  1.00  0.00     0.068 C 
HETATM   17  C   UNL     1      30.111  45.863  57.802  1.00  0.00     0.025 A 
HETATM   18  C   UNL     1      31.197  44.954  58.153  1.00  0.00     0.006 A 
ENDBRANCH   7   8
ENDBRANCH   1   7
BRANCH   3  19
HETATM   19  C   UNL     1      25.482  42.285  50.245  1.00  0.00     0.085 C 
HETATM   20  C   UNL     1      25.312  41.050  49.361  1.00  0.00     0.032 C 
BRANCH  19  21
HETATM   21  C   UNL     1      24.141  42.926  50.663  1.00  0.00     0.063 C 
BRANCH  21  22
HETATM   22  C   UNL     1      24.069  44.461  50.707  1.00  0.00     0.177 C 
BRANCH  22  23
HETATM   23  O   UNL     1      24.661  45.025  49.525  1.00  0.00    -0.389 OA
HETATM   24  H   UNL     1      25.612  45.110  49.739  1.00  0.00     0.210 HD
ENDBRANCH  22  23
BRANCH  22  25
HETATM   25  C   UNL     1      24.717  45.078  51.903  1.00  0.00     0.081 A 
HETATM   26  O   UNL     1      24.742  44.330  53.048  1.00  0.00    -0.324 OA
HETATM   27  C   UNL     1      25.394  45.061  53.988  1.00  0.00     0.142 A 
HETATM   28  C   UNL     1      25.803  46.263  53.464  1.00  0.00     0.027 A 
HETATM   29  C   UNL     1      25.375  46.274  52.114  1.00  0.00     0.037 A 
ENDBRANCH  22  25
ENDBRANCH  21  22
ENDBRANCH  19  21
ENDBRANCH   3  19
TORSDOF 7
ENDMDL
MODEL 3
REMARK VINA RESULT:      -8.2      2.687      4.671
REMARK  7 active torsions:
REMARK  status: ('A' for Active; 'I' for Inactive)
REMARK    1  A    between atoms: C_7  and  C_8 
REMARK    2  A    between atoms: C_8  and  N_9 
REMARK       I    between atoms: N_9  and  C_10 
REMARK       I    between atoms: C_10  and  N_11 
REMARK    3  A    between atoms: N_11  and  C_12 
REMARK    4  A    between atoms: C_12  and  C_13 
REMARK    5  A    between atoms: C_13  and  C_14 
REMARK    6  A    between atoms: C_14  and  O_15 
REMARK    7  A    between atoms: C_14  and  C_16 
ROOT
HETATM    1  N   UNL     1      25.629  46.175  53.606  1.00  0.00    -0.337 N 
HETATM    2  C   UNL     1      25.640  46.430  52.258  1.00  0.00     0.316 C 
HETATM    3  N   UNL     1      25.228  45.357  51.529  1.00  0.00    -0.339 N 
HETATM    4  O   UNL     1      25.965  47.515  51.789  1.00  0.00    -0.247 OA
HETATM    5  H   UNL     1      25.513  45.199  53.843  1.00  0.00     0.164 HD
HETATM    6  H   UNL     1      25.146  44.452  51.988  1.00  0.00     0.164 HD
ENDROOT
BRANCH   1   7
HETATM    7  C   UNL     1      26.418  46.969  54.526  1.00  0.00     0.183 C 
BRANCH   7   8
HETATM    8  C   UNL     1      27.623  46.253  55.016  1.00  0.00     0.044 A 
HETATM    9  N   UNL     1      28.126  45.105  54.420  1.00  0.00    -0.343 N 
HETATM   10  C   UNL     1      29.175  44.641  55.082  1.00  0.00     0.112 A 
HETATM   11  H   UNL     1      27.706  44.691  53.578  1.00  0.00     0.167 HD
HETATM   12  N   UNL     1      29.377  45.448  56.144  1.00  0.00    -0.311 N 
HETATM   13  C   UNL     1      30.034  43.463  54.825  1.00  0.00     0.049 A 
HETATM   14  C   UNL     1      30.383  45.218  57.080  1.00  0.00     0.014 A 
HETATM   15  C   UNL     1      28.433  46.466  56.112  1.00  0.00     0.125 A 
HETATM   16  C   UNL     1      30.556  46.119  58.267  1.00  0.00     0.068 C 
HETATM   17  C   UNL     1      31.172  44.143  56.858  1.00  0.00     0.025 A 
HETATM   18  C   UNL     1      31.015  43.245  55.718  1.00  0.00     0.006 A 
ENDBRANCH   7   8
ENDBRANCH   1   7
BRANCH   3  19
HETATM   19  C   UNL     1      25.352  45.270  50.078  1.00  0.00     0.085 C 
HETATM   20  C   UNL     1      26.816  45.340  49.645  1.00  0.00     0.032 C 
BRANCH  19  21
HETATM   21  C   UNL     1      24.616  44.023  49.543  1.00  0.00     0.063 C 
BRANCH  21  22
HETATM   22  C   UNL     1      24.680  42.741  50.388  1.00  0.00     0.177 C 
BRANCH  22  23
HETATM   23  O   UNL     1      23.918  42.899  51.596  1.00  0.00    -0.389 OA
HETATM   24  H   UNL     1      24.383  42.348  52.258  1.00  0.00     0.210 HD
ENDBRANCH  22  23
BRANCH  22  25
HETATM   25  C   UNL     1      26.062  42.306  50.752  1.00  0.00     0.081 A 
HETATM   26  O   UNL     1      26.527  42.688  51.981  1.00  0.00    -0.324 OA
HETATM   27  C   UNL     1      27.774  42.168  52.115  1.00  0.00     0.142 A 
HETATM   28  C   UNL     1      28.115  41.443  50.999  1.00  0.00     0.027 A 
HETATM   29  C   UNL     1      27.008  41.524  50.120  1.00  0.00     0.037 A 
ENDBRANCH  22  25
ENDBRANCH  21  22
ENDBRANCH  19  21
ENDBRANCH   3  19
TORSDOF 7
ENDMDL
MODEL 4
REMARK VINA RESULT:      -8.2      1.972      3.300
REMARK  7 active torsions:
REMARK  status: ('A' for Active; 'I' for Inactive)
REMARK    1  A    between atoms: C_7  and  C_8 
REMARK    2  A    between atoms: C_8  and  N_9 
REMARK       I    between atoms: N_9  and  C_10 
REMARK       I    between atoms: C_10  and  N_11 
REMARK    3  A    between atoms: N_11  and  C_12 
REMARK    4  A    between atoms: C_12  and  C_13 
REMARK    5  A    between atoms: C_13  and  C_14 
REMARK    6  A    between atoms: C_14  and  O_15 
REMARK    7  A    between atoms: C_14  and  C_16 
ROOT
HETATM    1  N   UNL     1      25.708  46.281  53.734  1.00  0.00    -0.337 N 
HETATM    2  C   UNL     1      25.625  46.744  52.446  1.00  0.00     0.316 C 
HETATM    3  N   UNL     1      25.114  45.811  51.597  1.00  0.00    -0.339 N 
HETATM    4  O   UNL     1      25.955  47.881  52.125  1.00  0.00    -0.247 OA
HETATM    5  H   UNL     1      25.571  45.283  53.826  1.00  0.00     0.164 HD
HETATM    6  H   UNL     1      25.031  44.849  51.915  1.00  0.00     0.164 HD
ENDROOT
BRANCH   1   7
HETATM    7  C   UNL     1      26.598  46.897  54.697  1.00  0.00     0.183 C 
BRANCH   7   8
HETATM    8  C   UNL     1      27.727  46.015  55.084  1.00  0.00     0.044 A 
HETATM    9  N   UNL     1      28.467  46.183  56.246  1.00  0.00    -0.343 N 
HETATM   10  C   UNL     1      29.445  45.294  56.325  1.00  0.00     0.112 A 
HETATM   11  H   UNL     1      28.258  46.921  56.931  1.00  0.00     0.167 HD
HETATM   12  N   UNL     1      29.398  44.536  55.210  1.00  0.00    -0.311 N 
HETATM   13  C   UNL     1      30.473  45.081  57.368  1.00  0.00     0.049 A 
HETATM   14  C   UNL     1      30.321  43.523  54.953  1.00  0.00     0.014 A 
HETATM   15  C   UNL     1      28.327  44.957  54.434  1.00  0.00     0.125 A 
HETATM   16  C   UNL     1      30.257  42.723  53.686  1.00  0.00     0.068 C 
HETATM   17  C   UNL     1      31.267  43.323  55.897  1.00  0.00     0.025 A 
HETATM   18  C   UNL     1      31.357  44.097  57.131  1.00  0.00     0.006 A 
ENDBRANCH   7   8
ENDBRANCH   1   7
BRANCH   3  19
HETATM   19  C   UNL     1      25.122  45.951  50.144  1.00  0.00     0.085 C 
HETATM   20  C   UNL     1      24.993  44.591  49.458  1.00  0.00     0.032 C 
BRANCH  19  21
HETATM   21  C   UNL     1      24.052  46.967  49.690  1.00  0.00     0.063 C 
BRANCH  21  22
HETATM   22  C   UNL     1      24.534  48.216  48.933  1.00  0.00     0.177 C 
BRANCH  22  23
HETATM   23  O   UNL     1      25.740  48.727  49.525  1.00  0.00    -0.389 OA
HETATM   24  H   UNL     1      26.396  48.719  48.799  1.00  0.00     0.210 HD
ENDBRANCH  22  23
BRANCH  22  25
HETATM   25  C   UNL     1      23.533  49.323  48.864  1.00  0.00     0.081 A 
HETATM   26  O   UNL     1      22.951  49.706  50.041  1.00  0.00    -0.324 OA
HETATM   27  C   UNL     1      22.109  50.731  49.755  1.00  0.00     0.142 A 
HETATM   28  C   UNL     1      22.149  51.027  48.414  1.00  0.00     0.027 A 
HETATM   29  C   UNL     1      23.075  50.124  47.837  1.00  0.00     0.037 A 
ENDBRANCH  22  25
ENDBRANCH  21  22
ENDBRANCH  19  21
ENDBRANCH   3  19
TORSDOF 7
ENDMDL
MODEL 5
REMARK VINA RESULT:      -8.1      2.845      4.048
REMARK  7 active torsions:
REMARK  status: ('A' for Active; 'I' for Inactive)
REMARK    1  A    between atoms: C_7  and  C_8 
REMARK    2  A    between atoms: C_8  and  N_9 
REMARK       I    between atoms: N_9  and  C_10 
REMARK       I    between atoms: C_10  and  N_11 
REMARK    3  A    between atoms: N_11  and  C_12 
REMARK    4  A    between atoms: C_12  and  C_13 
REMARK    5  A    between atoms: C_13  and  C_14 
REMARK    6  A    between atoms: C_14  and  O_15 
REMARK    7  A    between atoms: C_14  and  C_16 
ROOT
HETATM    1  N   UNL     1      27.441  41.661  52.357  1.00  0.00    -0.337 N 
HETATM    2  C   UNL     1      26.861  42.450  51.397  1.00  0.00     0.316 C 
HETATM    3  N   UNL     1      25.665  41.954  50.977  1.00  0.00    -0.339 N 
HETATM    4  O   UNL     1      27.369  43.493  50.997  1.00  0.00    -0.247 OA
HETATM    5  H   UNL     1      27.009  40.753  52.465  1.00  0.00     0.164 HD
HETATM    6  H   UNL     1      25.409  41.004  51.235  1.00  0.00     0.164 HD
ENDROOT
BRANCH   1   7
HETATM    7  C   UNL     1      28.863  41.729  52.627  1.00  0.00     0.183 C 
BRANCH   7   8
HETATM    8  C   UNL     1      29.194  42.657  53.736  1.00  0.00     0.044 A 
HETATM    9  N   UNL     1      28.586  43.893  53.908  1.00  0.00    -0.343 N 
HETATM   10  C   UNL     1      29.099  44.541  54.943  1.00  0.00     0.112 A 
HETATM   11  H   UNL     1      27.843  44.234  53.285  1.00  0.00     0.167 HD
HETATM   12  N   UNL     1      30.074  43.768  55.466  1.00  0.00    -0.311 N 
HETATM   13  C   UNL     1      28.772  45.869  55.509  1.00  0.00     0.049 A 
HETATM   14  C   UNL     1      30.851  44.172  56.550  1.00  0.00     0.014 A 
HETATM   15  C   UNL     1      30.137  42.586  54.741  1.00  0.00     0.125 A 
HETATM   16  C   UNL     1      31.949  43.299  57.082  1.00  0.00     0.068 C 
HETATM   17  C   UNL     1      30.563  45.385  57.072  1.00  0.00     0.025 A 
HETATM   18  C   UNL     1      29.509  46.257  56.564  1.00  0.00     0.006 A 
ENDBRANCH   7   8
ENDBRANCH   1   7
BRANCH   3  19
HETATM   19  C   UNL     1      24.943  42.462  49.816  1.00  0.00     0.085 C 
HETATM   20  C   UNL     1      24.411  41.319  48.953  1.00  0.00     0.032 C 
BRANCH  19  21
HETATM   21  C   UNL     1      23.847  43.459  50.251  1.00  0.00     0.063 C 
BRANCH  21  22
HETATM   22  C   UNL     1      24.240  44.941  50.371  1.00  0.00     0.177 C 
BRANCH  22  23
HETATM   23  O   UNL     1      25.223  45.281  49.380  1.00  0.00    -0.389 OA
HETATM   24  H   UNL     1      25.266  46.258  49.396  1.00  0.00     0.210 HD
ENDBRANCH  22  23
BRANCH  22  25
HETATM   25  C   UNL     1      24.762  45.337  51.713  1.00  0.00     0.081 A 
HETATM   26  O   UNL     1      24.599  44.438  52.731  1.00  0.00    -0.324 OA
HETATM   27  C   UNL     1      25.164  44.982  53.839  1.00  0.00     0.142 A 
HETATM   28  C   UNL     1      25.704  46.212  53.549  1.00  0.00     0.027 A 
HETATM   29  C   UNL     1      25.453  46.440  52.174  1.00  0.00     0.037 A 
ENDBRANCH  22  25
ENDBRANCH  21  22
ENDBRANCH  19  21
ENDBRANCH   3  19
TORSDOF 7
ENDMDL
MODEL 6
REMARK VINA RESULT:      -8.0      3.104      4.538
REMARK  7 active torsions:
REMARK  status: ('A' for Active; 'I' for Inactive)
REMARK    1  A    between atoms: C_7  and  C_8 
REMARK    2  A    between atoms: C_8  and  N_9 
REMARK       I    between atoms: N_9  and  C_10 
REMARK       I    between atoms: C_10  and  N_11 
REMARK    3  A    between atoms: N_11  and  C_12 
REMARK    4  A    between atoms: C_12  and  C_13 
REMARK    5  A    between atoms: C_13  and  C_14 
REMARK    6  A    between atoms: C_14  and  O_15 
REMARK    7  A    between atoms: C_14  and  C_16 
ROOT
HETATM    1  N   UNL     1      24.155  46.502  50.510  1.00  0.00    -0.337 N 
HETATM    2  C   UNL     1      24.243  47.772  50.001  1.00  0.00     0.316 C 
HETATM    3  N   UNL     1      23.022  48.290  49.696  1.00  0.00    -0.339 N 
HETATM    4  O   UNL     1      25.310  48.363  49.868  1.00  0.00    -0.247 OA
HETATM    5  H   UNL     1      23.246  46.073  50.402  1.00  0.00     0.164 HD
HETATM    6  H   UNL     1      22.216  47.669  49.677  1.00  0.00     0.164 HD
ENDROOT
BRANCH   1   7
HETATM    7  C   UNL     1      25.293  45.605  50.490  1.00  0.00     0.183 C 
BRANCH   7   8
HETATM    8  C   UNL     1      26.050  45.606  51.767  1.00  0.00     0.044 A 
HETATM    9  N   UNL     1      26.045  46.670  52.658  1.00  0.00    -0.343 N 
HETATM   10  C   UNL     1      26.840  46.435  53.691  1.00  0.00     0.112 A 
HETATM   11  H   UNL     1      25.489  47.520  52.500  1.00  0.00     0.167 HD
HETATM   12  N   UNL     1      27.412  45.228  53.498  1.00  0.00    -0.311 N 
HETATM   13  C   UNL     1      27.148  47.261  54.879  1.00  0.00     0.049 A 
HETATM   14  C   UNL     1      28.343  44.690  54.385  1.00  0.00     0.014 A 
HETATM   15  C   UNL     1      26.921  44.689  52.317  1.00  0.00     0.125 A 
HETATM   16  C   UNL     1      28.983  43.359  54.120  1.00  0.00     0.068 C 
HETATM   17  C   UNL     1      28.634  45.438  55.472  1.00  0.00     0.025 A 
HETATM   18  C   UNL     1      28.035  46.740  55.744  1.00  0.00     0.006 A 
ENDBRANCH   7   8
ENDBRANCH   1   7
BRANCH   3  19
HETATM   19  C   UNL     1      22.833  49.522  48.939  1.00  0.00     0.085 C 
HETATM   20  C   UNL     1      22.098  49.256  47.626  1.00  0.00     0.032 C 
BRANCH  19  21
HETATM   21  C   UNL     1      22.152  50.598  49.812  1.00  0.00     0.063 C 
BRANCH  21  22
HETATM   22  C   UNL     1      20.726  50.312  50.311  1.00  0.00     0.177 C 
BRANCH  22  23
HETATM   23  O   UNL     1      20.376  48.939  50.069  1.00  0.00    -0.389 OA
HETATM   24  H   UNL     1      21.174  48.546  49.662  1.00  0.00     0.210 HD
ENDBRANCH  22  23
BRANCH  22  25
HETATM   25  C   UNL     1      19.672  51.183  49.711  1.00  0.00     0.081 A 
HETATM   26  O   UNL     1      18.467  51.232  50.358  1.00  0.00    -0.324 OA
HETATM   27  C   UNL     1      17.678  52.093  49.667  1.00  0.00     0.142 A 
HETATM   28  C   UNL     1      18.359  52.614  48.593  1.00  0.00     0.027 A 
HETATM   29  C   UNL     1      19.651  52.034  48.624  1.00  0.00     0.037 A 
ENDBRANCH  22  25
ENDBRANCH  21  22
ENDBRANCH  19  21
ENDBRANCH   3  19
TORSDOF 7
ENDMDL
MODEL 7
REMARK VINA RESULT:      -8.0      2.446      4.986
REMARK  7 active torsions:
REMARK  status: ('A' for Active; 'I' for Inactive)
REMARK    1  A    between atoms: C_7  and  C_8 
REMARK    2  A    between atoms: C_8  and  N_9 
REMARK       I    between atoms: N_9  and  C_10 
REMARK       I    between atoms: C_10  and  N_11 
REMARK    3  A    between atoms: N_11  and  C_12 
REMARK    4  A    between atoms: C_12  and  C_13 
REMARK    5  A    between atoms: C_13  and  C_14 
REMARK    6  A    between atoms: C_14  and  O_15 
REMARK    7  A    between atoms: C_14  and  C_16 
ROOT
HETATM    1  N   UNL     1      25.792  46.520  54.050  1.00  0.00    -0.337 N 
HETATM    2  C   UNL     1      25.714  46.630  52.685  1.00  0.00     0.316 C 
HETATM    3  N   UNL     1      25.040  45.589  52.124  1.00  0.00    -0.339 N 
HETATM    4  O   UNL     1      26.183  47.579  52.065  1.00  0.00    -0.247 OA
HETATM    5  H   UNL     1      25.524  45.614  54.410  1.00  0.00     0.164 HD
HETATM    6  H   UNL     1      24.840  44.769  52.692  1.00  0.00     0.164 HD
ENDROOT
BRANCH   1   7
HETATM    7  C   UNL     1      26.804  47.235  54.803  1.00  0.00     0.183 C 
BRANCH   7   8
HETATM    8  C   UNL     1      27.874  46.344  55.318  1.00  0.00     0.044 A 
HETATM    9  N   UNL     1      28.485  46.517  56.552  1.00  0.00    -0.343 N 
HETATM   10  C   UNL     1      29.438  45.618  56.745  1.00  0.00     0.112 A 
HETATM   11  H   UNL     1      28.212  47.264  57.203  1.00  0.00     0.167 HD
HETATM   12  N   UNL     1      29.503  44.848  55.639  1.00  0.00    -0.311 N 
HETATM   13  C   UNL     1      30.344  45.405  57.896  1.00  0.00     0.049 A 
HETATM   14  C   UNL     1      30.436  43.823  55.492  1.00  0.00     0.014 A 
HETATM   15  C   UNL     1      28.528  45.272  54.747  1.00  0.00     0.125 A 
HETATM   16  C   UNL     1      30.500  43.010  54.234  1.00  0.00     0.068 C 
HETATM   17  C   UNL     1      31.271  43.622  56.536  1.00  0.00     0.025 A 
HETATM   18  C   UNL     1      31.237  44.408  57.765  1.00  0.00     0.006 A 
ENDBRANCH   7   8
ENDBRANCH   1   7
BRANCH   3  19
HETATM   19  C   UNL     1      24.998  45.333  50.688  1.00  0.00     0.085 C 
HETATM   20  C   UNL     1      24.206  46.416  49.957  1.00  0.00     0.032 C 
BRANCH  19  21
HETATM   21  C   UNL     1      26.424  45.137  50.129  1.00  0.00     0.063 C 
BRANCH  21  22
HETATM   22  C   UNL     1      26.772  43.765  49.530  1.00  0.00     0.177 C 
BRANCH  22  23
HETATM   23  O   UNL     1      25.663  43.253  48.773  1.00  0.00    -0.389 OA
HETATM   24  H   UNL     1      25.358  44.011  48.234  1.00  0.00     0.210 HD
ENDBRANCH  22  23
BRANCH  22  25
HETATM   25  C   UNL     1      27.177  42.735  50.533  1.00  0.00     0.081 A 
HETATM   26  O   UNL     1      27.553  41.512  50.047  1.00  0.00    -0.324 OA
HETATM   27  C   UNL     1      27.904  40.749  51.113  1.00  0.00     0.142 A 
HETATM   28  C   UNL     1      27.776  41.465  52.279  1.00  0.00     0.027 A 
HETATM   29  C   UNL     1      27.315  42.751  51.906  1.00  0.00     0.037 A 
ENDBRANCH  22  25
ENDBRANCH  21  22
ENDBRANCH  19  21
ENDBRANCH   3  19
TORSDOF 7
ENDMDL
MODEL 8
REMARK VINA RESULT:      -7.9      2.531      8.118
REMARK  7 active torsions:
REMARK  status: ('A' for Active; 'I' for Inactive)
REMARK    1  A    between atoms: C_7  and  C_8 
REMARK    2  A    between atoms: C_8  and  N_9 
REMARK       I    between atoms: N_9  and  C_10 
REMARK       I    between atoms: C_10  and  N_11 
REMARK    3  A    between atoms: N_11  and  C_12 
REMARK    4  A    between atoms: C_12  and  C_13 
REMARK    5  A    between atoms: C_13  and  C_14 
REMARK    6  A    between atoms: C_14  and  O_15 
REMARK    7  A    between atoms: C_14  and  C_16 
ROOT
HETATM    1  N   UNL     1      25.553  44.724  50.937  1.00  0.00    -0.337 N 
HETATM    2  C   UNL     1      25.757  43.832  51.958  1.00  0.00     0.316 C 
HETATM    3  N   UNL     1      26.943  43.176  51.838  1.00  0.00    -0.339 N 
HETATM    4  O   UNL     1      24.958  43.678  52.876  1.00  0.00    -0.247 OA
HETATM    5  H   UNL     1      26.197  44.624  50.164  1.00  0.00     0.164 HD
HETATM    6  H   UNL     1      27.455  43.241  50.962  1.00  0.00     0.164 HD
ENDROOT
BRANCH   1   7
HETATM    7  C   UNL     1      24.223  45.196  50.607  1.00  0.00     0.183 C 
BRANCH   7   8
HETATM    8  C   UNL     1      24.230  46.541  49.980  1.00  0.00     0.044 A 
HETATM    9  N   UNL     1      23.092  47.156  49.475  1.00  0.00    -0.343 N 
HETATM   10  C   UNL     1      23.382  48.326  48.927  1.00  0.00     0.112 A 
HETATM   11  H   UNL     1      22.162  46.724  49.529  1.00  0.00     0.167 HD
HETATM   12  N   UNL     1      24.716  48.505  49.029  1.00  0.00    -0.311 N 
HETATM   13  C   UNL     1      22.510  49.329  48.276  1.00  0.00     0.049 A 
HETATM   14  C   UNL     1      25.364  49.625  48.511  1.00  0.00     0.014 A 
HETATM   15  C   UNL     1      25.258  47.415  49.695  1.00  0.00     0.125 A 
HETATM   16  C   UNL     1      26.853  49.773  48.613  1.00  0.00     0.068 C 
HETATM   17  C   UNL     1      24.577  50.546  47.910  1.00  0.00     0.025 A 
HETATM   18  C   UNL     1      23.128  50.418  47.787  1.00  0.00     0.006 A 
ENDBRANCH   7   8
ENDBRANCH   1   7
BRANCH   3  19
HETATM   19  C   UNL     1      27.314  42.022  52.650  1.00  0.00     0.085 C 
HETATM   20  C   UNL     1      28.032  40.965  51.812  1.00  0.00     0.032 C 
BRANCH  19  21
HETATM   21  C   UNL     1      28.118  42.466  53.892  1.00  0.00     0.063 C 
BRANCH  21  22
HETATM   22  C   UNL     1      29.134  43.605  53.711  1.00  0.00     0.177 C 
BRANCH  22  23
HETATM   23  O   UNL     1      30.076  43.276  52.677  1.00  0.00    -0.389 OA
HETATM   24  H   UNL     1      30.903  43.730  52.939  1.00  0.00     0.210 HD
ENDBRANCH  22  23
BRANCH  22  25
HETATM   25  C   UNL     1      29.892  43.962  54.947  1.00  0.00     0.081 A 
HETATM   26  O   UNL     1      29.650  45.195  55.488  1.00  0.00    -0.324 OA
HETATM   27  C   UNL     1      30.412  45.298  56.606  1.00  0.00     0.142 A 
HETATM   28  C   UNL     1      31.132  44.145  56.805  1.00  0.00     0.027 A 
HETATM   29  C   UNL     1      30.792  43.276  55.739  1.00  0.00     0.037 A 
ENDBRANCH  22  25
ENDBRANCH  21  22
ENDBRANCH  19  21
ENDBRANCH   3  19
TORSDOF 7
ENDMDL
MODEL 9
REMARK VINA RESULT:      -7.9      1.593      1.986
REMARK  7 active torsions:
REMARK  status: ('A' for Active; 'I' for Inactive)
REMARK    1  A    between atoms: C_7  and  C_8 
REMARK    2  A    between atoms: C_8  and  N_9 
REMARK       I    between atoms: N_9  and  C_10 
REMARK       I    between atoms: C_10  and  N_11 
REMARK    3  A    between atoms: N_11  and  C_12 
REMARK    4  A    between atoms: C_12  and  C_13 
REMARK    5  A    between atoms: C_13  and  C_14 
REMARK    6  A    between atoms: C_14  and  O_15 
REMARK    7  A    between atoms: C_14  and  C_16 
ROOT
HETATM    1  N   UNL     1      25.812  43.313  51.754  1.00  0.00    -0.337 N 
HETATM    2  C   UNL     1      25.778  44.042  50.592  1.00  0.00     0.316 C 
HETATM    3  N   UNL     1      24.506  44.332  50.205  1.00  0.00    -0.339 N 
HETATM    4  O   UNL     1      26.792  44.401  50.002  1.00  0.00    -0.247 OA
HETATM    5  H   UNL     1      24.917  42.938  52.035  1.00  0.00     0.164 HD
HETATM    6  H   UNL     1      23.732  43.850  50.657  1.00  0.00     0.164 HD
ENDROOT
BRANCH   1   7
HETATM    7  C   UNL     1      26.977  42.528  52.113  1.00  0.00     0.183 C 
BRANCH   7   8
HETATM    8  C   UNL     1      27.849  43.212  53.100  1.00  0.00     0.044 A 
HETATM    9  N   UNL     1      28.932  42.602  53.717  1.00  0.00    -0.343 N 
HETATM   10  C   UNL     1      29.508  43.414  54.589  1.00  0.00     0.112 A 
HETATM   11  H   UNL     1      29.215  41.637  53.505  1.00  0.00     0.167 HD
HETATM   12  N   UNL     1      28.810  44.569  54.594  1.00  0.00    -0.311 N 
HETATM   13  C   UNL     1      30.682  43.211  55.468  1.00  0.00     0.049 A 
HETATM   14  C   UNL     1      29.126  45.633  55.437  1.00  0.00     0.014 A 
HETATM   15  C   UNL     1      27.785  44.470  53.663  1.00  0.00     0.125 A 
HETATM   16  C   UNL     1      28.306  46.889  55.438  1.00  0.00     0.068 C 
HETATM   17  C   UNL     1      30.194  45.456  56.247  1.00  0.00     0.025 A 
HETATM   18  C   UNL     1      30.999  44.240  56.273  1.00  0.00     0.006 A 
ENDBRANCH   7   8
ENDBRANCH   1   7
BRANCH   3  19
HETATM   19  C   UNL     1      24.167  44.897  48.904  1.00  0.00     0.085 C 
HETATM   20  C   UNL     1      23.521  43.848  47.999  1.00  0.00     0.032 C 
BRANCH  19  21
HETATM   21  C   UNL     1      23.310  46.171  49.070  1.00  0.00     0.063 C 
BRANCH  21  22
HETATM   22  C   UNL     1      24.035  47.469  49.461  1.00  0.00     0.177 C 
BRANCH  22  23
HETATM   23  O   UNL     1      24.194  47.544  50.887  1.00  0.00    -0.389 OA
HETATM   24  H   UNL     1      23.309  47.336  51.248  1.00  0.00     0.210 HD
ENDBRANCH  22  23
BRANCH  22  25
HETATM   25  C   UNL     1      23.365  48.719  48.992  1.00  0.00     0.081 A 
HETATM   26  O   UNL     1      23.753  49.889  49.585  1.00  0.00    -0.324 OA
HETATM   27  C   UNL     1      23.048  50.888  48.996  1.00  0.00     0.142 A 
HETATM   28  C   UNL     1      22.221  50.383  48.021  1.00  0.00     0.027 A 
HETATM   29  C   UNL     1      22.430  48.983  48.011  1.00  0.00     0.037 A 
ENDBRANCH  22  25
ENDBRANCH  21  22
ENDBRANCH  19  21
ENDBRANCH   3  19
TORSDOF 7
ENDMDL
MODEL 10
REMARK VINA RESULT:      -7.9      2.870      8.354
REMARK  7 active torsions:
REMARK  status: ('A' for Active; 'I' for Inactive)
REMARK    1  A    between atoms: C_7  and  C_8 
REMARK    2  A    between atoms: C_8  and  N_9 
REMARK       I    between atoms: N_9  and  C_10 
REMARK       I    between atoms: C_10  and  N_11 
REMARK    3  A    between atoms: N_11  and  C_12 
REMARK    4  A    between atoms: C_12  and  C_13 
REMARK    5  A    between atoms: C_13  and  C_14 
REMARK    6  A    between atoms: C_14  and  O_15 
REMARK    7  A    between atoms: C_14  and  C_16 
ROOT
HETATM    1  N   UNL     1      24.313  45.130  51.509  1.00  0.00    -0.337 N 
HETATM    2  C   UNL     1      25.597  45.298  51.960  1.00  0.00     0.316 C 
HETATM    3  N   UNL     1      25.638  45.612  53.284  1.00  0.00    -0.339 N 
HETATM    4  O   UNL     1      26.580  45.153  51.241  1.00  0.00    -0.247 OA
HETATM    5  H   UNL     1      23.601  45.449  52.152  1.00  0.00     0.164 HD
HETATM    6  H   UNL     1      24.777  45.880  53.754  1.00  0.00     0.164 HD
ENDROOT
BRANCH   1   7
HETATM    7  C   UNL     1      23.994  45.232  50.098  1.00  0.00     0.183 C 
BRANCH   7   8
HETATM    8  C   UNL     1      23.833  46.636  49.645  1.00  0.00     0.044 A 
HETATM    9  N   UNL     1      22.601  47.263  49.519  1.00  0.00    -0.343 N 
HETATM   10  C   UNL     1      22.735  48.494  49.050  1.00  0.00     0.112 A 
HETATM   11  H   UNL     1      21.718  46.796  49.760  1.00  0.00     0.167 HD
HETATM   12  N   UNL     1      24.049  48.705  48.827  1.00  0.00    -0.311 N 
HETATM   13  C   UNL     1      21.720  49.531  48.759  1.00  0.00     0.049 A 
HETATM   14  C   UNL     1      24.537  49.895  48.289  1.00  0.00     0.014 A 
HETATM   15  C   UNL     1      24.750  47.569  49.206  1.00  0.00     0.125 A 
HETATM   16  C   UNL     1      26.001  50.081  48.024  1.00  0.00     0.068 C 
HETATM   17  C   UNL     1      23.617  50.848  48.016  1.00  0.00     0.025 A 
HETATM   18  C   UNL     1      22.187  50.686  48.253  1.00  0.00     0.006 A 
ENDBRANCH   7   8
ENDBRANCH   1   7
BRANCH   3  19
HETATM   19  C   UNL     1      26.845  46.062  53.970  1.00  0.00     0.085 C 
HETATM   20  C   UNL     1      26.571  47.311  54.807  1.00  0.00     0.032 C 
BRANCH  19  21
HETATM   21  C   UNL     1      27.470  44.908  54.783  1.00  0.00     0.063 C 
BRANCH  21  22
HETATM   22  C   UNL     1      29.004  44.835  54.850  1.00  0.00     0.177 C 
BRANCH  22  23
HETATM   23  O   UNL     1      29.464  43.547  54.409  1.00  0.00    -0.389 OA
HETATM   24  H   UNL     1      29.681  43.669  53.463  1.00  0.00     0.210 HD
ENDBRANCH  22  23
BRANCH  22  25
HETATM   25  C   UNL     1      29.581  45.108  56.200  1.00  0.00     0.081 A 
HETATM   26  O   UNL     1      30.671  44.368  56.569  1.00  0.00    -0.324 OA
HETATM   27  C   UNL     1      31.043  44.793  57.803  1.00  0.00     0.142 A 
HETATM   28  C   UNL     1      30.221  45.808  58.230  1.00  0.00     0.027 A 
HETATM   29  C   UNL     1      29.280  46.019  57.193  1.00  0.00     0.037 A 
ENDBRANCH  22  25
ENDBRANCH  21  22
ENDBRANCH  19  21
ENDBRANCH   3  19
TORSDOF 7
ENDMDL
