MODEL 1
REMARK VINA RESULT:     -11.1      0.000      0.000
REMARK  6 active torsions:
REMARK  status: ('A' for Active; 'I' for Inactive)
REMARK    1  A    between atoms: C_4  and  C_5 
REMARK    2  A    between atoms: C_6  and  N_7 
REMARK    3  A    between atoms: C_9  and  C_10 
REMARK       I    between atoms: C_10  and  N_11 
REMARK    4  A    between atoms: N_11  and  C_12 
REMARK    5  A    between atoms: C_12  and  C_13 
REMARK    6  A    between atoms: C_13  and  N_14 
ROOT
HETATM    1  C   UNL     1      28.288  44.609  54.442  1.00  0.00     0.019 A 
HETATM    2  C   UNL     1      27.315  45.524  54.178  1.00  0.00     0.111 A 
HETATM    3  C   UNL     1      27.231  46.777  55.053  1.00  0.00     0.273 A 
HETATM    4  O   UNL     1      26.413  47.675  54.850  1.00  0.00    -0.266 OA
HETATM    5  N   UNL     1      28.101  46.890  56.097  1.00  0.00    -0.321 N 
HETATM    6  C   UNL     1      29.082  45.952  56.395  1.00  0.00     0.046 A 
HETATM    7  C   UNL     1      29.215  44.816  55.590  1.00  0.00     0.006 A 
HETATM    8  C   UNL     1      29.920  46.172  57.492  1.00  0.00     0.032 A 
HETATM    9  C   UNL     1      30.914  45.245  57.800  1.00  0.00     0.026 A 
HETATM   10  C   UNL     1      31.066  44.113  57.004  1.00  0.00     0.035 A 
HETATM   11 CL   UNL     1      32.295  42.969  57.379  1.00  0.00    -0.084 Cl
HETATM   12  C   UNL     1      30.230  43.898  55.906  1.00  0.00     0.038 A 
HETATM   13  H   UNL     1      27.999  47.722  56.661  1.00  0.00     0.169 HD
ENDROOT
BRANCH   2  14
HETATM   14  N   UNL     1      26.344  45.378  53.147  1.00  0.00    -0.375 N 
HETATM   15  C   UNL     1      25.917  46.550  52.361  1.00  0.00     0.137 C 
HETATM   16  C   UNL     1      25.364  46.101  51.005  1.00  0.00     0.096 C 
HETATM   17  C   UNL     1      24.220  45.097  51.196  1.00  0.00     0.017 C 
HETATM   18  C   UNL     1      24.659  43.940  52.089  1.00  0.00     0.021 C 
HETATM   19  C   UNL     1      25.219  44.454  53.413  1.00  0.00     0.123 C 
BRANCH  16  20
HETATM   20  C   UNL     1      24.893  47.339  50.260  1.00  0.00     0.223 C 
HETATM   21  N   UNL     1      23.580  47.304  49.849  1.00  0.00    -0.359 N 
HETATM   22  H   UNL     1      23.077  46.433  50.005  1.00  0.00     0.162 HD
HETATM   23  O   UNL     1      25.620  48.297  50.002  1.00  0.00    -0.273 OA
BRANCH  21  24
HETATM   24  C   UNL     1      22.984  48.232  48.892  1.00  0.00     0.150 C 
BRANCH  24  25
HETATM   25  C   UNL     1      21.470  48.074  48.616  1.00  0.00     0.254 C 
BRANCH  25  26
HETATM   26  N   UNL     1      20.606  48.829  49.597  1.00  0.00    -0.066 N 
HETATM   27  H   UNL     1      21.142  48.843  50.491  1.00  0.00     0.280 HD
HETATM   28  C   UNL     1      20.347  50.282  49.239  1.00  0.00     0.261 C 
HETATM   29  C   UNL     1      19.519  50.946  50.345  1.00  0.00     0.195 C 
HETATM   30  O   UNL     1      18.288  50.244  50.553  1.00  0.00    -0.388 OA
HETATM   31  C   UNL     1      18.525  48.895  50.974  1.00  0.00     0.195 C 
HETATM   32  C   UNL     1      19.301  48.116  49.905  1.00  0.00     0.261 C 
ENDBRANCH  25  26
ENDBRANCH  24  25
ENDBRANCH  21  24
ENDBRANCH  16  20
ENDBRANCH   2  14
BRANCH   1  33
HETATM   33  C   UNL     1      28.398  43.432  53.537  1.00  0.00    -0.023 A 
HETATM   34  C   UNL     1      28.181  42.139  54.034  1.00  0.00     0.012 A 
HETATM   35  C   UNL     1      28.248  41.037  53.180  1.00  0.00     0.001 A 
HETATM   36  C   UNL     1      28.531  41.217  51.828  1.00  0.00     0.000 A 
HETATM   37  C   UNL     1      28.746  42.499  51.324  1.00  0.00     0.001 A 
HETATM   38  C   UNL     1      28.676  43.605  52.174  1.00  0.00     0.012 A 
ENDBRANCH   1  33
TORSDOF 6
ENDMDL
MODEL 2
REMARK VINA RESULT:     -10.4      1.714      2.318
REMARK  6 active torsions:
REMARK  status: ('A' for Active; 'I' for Inactive)
REMARK    1  A    between atoms: C_4  and  C_5 
REMARK    2  A    between atoms: C_6  and  N_7 
REMARK    3  A    between atoms: C_9  and  C_10 
REMARK       I    between atoms: C_10  and  N_11 
REMARK    4  A    between atoms: N_11  and  C_12 
REMARK    5  A    between atoms: C_12  and  C_13 
REMARK    6  A    between atoms: C_13  and  N_14 
ROOT
HETATM    1  C   UNL     1      28.339  44.623  54.452  1.00  0.00     0.019 A 
HETATM    2  C   UNL     1      27.422  45.597  54.202  1.00  0.00     0.111 A 
HETATM    3  C   UNL     1      27.413  46.841  55.094  1.00  0.00     0.273 A 
HETATM    4  O   UNL     1      26.650  47.789  54.904  1.00  0.00    -0.266 OA
HETATM    5  N   UNL     1      28.289  46.887  56.138  1.00  0.00    -0.321 N 
HETATM    6  C   UNL     1      29.212  45.889  56.422  1.00  0.00     0.046 A 
HETATM    7  C   UNL     1      29.277  44.758  55.602  1.00  0.00     0.006 A 
HETATM    8  C   UNL     1      30.062  46.044  57.521  1.00  0.00     0.032 A 
HETATM    9  C   UNL     1      30.999  45.055  57.815  1.00  0.00     0.026 A 
HETATM   10  C   UNL     1      31.084  43.928  57.004  1.00  0.00     0.035 A 
HETATM   11 CL   UNL     1      32.242  42.707  57.361  1.00  0.00    -0.084 Cl
HETATM   12  C   UNL     1      30.236  43.777  55.904  1.00  0.00     0.038 A 
HETATM   13  H   UNL     1      28.237  47.717  56.714  1.00  0.00     0.169 HD
ENDROOT
BRANCH   2  14
HETATM   14  N   UNL     1      26.444  45.523  53.169  1.00  0.00    -0.375 N 
HETATM   15  C   UNL     1      26.094  46.727  52.394  1.00  0.00     0.137 C 
HETATM   16  C   UNL     1      25.513  46.327  51.034  1.00  0.00     0.096 C 
HETATM   17  C   UNL     1      24.307  45.397  51.217  1.00  0.00     0.017 C 
HETATM   18  C   UNL     1      24.669  44.206  52.100  1.00  0.00     0.021 C 
HETATM   19  C   UNL     1      25.261  44.672  53.428  1.00  0.00     0.123 C 
BRANCH  16  20
HETATM   20  C   UNL     1      25.123  47.599  50.300  1.00  0.00     0.223 C 
HETATM   21  N   UNL     1      23.769  47.803  50.173  1.00  0.00    -0.359 N 
HETATM   22  H   UNL     1      23.162  47.055  50.503  1.00  0.00     0.162 HD
HETATM   23  O   UNL     1      25.938  48.384  49.817  1.00  0.00    -0.273 OA
BRANCH  21  24
HETATM   24  C   UNL     1      23.156  48.787  49.284  1.00  0.00     0.150 C 
BRANCH  24  25
HETATM   25  C   UNL     1      22.133  48.255  48.253  1.00  0.00     0.254 C 
BRANCH  25  26
HETATM   26  N   UNL     1      21.653  46.858  48.560  1.00  0.00    -0.066 N 
HETATM   27  H   UNL     1      21.834  46.715  49.577  1.00  0.00     0.280 HD
HETATM   28  C   UNL     1      20.163  46.633  48.363  1.00  0.00     0.261 C 
HETATM   29  C   UNL     1      19.799  45.202  48.772  1.00  0.00     0.195 C 
HETATM   30  O   UNL     1      20.563  44.247  48.026  1.00  0.00    -0.388 OA
HETATM   31  C   UNL     1      21.966  44.398  48.273  1.00  0.00     0.195 C 
HETATM   32  C   UNL     1      22.453  45.786  47.840  1.00  0.00     0.261 C 
ENDBRANCH  25  26
ENDBRANCH  24  25
ENDBRANCH  21  24
ENDBRANCH  16  20
ENDBRANCH   2  14
BRANCH   1  33
HETATM   33  C   UNL     1      28.379  43.453  53.531  1.00  0.00    -0.023 A 
HETATM   34  C   UNL     1      28.779  43.620  52.198  1.00  0.00     0.012 A 
HETATM   35  C   UNL     1      28.852  42.519  51.342  1.00  0.00     0.001 A 
HETATM   36  C   UNL     1      28.526  41.248  51.811  1.00  0.00     0.000 A 
HETATM   37  C   UNL     1      28.129  41.072  53.136  1.00  0.00     0.001 A 
HETATM   38  C   UNL     1      28.060  42.170  53.996  1.00  0.00     0.012 A 
ENDBRANCH   1  33
TORSDOF 6
ENDMDL
MODEL 3
REMARK VINA RESULT:      -9.5     13.534     16.962
REMARK  6 active torsions:
REMARK  status: ('A' for Active; 'I' for Inactive)
REMARK    1  A    between atoms: C_4  and  C_5 
REMARK    2  A    between atoms: C_6  and  N_7 
REMARK    3  A    between atoms: C_9  and  C_10 
REMARK       I    between atoms: C_10  and  N_11 
REMARK    4  A    between atoms: N_11  and  C_12 
REMARK    5  A    between atoms: C_12  and  C_13 
REMARK    6  A    between atoms: C_13  and  N_14 
ROOT
HETATM    1  C   UNL     1      30.227  49.395  40.154  1.00  0.00     0.019 A 
HETATM    2  C   UNL     1      31.377  49.029  40.784  1.00  0.00     0.111 A 
HETATM    3  C   UNL     1      31.886  47.596  40.605  1.00  0.00     0.273 A 
HETATM    4  O   UNL     1      32.943  47.201  41.099  1.00  0.00    -0.266 OA
HETATM    5  N   UNL     1      31.129  46.734  39.869  1.00  0.00    -0.321 N 
HETATM    6  C   UNL     1      29.939  47.086  39.243  1.00  0.00     0.046 A 
HETATM    7  C   UNL     1      29.467  48.398  39.350  1.00  0.00     0.006 A 
HETATM    8  C   UNL     1      29.245  46.116  38.513  1.00  0.00     0.032 A 
HETATM    9  C   UNL     1      28.055  46.454  37.873  1.00  0.00     0.026 A 
HETATM   10  C   UNL     1      27.575  47.758  37.960  1.00  0.00     0.035 A 
HETATM   11 CL   UNL     1      26.107  48.180  37.168  1.00  0.00    -0.084 Cl
HETATM   12  C   UNL     1      28.272  48.725  38.688  1.00  0.00     0.038 A 
HETATM   13  H   UNL     1      31.490  45.793  39.792  1.00  0.00     0.169 HD
ENDROOT
BRANCH   2  14
HETATM   14  N   UNL     1      32.132  49.893  41.627  1.00  0.00    -0.375 N 
HETATM   15  C   UNL     1      33.566  50.113  41.366  1.00  0.00     0.137 C 
HETATM   16  C   UNL     1      34.013  51.448  41.972  1.00  0.00     0.096 C 
HETATM   17  C   UNL     1      33.695  51.489  43.473  1.00  0.00     0.017 C 
HETATM   18  C   UNL     1      32.225  51.166  43.724  1.00  0.00     0.021 C 
HETATM   19  C   UNL     1      31.839  49.839  43.076  1.00  0.00     0.123 C 
BRANCH  16  20
HETATM   20  C   UNL     1      35.504  51.600  41.720  1.00  0.00     0.223 C 
HETATM   21  N   UNL     1      36.050  52.779  42.171  1.00  0.00    -0.359 N 
HETATM   22  H   UNL     1      35.402  53.467  42.549  1.00  0.00     0.162 HD
HETATM   23  O   UNL     1      36.184  50.762  41.131  1.00  0.00    -0.273 OA
BRANCH  21  24
HETATM   24  C   UNL     1      37.376  53.274  41.806  1.00  0.00     0.150 C 
BRANCH  24  25
HETATM   25  C   UNL     1      38.530  52.968  42.789  1.00  0.00     0.254 C 
BRANCH  25  26
HETATM   26  N   UNL     1      38.630  53.967  43.916  1.00  0.00    -0.066 N 
HETATM   27  H   UNL     1      39.642  54.007  44.168  1.00  0.00     0.280 HD
HETATM   28  C   UNL     1      38.232  55.388  43.552  1.00  0.00     0.261 C 
HETATM   29  C   UNL     1      38.444  56.308  44.759  1.00  0.00     0.195 C 
HETATM   30  O   UNL     1      37.702  55.843  45.893  1.00  0.00    -0.388 OA
HETATM   31  C   UNL     1      38.131  54.537  46.294  1.00  0.00     0.195 C 
HETATM   32  C   UNL     1      37.906  53.517  45.172  1.00  0.00     0.261 C 
ENDBRANCH  25  26
ENDBRANCH  24  25
ENDBRANCH  21  24
ENDBRANCH  16  20
ENDBRANCH   2  14
BRANCH   1  33
HETATM   33  C   UNL     1      29.785  50.811  40.283  1.00  0.00    -0.023 A 
HETATM   34  C   UNL     1      30.258  51.780  39.388  1.00  0.00     0.012 A 
HETATM   35  C   UNL     1      29.818  53.102  39.484  1.00  0.00     0.001 A 
HETATM   36  C   UNL     1      28.904  53.463  40.472  1.00  0.00     0.000 A 
HETATM   37  C   UNL     1      28.425  52.505  41.365  1.00  0.00     0.001 A 
HETATM   38  C   UNL     1      28.860  51.182  41.269  1.00  0.00     0.012 A 
ENDBRANCH   1  33
TORSDOF 6
ENDMDL
MODEL 4
REMARK VINA RESULT:      -9.5      6.024      7.631
REMARK  6 active torsions:
REMARK  status: ('A' for Active; 'I' for Inactive)
REMARK    1  A    between atoms: C_4  and  C_5 
REMARK    2  A    between atoms: C_6  and  N_7 
REMARK    3  A    between atoms: C_9  and  C_10 
REMARK       I    between atoms: C_10  and  N_11 
REMARK    4  A    between atoms: N_11  and  C_12 
REMARK    5  A    between atoms: C_12  and  C_13 
REMARK    6  A    between atoms: C_13  and  N_14 
ROOT
HETATM    1  C   UNL     1      27.443  42.998  51.392  1.00  0.00     0.019 A 
HETATM    2  C   UNL     1      27.542  41.839  50.684  1.00  0.00     0.111 A 
HETATM    3  C   UNL     1      28.470  40.740  51.206  1.00  0.00     0.273 A 
HETATM    4  O   UNL     1      28.578  39.644  50.653  1.00  0.00    -0.266 OA
HETATM    5  N   UNL     1      29.202  40.997  52.327  1.00  0.00    -0.321 N 
HETATM    6  C   UNL     1      29.132  42.185  53.045  1.00  0.00     0.046 A 
HETATM    7  C   UNL     1      28.262  43.195  52.621  1.00  0.00     0.006 A 
HETATM    8  C   UNL     1      29.931  42.339  54.181  1.00  0.00     0.032 A 
HETATM    9  C   UNL     1      29.867  43.520  54.917  1.00  0.00     0.026 A 
HETATM   10  C   UNL     1      29.000  44.532  54.515  1.00  0.00     0.035 A 
HETATM   11 CL   UNL     1      28.915  45.991  55.422  1.00  0.00    -0.084 Cl
HETATM   12  C   UNL     1      28.200  44.374  53.381  1.00  0.00     0.038 A 
HETATM   13  H   UNL     1      29.817  40.252  52.626  1.00  0.00     0.169 HD
ENDROOT
BRANCH   2  14
HETATM   14  N   UNL     1      26.850  41.591  49.465  1.00  0.00    -0.375 N 
HETATM   15  C   UNL     1      25.425  41.212  49.487  1.00  0.00     0.137 C 
HETATM   16  C   UNL     1      24.767  41.560  48.148  1.00  0.00     0.096 C 
HETATM   17  C   UNL     1      25.517  40.887  46.990  1.00  0.00     0.017 C 
HETATM   18  C   UNL     1      27.006  41.218  47.044  1.00  0.00     0.021 C 
HETATM   19  C   UNL     1      27.594  40.870  48.408  1.00  0.00     0.123 C 
BRANCH  16  20
HETATM   20  C   UNL     1      23.319  41.105  48.206  1.00  0.00     0.223 C 
HETATM   21  N   UNL     1      23.033  39.984  47.462  1.00  0.00    -0.359 N 
HETATM   22  H   UNL     1      23.786  39.617  46.883  1.00  0.00     0.162 HD
HETATM   23  O   UNL     1      22.443  41.697  48.836  1.00  0.00    -0.273 OA
BRANCH  21  24
HETATM   24  C   UNL     1      21.685  39.523  47.137  1.00  0.00     0.150 C 
BRANCH  24  25
HETATM   25  C   UNL     1      21.501  38.004  46.915  1.00  0.00     0.254 C 
BRANCH  25  26
HETATM   26  N   UNL     1      20.322  37.433  47.665  1.00  0.00    -0.066 N 
HETATM   27  H   UNL     1      20.689  37.163  48.603  1.00  0.00     0.280 HD
HETATM   28  C   UNL     1      19.190  38.412  47.923  1.00  0.00     0.261 C 
HETATM   29  C   UNL     1      18.093  37.727  48.746  1.00  0.00     0.195 C 
HETATM   30  O   UNL     1      17.613  36.553  48.081  1.00  0.00    -0.388 OA
HETATM   31  C   UNL     1      18.658  35.588  47.910  1.00  0.00     0.195 C 
HETATM   32  C   UNL     1      19.789  36.154  47.043  1.00  0.00     0.261 C 
ENDBRANCH  25  26
ENDBRANCH  24  25
ENDBRANCH  21  24
ENDBRANCH  16  20
ENDBRANCH   2  14
BRANCH   1  33
HETATM   33  C   UNL     1      26.482  44.028  50.908  1.00  0.00    -0.023 A 
HETATM   34  C   UNL     1      25.173  44.061  51.409  1.00  0.00     0.012 A 
HETATM   35  C   UNL     1      24.282  45.047  50.983  1.00  0.00     0.001 A 
HETATM   36  C   UNL     1      24.690  46.005  50.057  1.00  0.00     0.000 A 
HETATM   37  C   UNL     1      25.991  45.982  49.556  1.00  0.00     0.001 A 
HETATM   38  C   UNL     1      26.887  45.000  49.982  1.00  0.00     0.012 A 
ENDBRANCH   1  33
TORSDOF 6
ENDMDL
MODEL 5
REMARK VINA RESULT:      -9.1     14.005     17.329
REMARK  6 active torsions:
REMARK  status: ('A' for Active; 'I' for Inactive)
REMARK    1  A    between atoms: C_4  and  C_5 
REMARK    2  A    between atoms: C_6  and  N_7 
REMARK    3  A    between atoms: C_9  and  C_10 
REMARK       I    between atoms: C_10  and  N_11 
REMARK    4  A    between atoms: N_11  and  C_12 
REMARK    5  A    between atoms: C_12  and  C_13 
REMARK    6  A    between atoms: C_13  and  N_14 
ROOT
HETATM    1  C   UNL     1      30.085  49.360  40.054  1.00  0.00     0.019 A 
HETATM    2  C   UNL     1      31.245  48.989  40.665  1.00  0.00     0.111 A 
HETATM    3  C   UNL     1      31.737  47.551  40.487  1.00  0.00     0.273 A 
HETATM    4  O   UNL     1      32.799  47.149  40.964  1.00  0.00    -0.266 OA
HETATM    5  N   UNL     1      30.957  46.690  39.774  1.00  0.00    -0.321 N 
HETATM    6  C   UNL     1      29.759  47.047  39.168  1.00  0.00     0.046 A 
HETATM    7  C   UNL     1      29.300  48.364  39.273  1.00  0.00     0.006 A 
HETATM    8  C   UNL     1      29.041  46.078  38.460  1.00  0.00     0.032 A 
HETATM    9  C   UNL     1      27.842  46.422  37.840  1.00  0.00     0.026 A 
HETATM   10  C   UNL     1      27.376  47.731  37.927  1.00  0.00     0.035 A 
HETATM   11 CL   UNL     1      25.896  48.161  37.160  1.00  0.00    -0.084 Cl
HETATM   12  C   UNL     1      28.096  48.698  38.632  1.00  0.00     0.038 A 
HETATM   13  H   UNL     1      31.308  45.745  39.698  1.00  0.00     0.169 HD
ENDROOT
BRANCH   2  14
HETATM   14  N   UNL     1      32.024  49.853  41.485  1.00  0.00    -0.375 N 
HETATM   15  C   UNL     1      33.414  50.173  41.111  1.00  0.00     0.137 C 
HETATM   16  C   UNL     1      33.839  51.499  41.751  1.00  0.00     0.096 C 
HETATM   17  C   UNL     1      33.658  51.444  43.273  1.00  0.00     0.017 C 
HETATM   18  C   UNL     1      32.237  51.019  43.635  1.00  0.00     0.021 C 
HETATM   19  C   UNL     1      31.868  49.707  42.949  1.00  0.00     0.123 C 
BRANCH  16  20
HETATM   20  C   UNL     1      35.289  51.755  41.376  1.00  0.00     0.223 C 
HETATM   21  N   UNL     1      36.014  52.458  42.311  1.00  0.00    -0.359 N 
HETATM   22  H   UNL     1      35.499  52.810  43.116  1.00  0.00     0.162 HD
HETATM   23  O   UNL     1      35.791  51.400  40.311  1.00  0.00    -0.273 OA
BRANCH  21  24
HETATM   24  C   UNL     1      37.322  53.060  42.067  1.00  0.00     0.150 C 
BRANCH  24  25
HETATM   25  C   UNL     1      37.340  54.550  41.656  1.00  0.00     0.254 C 
BRANCH  25  26
HETATM   26  N   UNL     1      37.496  54.754  40.168  1.00  0.00    -0.066 N 
HETATM   27  H   UNL     1      38.098  55.598  40.061  1.00  0.00     0.280 HD
HETATM   28  C   UNL     1      38.213  53.631  39.438  1.00  0.00     0.261 C 
HETATM   29  C   UNL     1      38.362  53.993  37.956  1.00  0.00     0.195 C 
HETATM   30  O   UNL     1      37.086  54.255  37.362  1.00  0.00    -0.388 OA
HETATM   31  C   UNL     1      36.439  55.368  37.992  1.00  0.00     0.195 C 
HETATM   32  C   UNL     1      36.185  55.086  39.477  1.00  0.00     0.261 C 
ENDBRANCH  25  26
ENDBRANCH  24  25
ENDBRANCH  21  24
ENDBRANCH  16  20
ENDBRANCH   2  14
BRANCH   1  33
HETATM   33  C   UNL     1      29.659  50.782  40.180  1.00  0.00    -0.023 A 
HETATM   34  C   UNL     1      28.850  51.183  41.252  1.00  0.00     0.012 A 
HETATM   35  C   UNL     1      28.479  52.521  41.392  1.00  0.00     0.001 A 
HETATM   36  C   UNL     1      28.913  53.467  40.465  1.00  0.00     0.000 A 
HETATM   37  C   UNL     1      29.720  53.078  39.396  1.00  0.00     0.001 A 
HETATM   38  C   UNL     1      30.097  51.741  39.255  1.00  0.00     0.012 A 
ENDBRANCH   1  33
TORSDOF 6
ENDMDL
MODEL 6
REMARK VINA RESULT:      -8.9      3.435      5.924
REMARK  6 active torsions:
REMARK  status: ('A' for Active; 'I' for Inactive)
REMARK    1  A    between atoms: C_4  and  C_5 
REMARK    2  A    between atoms: C_6  and  N_7 
REMARK    3  A    between atoms: C_9  and  C_10 
REMARK       I    between atoms: C_10  and  N_11 
REMARK    4  A    between atoms: N_11  and  C_12 
REMARK    5  A    between atoms: C_12  and  C_13 
REMARK    6  A    between atoms: C_13  and  N_14 
ROOT
HETATM    1  C   UNL     1      24.640  45.934  50.769  1.00  0.00     0.019 A 
HETATM    2  C   UNL     1      23.920  44.896  50.259  1.00  0.00     0.111 A 
HETATM    3  C   UNL     1      23.875  43.582  51.042  1.00  0.00     0.273 A 
HETATM    4  O   UNL     1      23.208  42.614  50.676  1.00  0.00    -0.266 OA
HETATM    5  N   UNL     1      24.609  43.493  52.188  1.00  0.00    -0.321 N 
HETATM    6  C   UNL     1      25.370  44.534  52.706  1.00  0.00     0.046 A 
HETATM    7  C   UNL     1      25.399  45.763  52.039  1.00  0.00     0.006 A 
HETATM    8  C   UNL     1      26.084  44.328  53.890  1.00  0.00     0.032 A 
HETATM    9  C   UNL     1      26.845  45.365  54.427  1.00  0.00     0.026 A 
HETATM   10  C   UNL     1      26.877  46.597  53.781  1.00  0.00     0.035 A 
HETATM   11 CL   UNL     1      27.813  47.881  54.444  1.00  0.00    -0.084 Cl
HETATM   12  C   UNL     1      26.160  46.801  52.601  1.00  0.00     0.038 A 
HETATM   13  H   UNL     1      24.568  42.602  52.664  1.00  0.00     0.169 HD
ENDROOT
BRANCH   2  14
HETATM   14  N   UNL     1      23.220  44.946  49.020  1.00  0.00    -0.375 N 
HETATM   15  C   UNL     1      21.747  44.876  49.000  1.00  0.00     0.137 C 
HETATM   16  C   UNL     1      21.208  45.513  47.715  1.00  0.00     0.096 C 
HETATM   17  C   UNL     1      21.827  44.841  46.482  1.00  0.00     0.017 C 
HETATM   18  C   UNL     1      23.350  44.843  46.571  1.00  0.00     0.021 C 
HETATM   19  C   UNL     1      23.821  44.218  47.882  1.00  0.00     0.123 C 
BRANCH  16  20
HETATM   20  C   UNL     1      19.695  45.368  47.721  1.00  0.00     0.223 C 
HETATM   21  N   UNL     1      19.018  46.324  46.999  1.00  0.00    -0.359 N 
HETATM   22  H   UNL     1      19.578  47.077  46.604  1.00  0.00     0.162 HD
HETATM   23  O   UNL     1      19.097  44.491  48.343  1.00  0.00    -0.273 OA
BRANCH  21  24
HETATM   24  C   UNL     1      17.579  46.562  47.079  1.00  0.00     0.150 C 
BRANCH  24  25
HETATM   25  C   UNL     1      17.042  47.162  48.399  1.00  0.00     0.254 C 
BRANCH  25  26
HETATM   26  N   UNL     1      17.780  48.406  48.829  1.00  0.00    -0.066 N 
HETATM   27  H   UNL     1      18.617  48.466  48.208  1.00  0.00     0.280 HD
HETATM   28  C   UNL     1      17.018  49.706  48.631  1.00  0.00     0.261 C 
HETATM   29  C   UNL     1      17.901  50.889  49.042  1.00  0.00     0.195 C 
HETATM   30  O   UNL     1      18.338  50.754  50.399  1.00  0.00    -0.388 OA
HETATM   31  C   UNL     1      19.131  49.573  50.574  1.00  0.00     0.195 C 
HETATM   32  C   UNL     1      18.319  48.315  50.246  1.00  0.00     0.261 C 
ENDBRANCH  25  26
ENDBRANCH  24  25
ENDBRANCH  21  24
ENDBRANCH  16  20
ENDBRANCH   2  14
BRANCH   1  33
HETATM   33  C   UNL     1      24.614  47.226  50.029  1.00  0.00    -0.023 A 
HETATM   34  C   UNL     1      25.811  47.816  49.599  1.00  0.00     0.012 A 
HETATM   35  C   UNL     1      25.788  49.008  48.874  1.00  0.00     0.001 A 
HETATM   36  C   UNL     1      24.572  49.619  48.574  1.00  0.00     0.000 A 
HETATM   37  C   UNL     1      23.376  49.039  48.995  1.00  0.00     0.001 A 
HETATM   38  C   UNL     1      23.395  47.843  49.716  1.00  0.00     0.012 A 
ENDBRANCH   1  33
TORSDOF 6
ENDMDL
MODEL 7
REMARK VINA RESULT:      -8.8      1.680      2.173
REMARK  6 active torsions:
REMARK  status: ('A' for Active; 'I' for Inactive)
REMARK    1  A    between atoms: C_4  and  C_5 
REMARK    2  A    between atoms: C_6  and  N_7 
REMARK    3  A    between atoms: C_9  and  C_10 
REMARK       I    between atoms: C_10  and  N_11 
REMARK    4  A    between atoms: N_11  and  C_12 
REMARK    5  A    between atoms: C_12  and  C_13 
REMARK    6  A    between atoms: C_13  and  N_14 
ROOT
HETATM    1  C   UNL     1      27.508  44.497  53.242  1.00  0.00     0.019 A 
HETATM    2  C   UNL     1      26.494  45.318  52.851  1.00  0.00     0.111 A 
HETATM    3  C   UNL     1      26.337  46.672  53.548  1.00  0.00     0.273 A 
HETATM    4  O   UNL     1      25.479  47.492  53.220  1.00  0.00    -0.266 OA
HETATM    5  N   UNL     1      27.187  46.967  54.572  1.00  0.00    -0.321 N 
HETATM    6  C   UNL     1      28.209  46.128  55.001  1.00  0.00     0.046 A 
HETATM    7  C   UNL     1      28.408  44.902  54.358  1.00  0.00     0.006 A 
HETATM    8  C   UNL     1      29.019  46.536  56.064  1.00  0.00     0.032 A 
HETATM    9  C   UNL     1      30.053  45.710  56.501  1.00  0.00     0.026 A 
HETATM   10  C   UNL     1      30.272  44.491  55.866  1.00  0.00     0.035 A 
HETATM   11 CL   UNL     1      31.550  43.470  56.400  1.00  0.00    -0.084 Cl
HETATM   12  C   UNL     1      29.462  44.088  54.802  1.00  0.00     0.038 A 
HETATM   13  H   UNL     1      27.036  47.862  55.019  1.00  0.00     0.169 HD
ENDROOT
BRANCH   2  14
HETATM   14  N   UNL     1      25.546  44.986  51.842  1.00  0.00    -0.375 N 
HETATM   15  C   UNL     1      24.744  46.045  51.202  1.00  0.00     0.137 C 
HETATM   16  C   UNL     1      24.263  45.580  49.824  1.00  0.00     0.096 C 
HETATM   17  C   UNL     1      23.478  44.267  49.943  1.00  0.00     0.017 C 
HETATM   18  C   UNL     1      24.293  43.215  50.692  1.00  0.00     0.021 C 
HETATM   19  C   UNL     1      24.760  43.748  52.043  1.00  0.00     0.123 C 
BRANCH  16  20
HETATM   20  C   UNL     1      23.403  46.685  49.232  1.00  0.00     0.223 C 
HETATM   21  N   UNL     1      23.549  47.916  49.829  1.00  0.00    -0.359 N 
HETATM   22  H   UNL     1      24.146  47.955  50.652  1.00  0.00     0.162 HD
HETATM   23  O   UNL     1      22.605  46.508  48.312  1.00  0.00    -0.273 OA
BRANCH  21  24
HETATM   24  C   UNL     1      22.647  49.048  49.630  1.00  0.00     0.150 C 
BRANCH  24  25
HETATM   25  C   UNL     1      22.755  49.798  48.282  1.00  0.00     0.254 C 
BRANCH  25  26
HETATM   26  N   UNL     1      21.468  50.472  47.873  1.00  0.00    -0.066 N 
HETATM   27  H   UNL     1      21.711  51.071  47.054  1.00  0.00     0.280 HD
HETATM   28  C   UNL     1      20.374  49.532  47.396  1.00  0.00     0.261 C 
HETATM   29  C   UNL     1      19.154  50.345  46.950  1.00  0.00     0.195 C 
HETATM   30  O   UNL     1      18.681  51.182  48.012  1.00  0.00    -0.388 OA
HETATM   31  C   UNL     1      19.680  52.129  48.410  1.00  0.00     0.195 C 
HETATM   32  C   UNL     1      20.932  51.417  48.935  1.00  0.00     0.261 C 
ENDBRANCH  25  26
ENDBRANCH  24  25
ENDBRANCH  21  24
ENDBRANCH  16  20
ENDBRANCH   2  14
BRANCH   1  33
HETATM   33  C   UNL     1      27.687  43.216  52.505  1.00  0.00    -0.023 A 
HETATM   34  C   UNL     1      27.900  43.224  51.120  1.00  0.00     0.012 A 
HETATM   35  C   UNL     1      28.105  42.027  50.432  1.00  0.00     0.001 A 
HETATM   36  C   UNL     1      28.099  40.816  51.121  1.00  0.00     0.000 A 
HETATM   37  C   UNL     1      27.891  40.798  52.500  1.00  0.00     0.001 A 
HETATM   38  C   UNL     1      27.690  41.994  53.192  1.00  0.00     0.012 A 
ENDBRANCH   1  33
TORSDOF 6
ENDMDL
MODEL 8
REMARK VINA RESULT:      -8.6      6.850     13.483
REMARK  6 active torsions:
REMARK  status: ('A' for Active; 'I' for Inactive)
REMARK    1  A    between atoms: C_4  and  C_5 
REMARK    2  A    between atoms: C_6  and  N_7 
REMARK    3  A    between atoms: C_9  and  C_10 
REMARK       I    between atoms: C_10  and  N_11 
REMARK    4  A    between atoms: N_11  and  C_12 
REMARK    5  A    between atoms: C_12  and  C_13 
REMARK    6  A    between atoms: C_13  and  N_14 
ROOT
HETATM    1  C   UNL     1      17.142  50.220  45.992  1.00  0.00     0.019 A 
HETATM    2  C   UNL     1      17.397  48.901  45.770  1.00  0.00     0.111 A 
HETATM    3  C   UNL     1      16.986  48.293  44.427  1.00  0.00     0.273 A 
HETATM    4  O   UNL     1      17.225  47.122  44.128  1.00  0.00    -0.266 OA
HETATM    5  N   UNL     1      16.329  49.089  43.536  1.00  0.00    -0.321 N 
HETATM    6  C   UNL     1      16.039  50.429  43.760  1.00  0.00     0.046 A 
HETATM    7  C   UNL     1      16.437  51.029  44.959  1.00  0.00     0.006 A 
HETATM    8  C   UNL     1      15.358  51.149  42.774  1.00  0.00     0.032 A 
HETATM    9  C   UNL     1      15.066  52.496  42.979  1.00  0.00     0.026 A 
HETATM   10  C   UNL     1      15.464  53.112  44.163  1.00  0.00     0.035 A 
HETATM   11 CL   UNL     1      15.108  54.776  44.418  1.00  0.00    -0.084 Cl
HETATM   12  C   UNL     1      16.146  52.391  45.145  1.00  0.00     0.038 A 
HETATM   13  H   UNL     1      16.059  48.643  42.670  1.00  0.00     0.169 HD
ENDROOT
BRANCH   2  14
HETATM   14  N   UNL     1      18.003  48.036  46.725  1.00  0.00    -0.375 N 
HETATM   15  C   UNL     1      19.450  47.758  46.656  1.00  0.00     0.137 C 
HETATM   16  C   UNL     1      19.967  47.325  48.032  1.00  0.00     0.096 C 
HETATM   17  C   UNL     1      19.179  46.114  48.546  1.00  0.00     0.017 C 
HETATM   18  C   UNL     1      17.678  46.393  48.519  1.00  0.00     0.021 C 
HETATM   19  C   UNL     1      17.232  46.841  47.130  1.00  0.00     0.123 C 
BRANCH  16  20
HETATM   20  C   UNL     1      21.446  47.002  47.894  1.00  0.00     0.223 C 
HETATM   21  N   UNL     1      22.019  46.424  49.003  1.00  0.00    -0.359 N 
HETATM   22  H   UNL     1      21.431  46.344  49.830  1.00  0.00     0.162 HD
HETATM   23  O   UNL     1      22.109  47.259  46.890  1.00  0.00    -0.273 OA
BRANCH  21  24
HETATM   24  C   UNL     1      23.457  46.280  49.216  1.00  0.00     0.150 C 
BRANCH  24  25
HETATM   25  C   UNL     1      24.159  47.399  50.021  1.00  0.00     0.254 C 
BRANCH  25  26
HETATM   26  N   UNL     1      25.257  48.088  49.247  1.00  0.00    -0.066 N 
HETATM   27  H   UNL     1      25.415  47.501  48.399  1.00  0.00     0.280 HD
HETATM   28  C   UNL     1      24.909  49.476  48.737  1.00  0.00     0.261 C 
HETATM   29  C   UNL     1      26.077  50.032  47.916  1.00  0.00     0.195 C 
HETATM   30  O   UNL     1      27.280  50.059  48.693  1.00  0.00    -0.388 OA
HETATM   31  C   UNL     1      27.662  48.741  49.106  1.00  0.00     0.195 C 
HETATM   32  C   UNL     1      26.581  48.110  49.991  1.00  0.00     0.261 C 
ENDBRANCH  25  26
ENDBRANCH  24  25
ENDBRANCH  21  24
ENDBRANCH  16  20
ENDBRANCH   2  14
BRANCH   1  33
HETATM   33  C   UNL     1      17.611  50.811  47.276  1.00  0.00    -0.023 A 
HETATM   34  C   UNL     1      18.845  51.474  47.337  1.00  0.00     0.012 A 
HETATM   35  C   UNL     1      19.271  52.060  48.530  1.00  0.00     0.001 A 
HETATM   36  C   UNL     1      18.469  51.989  49.668  1.00  0.00     0.000 A 
HETATM   37  C   UNL     1      17.239  51.334  49.617  1.00  0.00     0.001 A 
HETATM   38  C   UNL     1      16.808  50.751  48.424  1.00  0.00     0.012 A 
ENDBRANCH   1  33
TORSDOF 6
ENDMDL
MODEL 9
REMARK VINA RESULT:      -8.5     13.184     16.425
REMARK  6 active torsions:
REMARK  status: ('A' for Active; 'I' for Inactive)
REMARK    1  A    between atoms: C_4  and  C_5 
REMARK    2  A    between atoms: C_6  and  N_7 
REMARK    3  A    between atoms: C_9  and  C_10 
REMARK       I    between atoms: C_10  and  N_11 
REMARK    4  A    between atoms: N_11  and  C_12 
REMARK    5  A    between atoms: C_12  and  C_13 
REMARK    6  A    between atoms: C_13  and  N_14 
ROOT
HETATM    1  C   UNL     1      29.071  48.575  39.692  1.00  0.00     0.019 A 
HETATM    2  C   UNL     1      28.759  49.825  39.250  1.00  0.00     0.111 A 
HETATM    3  C   UNL     1      27.564  49.991  38.309  1.00  0.00     0.273 A 
HETATM    4  O   UNL     1      27.185  51.091  37.904  1.00  0.00    -0.266 OA
HETATM    5  N   UNL     1      26.903  48.868  37.908  1.00  0.00    -0.321 N 
HETATM    6  C   UNL     1      27.226  47.584  38.329  1.00  0.00     0.046 A 
HETATM    7  C   UNL     1      28.286  47.400  39.223  1.00  0.00     0.006 A 
HETATM    8  C   UNL     1      26.478  46.505  37.851  1.00  0.00     0.032 A 
HETATM    9  C   UNL     1      26.784  45.212  38.269  1.00  0.00     0.026 A 
HETATM   10  C   UNL     1      27.829  45.011  39.167  1.00  0.00     0.035 A 
HETATM   11 CL   UNL     1      28.209  43.416  39.688  1.00  0.00    -0.084 Cl
HETATM   12  C   UNL     1      28.574  46.091  39.645  1.00  0.00     0.038 A 
HETATM   13  H   UNL     1      26.132  49.020  37.271  1.00  0.00     0.169 HD
ENDROOT
BRANCH   2  14
HETATM   14  N   UNL     1      29.494  50.996  39.591  1.00  0.00    -0.375 N 
HETATM   15  C   UNL     1      30.968  50.959  39.628  1.00  0.00     0.137 C 
HETATM   16  C   UNL     1      31.533  52.370  39.434  1.00  0.00     0.096 C 
HETATM   17  C   UNL     1      30.962  53.328  40.488  1.00  0.00     0.017 C 
HETATM   18  C   UNL     1      29.436  53.278  40.495  1.00  0.00     0.021 C 
HETATM   19  C   UNL     1      28.938  51.845  40.667  1.00  0.00     0.123 C 
BRANCH  16  20
HETATM   20  C   UNL     1      33.047  52.284  39.531  1.00  0.00     0.223 C 
HETATM   21  N   UNL     1      33.521  51.608  40.632  1.00  0.00    -0.359 N 
HETATM   22  H   UNL     1      32.827  51.305  41.313  1.00  0.00     0.162 HD
HETATM   23  O   UNL     1      33.813  52.800  38.718  1.00  0.00    -0.273 OA
BRANCH  21  24
HETATM   24  C   UNL     1      34.908  51.630  41.088  1.00  0.00     0.150 C 
BRANCH  24  25
HETATM   25  C   UNL     1      35.397  50.405  41.896  1.00  0.00     0.254 C 
BRANCH  25  26
HETATM   26  N   UNL     1      36.335  50.772  43.020  1.00  0.00    -0.066 N 
HETATM   27  H   UNL     1      36.053  50.176  43.828  1.00  0.00     0.280 HD
HETATM   28  C   UNL     1      37.800  50.463  42.762  1.00  0.00     0.261 C 
HETATM   29  C   UNL     1      38.628  50.819  44.001  1.00  0.00     0.195 C 
HETATM   30  O   UNL     1      38.452  52.196  44.356  1.00  0.00    -0.388 OA
HETATM   31  C   UNL     1      37.085  52.475  44.684  1.00  0.00     0.195 C 
HETATM   32  C   UNL     1      36.168  52.209  43.485  1.00  0.00     0.261 C 
ENDBRANCH  25  26
ENDBRANCH  24  25
ENDBRANCH  21  24
ENDBRANCH  16  20
ENDBRANCH   2  14
BRANCH   1  33
HETATM   33  C   UNL     1      30.193  48.442  40.662  1.00  0.00    -0.023 A 
HETATM   34  C   UNL     1      31.457  48.024  40.225  1.00  0.00     0.012 A 
HETATM   35  C   UNL     1      32.520  47.933  41.125  1.00  0.00     0.001 A 
HETATM   36  C   UNL     1      32.328  48.258  42.467  1.00  0.00     0.000 A 
HETATM   37  C   UNL     1      31.074  48.678  42.911  1.00  0.00     0.001 A 
HETATM   38  C   UNL     1      30.010  48.774  42.012  1.00  0.00     0.012 A 
ENDBRANCH   1  33
TORSDOF 6
ENDMDL
MODEL 10
REMARK VINA RESULT:      -8.4      5.845     13.392
REMARK  6 active torsions:
REMARK  status: ('A' for Active; 'I' for Inactive)
REMARK    1  A    between atoms: C_4  and  C_5 
REMARK    2  A    between atoms: C_6  and  N_7 
REMARK    3  A    between atoms: C_9  and  C_10 
REMARK       I    between atoms: C_10  and  N_11 
REMARK    4  A    between atoms: N_11  and  C_12 
REMARK    5  A    between atoms: C_12  and  C_13 
REMARK    6  A    between atoms: C_13  and  N_14 
ROOT
HETATM    1  C   UNL     1      17.678  50.640  45.939  1.00  0.00     0.019 A 
HETATM    2  C   UNL     1      18.247  49.413  45.780  1.00  0.00     0.111 A 
HETATM    3  C   UNL     1      18.284  48.799  44.378  1.00  0.00     0.273 A 
HETATM    4  O   UNL     1      18.824  47.718  44.141  1.00  0.00    -0.266 OA
HETATM    5  N   UNL     1      17.691  49.487  43.361  1.00  0.00    -0.321 N 
HETATM    6  C   UNL     1      17.084  50.727  43.513  1.00  0.00     0.046 A 
HETATM    7  C   UNL     1      17.069  51.337  44.772  1.00  0.00     0.006 A 
HETATM    8  C   UNL     1      16.506  51.340  42.397  1.00  0.00     0.032 A 
HETATM    9  C   UNL     1      15.900  52.588  42.531  1.00  0.00     0.026 A 
HETATM   10  C   UNL     1      15.885  53.214  43.774  1.00  0.00     0.035 A 
HETATM   11 CL   UNL     1      15.140  54.756  43.942  1.00  0.00    -0.084 Cl
HETATM   12  C   UNL     1      16.465  52.600  44.886  1.00  0.00     0.038 A 
HETATM   13  H   UNL     1      17.721  49.038  42.456  1.00  0.00     0.169 HD
ENDROOT
BRANCH   2  14
HETATM   14  N   UNL     1      18.792  48.645  46.848  1.00  0.00    -0.375 N 
HETATM   15  C   UNL     1      20.239  48.372  46.899  1.00  0.00     0.137 C 
HETATM   16  C   UNL     1      20.668  48.072  48.339  1.00  0.00     0.096 C 
HETATM   17  C   UNL     1      19.849  46.908  48.912  1.00  0.00     0.017 C 
HETATM   18  C   UNL     1      18.354  47.173  48.763  1.00  0.00     0.021 C 
HETATM   19  C   UNL     1      17.997  47.486  47.313  1.00  0.00     0.123 C 
BRANCH  16  20
HETATM   20  C   UNL     1      22.153  47.748  48.327  1.00  0.00     0.223 C 
HETATM   21  N   UNL     1      22.511  46.641  49.060  1.00  0.00    -0.359 N 
HETATM   22  H   UNL     1      21.774  46.197  49.604  1.00  0.00     0.162 HD
HETATM   23  O   UNL     1      22.994  48.429  47.740  1.00  0.00    -0.273 OA
BRANCH  21  24
HETATM   24  C   UNL     1      23.882  46.295  49.427  1.00  0.00     0.150 C 
BRANCH  24  25
HETATM   25  C   UNL     1      24.554  47.162  50.516  1.00  0.00     0.254 C 
BRANCH  25  26
HETATM   26  N   UNL     1      25.276  46.348  51.562  1.00  0.00    -0.066 N 
HETATM   27  H   UNL     1      26.219  46.149  51.163  1.00  0.00     0.280 HD
HETATM   28  C   UNL     1      25.520  47.066  52.879  1.00  0.00     0.261 C 
HETATM   29  C   UNL     1      26.316  46.156  53.822  1.00  0.00     0.195 C 
HETATM   30  O   UNL     1      25.631  44.916  54.034  1.00  0.00    -0.388 OA
HETATM   31  C   UNL     1      25.473  44.194  52.807  1.00  0.00     0.195 C 
HETATM   32  C   UNL     1      24.633  44.994  51.805  1.00  0.00     0.261 C 
ENDBRANCH  25  26
ENDBRANCH  24  25
ENDBRANCH  21  24
ENDBRANCH  16  20
ENDBRANCH   2  14
BRANCH   1  33
HETATM   33  C   UNL     1      17.713  51.251  47.296  1.00  0.00    -0.023 A 
HETATM   34  C   UNL     1      16.611  51.127  48.154  1.00  0.00     0.012 A 
HETATM   35  C   UNL     1      16.655  51.668  49.440  1.00  0.00     0.001 A 
HETATM   36  C   UNL     1      17.798  52.335  49.878  1.00  0.00     0.000 A 
HETATM   37  C   UNL     1      18.900  52.461  49.033  1.00  0.00     0.001 A 
HETATM   38  C   UNL     1      18.861  51.917  47.747  1.00  0.00     0.012 A 
ENDBRANCH   1  33
TORSDOF 6
ENDMDL
