MODEL 1
REMARK VINA RESULT:     -10.0      0.000      0.000
REMARK  7 active torsions:
REMARK  status: ('A' for Active; 'I' for Inactive)
REMARK    1  A    between atoms: C_3  and  N_4 
REMARK       I    between atoms: N_4  and  C_5 
REMARK    2  A    between atoms: C_5  and  C_6 
REMARK       I    between atoms: C_6  and  N_7 
REMARK    3  A    between atoms: N_7  and  C_8 
REMARK    4  A    between atoms: C_8  and  C_9 
REMARK    5  A    between atoms: C_9  and  C_10 
REMARK    6  A    between atoms: C_12  and  O_13 
REMARK    7  A    between atoms: N_20  and  C_21 
ROOT
HETATM    1  N   UNL     1      25.751  46.727  50.615  1.00  0.00    -0.302 N 
HETATM    2  C   UNL     1      25.904  46.716  51.980  1.00  0.00     0.315 C 
HETATM    3  O   UNL     1      25.663  47.568  52.823  1.00  0.00    -0.262 OA
HETATM    4  H   UNL     1      26.051  45.890  50.129  1.00  0.00     0.171 HD
ENDROOT
BRANCH   2   5
HETATM    5  C   UNL     1      26.495  45.371  52.449  1.00  0.00     0.309 C 
HETATM    6  N   UNL     1      26.866  45.348  53.775  1.00  0.00    -0.353 N 
HETATM    7  H   UNL     1      26.825  46.242  54.262  1.00  0.00     0.162 HD
HETATM    8  O   UNL     1      26.603  44.448  51.652  1.00  0.00    -0.262 OA
BRANCH   6   9
HETATM    9  C   UNL     1      27.539  44.206  54.354  1.00  0.00     0.128 C 
BRANCH   9  10
HETATM   10  C   UNL     1      29.041  44.221  54.076  1.00  0.00     0.058 C 
BRANCH  10  11
HETATM   11  C   UNL     1      29.843  44.235  55.354  1.00  0.00    -0.054 A 
HETATM   12  C   UNL     1      29.767  45.323  56.235  1.00  0.00     0.043 A 
HETATM   13  C   UNL     1      30.539  45.329  57.396  1.00  0.00     0.066 A 
HETATM   14  C   UNL     1      31.390  44.271  57.693  1.00  0.00     0.036 A 
HETATM   15  C   UNL     1      31.473  43.188  56.821  1.00  0.00     0.003 A 
HETATM   16  C   UNL     1      30.706  43.170  55.655  1.00  0.00     0.007 A 
BRANCH  13  17
HETATM   17  O   UNL     1      30.492  46.370  58.275  1.00  0.00    -0.361 OA
HETATM   18  H   UNL     1      31.399  46.608  58.525  1.00  0.00     0.217 HD
ENDBRANCH  13  17
ENDBRANCH  10  11
ENDBRANCH   9  10
ENDBRANCH   6   9
ENDBRANCH   2   5
BRANCH   1  19
HETATM   19  C   UNL     1      25.234  47.758  49.869  1.00  0.00     0.158 A 
HETATM   20  C   UNL     1      26.015  48.732  49.204  1.00  0.00     0.003 A 
HETATM   21  C   UNL     1      27.491  48.865  49.141  1.00  0.00     0.054 C 
HETATM   22  C   UNL     1      25.090  49.535  48.571  1.00  0.00     0.129 A 
HETATM   23  N   UNL     1      23.837  49.070  48.896  1.00  0.00    -0.241 N 
HETATM   24  N   UNL     1      23.937  47.951  49.658  1.00  0.00    -0.149 NA
BRANCH  23  25
HETATM   25  C   UNL     1      22.549  49.545  48.501  1.00  0.00     0.079 A 
HETATM   26  C   UNL     1      21.568  48.769  47.862  1.00  0.00     0.062 A 
HETATM   27 CL   UNL     1      21.791  47.165  47.255  1.00  0.00    -0.082 Cl
HETATM   28  C   UNL     1      20.313  49.332  47.574  1.00  0.00     0.026 A 
HETATM   29  C   UNL     1      20.025  50.657  47.896  1.00  0.00     0.002 A 
HETATM   30  C   UNL     1      20.999  51.443  48.497  1.00  0.00     0.002 A 
HETATM   31  C   UNL     1      22.249  50.896  48.790  1.00  0.00     0.033 A 
ENDBRANCH  23  25
ENDBRANCH   1  19
TORSDOF 7
ENDMDL
MODEL 2
REMARK VINA RESULT:      -9.6      3.165     10.146
REMARK  7 active torsions:
REMARK  status: ('A' for Active; 'I' for Inactive)
REMARK    1  A    between atoms: C_3  and  N_4 
REMARK       I    between atoms: N_4  and  C_5 
REMARK    2  A    between atoms: C_5  and  C_6 
REMARK       I    between atoms: C_6  and  N_7 
REMARK    3  A    between atoms: N_7  and  C_8 
REMARK    4  A    between atoms: C_8  and  C_9 
REMARK    5  A    between atoms: C_9  and  C_10 
REMARK    6  A    between atoms: C_12  and  O_13 
REMARK    7  A    between atoms: N_20  and  C_21 
ROOT
HETATM    1  N   UNL     1      24.952  47.798  50.295  1.00  0.00    -0.302 N 
HETATM    2  C   UNL     1      25.719  48.318  49.282  1.00  0.00     0.315 C 
HETATM    3  O   UNL     1      26.889  48.129  48.981  1.00  0.00    -0.262 OA
HETATM    4  H   UNL     1      23.998  48.136  50.347  1.00  0.00     0.171 HD
ENDROOT
BRANCH   2   5
HETATM    5  C   UNL     1      24.896  49.305  48.429  1.00  0.00     0.309 C 
HETATM    6  N   UNL     1      23.533  49.176  48.574  1.00  0.00    -0.353 N 
HETATM    7  H   UNL     1      23.219  48.379  49.124  1.00  0.00     0.162 HD
HETATM    8  O   UNL     1      25.474  50.101  47.701  1.00  0.00    -0.262 OA
BRANCH   6   9
HETATM    9  C   UNL     1      22.610  49.945  47.767  1.00  0.00     0.128 C 
BRANCH   9  10
HETATM   10  C   UNL     1      22.215  51.260  48.438  1.00  0.00     0.058 C 
BRANCH  10  11
HETATM   11  C   UNL     1      20.813  51.202  48.993  1.00  0.00    -0.054 A 
HETATM   12  C   UNL     1      20.476  50.279  49.993  1.00  0.00     0.043 A 
HETATM   13  C   UNL     1      19.168  50.223  50.471  1.00  0.00     0.066 A 
HETATM   14  C   UNL     1      18.187  51.069  49.968  1.00  0.00     0.036 A 
HETATM   15  C   UNL     1      18.513  51.988  48.972  1.00  0.00     0.003 A 
HETATM   16  C   UNL     1      19.820  52.053  48.484  1.00  0.00     0.007 A 
BRANCH  13  17
HETATM   17  O   UNL     1      18.803  49.338  51.441  1.00  0.00    -0.361 OA
HETATM   18  H   UNL     1      18.226  49.791  52.076  1.00  0.00     0.217 HD
ENDBRANCH  13  17
ENDBRANCH  10  11
ENDBRANCH   9  10
ENDBRANCH   6   9
ENDBRANCH   2   5
BRANCH   1  19
HETATM   19  C   UNL     1      25.362  46.875  51.226  1.00  0.00     0.158 A 
HETATM   20  C   UNL     1      24.899  45.538  51.281  1.00  0.00     0.003 A 
HETATM   21  C   UNL     1      23.930  44.845  50.398  1.00  0.00     0.054 C 
HETATM   22  C   UNL     1      25.591  44.983  52.338  1.00  0.00     0.129 A 
HETATM   23  N   UNL     1      26.377  45.968  52.889  1.00  0.00    -0.241 N 
HETATM   24  N   UNL     1      26.263  47.114  52.171  1.00  0.00    -0.149 NA
BRANCH  23  25
HETATM   25  C   UNL     1      27.280  45.912  53.994  1.00  0.00     0.079 A 
HETATM   26  C   UNL     1      27.284  46.808  55.075  1.00  0.00     0.062 A 
HETATM   27 CL   UNL     1      26.343  48.255  55.187  1.00  0.00    -0.082 Cl
HETATM   28  C   UNL     1      28.186  46.617  56.136  1.00  0.00     0.026 A 
HETATM   29  C   UNL     1      29.093  45.559  56.129  1.00  0.00     0.002 A 
HETATM   30  C   UNL     1      29.121  44.687  55.050  1.00  0.00     0.002 A 
HETATM   31  C   UNL     1      28.230  44.865  53.990  1.00  0.00     0.033 A 
ENDBRANCH  23  25
ENDBRANCH   1  19
TORSDOF 7
ENDMDL
MODEL 3
REMARK VINA RESULT:      -9.5      1.932      2.459
REMARK  7 active torsions:
REMARK  status: ('A' for Active; 'I' for Inactive)
REMARK    1  A    between atoms: C_3  and  N_4 
REMARK       I    between atoms: N_4  and  C_5 
REMARK    2  A    between atoms: C_5  and  C_6 
REMARK       I    between atoms: C_6  and  N_7 
REMARK    3  A    between atoms: N_7  and  C_8 
REMARK    4  A    between atoms: C_8  and  C_9 
REMARK    5  A    between atoms: C_9  and  C_10 
REMARK    6  A    between atoms: C_12  and  O_13 
REMARK    7  A    between atoms: N_20  and  C_21 
ROOT
HETATM    1  N   UNL     1      25.325  45.245  50.901  1.00  0.00    -0.302 N 
HETATM    2  C   UNL     1      26.630  44.937  50.601  1.00  0.00     0.315 C 
HETATM    3  O   UNL     1      27.281  45.103  49.580  1.00  0.00    -0.262 OA
HETATM    4  H   UNL     1      25.010  44.981  51.827  1.00  0.00     0.171 HD
ENDROOT
BRANCH   2   5
HETATM    5  C   UNL     1      27.319  44.263  51.805  1.00  0.00     0.309 C 
HETATM    6  N   UNL     1      27.027  44.842  53.020  1.00  0.00    -0.353 N 
HETATM    7  H   UNL     1      26.496  45.710  52.981  1.00  0.00     0.162 HD
HETATM    8  O   UNL     1      28.058  43.305  51.619  1.00  0.00    -0.262 OA
BRANCH   6   9
HETATM    9  C   UNL     1      27.674  44.408  54.240  1.00  0.00     0.128 C 
BRANCH   9  10
HETATM   10  C   UNL     1      28.618  45.470  54.800  1.00  0.00     0.058 C 
BRANCH  10  11
HETATM   11  C   UNL     1      29.640  44.870  55.734  1.00  0.00    -0.054 A 
HETATM   12  C   UNL     1      29.941  45.485  56.958  1.00  0.00     0.043 A 
HETATM   13  C   UNL     1      30.909  44.929  57.792  1.00  0.00     0.066 A 
HETATM   14  C   UNL     1      31.587  43.771  57.428  1.00  0.00     0.036 A 
HETATM   15  C   UNL     1      31.295  43.156  56.213  1.00  0.00     0.003 A 
HETATM   16  C   UNL     1      30.329  43.703  55.367  1.00  0.00     0.007 A 
BRANCH  13  17
HETATM   17  O   UNL     1      31.229  45.500  58.989  1.00  0.00    -0.361 OA
HETATM   18  H   UNL     1      31.387  46.446  58.849  1.00  0.00     0.217 HD
ENDBRANCH  13  17
ENDBRANCH  10  11
ENDBRANCH   9  10
ENDBRANCH   6   9
ENDBRANCH   2   5
BRANCH   1  19
HETATM   19  C   UNL     1      24.431  45.870  50.067  1.00  0.00     0.158 A 
HETATM   20  C   UNL     1      23.664  45.208  49.079  1.00  0.00     0.003 A 
HETATM   21  C   UNL     1      23.629  43.767  48.732  1.00  0.00     0.054 C 
HETATM   22  C   UNL     1      22.900  46.208  48.515  1.00  0.00     0.129 A 
HETATM   23  N   UNL     1      23.248  47.394  49.119  1.00  0.00    -0.241 N 
HETATM   24  N   UNL     1      24.157  47.169  50.102  1.00  0.00    -0.149 NA
BRANCH  23  25
HETATM   25  C   UNL     1      22.753  48.717  48.902  1.00  0.00     0.079 A 
HETATM   26  C   UNL     1      23.519  49.793  48.427  1.00  0.00     0.062 A 
HETATM   27 CL   UNL     1      25.234  49.787  48.202  1.00  0.00    -0.082 Cl
HETATM   28  C   UNL     1      22.905  51.037  48.198  1.00  0.00     0.026 A 
HETATM   29  C   UNL     1      21.548  51.229  48.449  1.00  0.00     0.002 A 
HETATM   30  C   UNL     1      20.789  50.181  48.951  1.00  0.00     0.002 A 
HETATM   31  C   UNL     1      21.385  48.940  49.183  1.00  0.00     0.033 A 
ENDBRANCH  23  25
ENDBRANCH   1  19
TORSDOF 7
ENDMDL
MODEL 4
REMARK VINA RESULT:      -9.3      3.181     10.205
REMARK  7 active torsions:
REMARK  status: ('A' for Active; 'I' for Inactive)
REMARK    1  A    between atoms: C_3  and  N_4 
REMARK       I    between atoms: N_4  and  C_5 
REMARK    2  A    between atoms: C_5  and  C_6 
REMARK       I    between atoms: C_6  and  N_7 
REMARK    3  A    between atoms: N_7  and  C_8 
REMARK    4  A    between atoms: C_8  and  C_9 
REMARK    5  A    between atoms: C_9  and  C_10 
REMARK    6  A    between atoms: C_12  and  O_13 
REMARK    7  A    between atoms: N_20  and  C_21 
ROOT
HETATM    1  N   UNL     1      24.598  46.015  50.753  1.00  0.00    -0.302 N 
HETATM    2  C   UNL     1      24.878  47.277  50.289  1.00  0.00     0.315 C 
HETATM    3  O   UNL     1      25.823  48.022  50.504  1.00  0.00    -0.262 OA
HETATM    4  H   UNL     1      23.723  45.612  50.439  1.00  0.00     0.171 HD
ENDROOT
BRANCH   2   5
HETATM    5  C   UNL     1      23.757  47.772  49.352  1.00  0.00     0.309 C 
HETATM    6  N   UNL     1      23.982  49.018  48.811  1.00  0.00    -0.353 N 
HETATM    7  H   UNL     1      24.789  49.521  49.176  1.00  0.00     0.162 HD
HETATM    8  O   UNL     1      22.776  47.067  49.160  1.00  0.00    -0.262 OA
BRANCH   6   9
HETATM    9  C   UNL     1      22.986  49.683  48.000  1.00  0.00     0.128 C 
BRANCH   9  10
HETATM   10  C   UNL     1      22.588  51.041  48.574  1.00  0.00     0.058 C 
BRANCH  10  11
HETATM   11  C   UNL     1      21.158  51.045  49.055  1.00  0.00    -0.054 A 
HETATM   12  C   UNL     1      20.748  50.195  50.092  1.00  0.00     0.043 A 
HETATM   13  C   UNL     1      19.415  50.193  50.500  1.00  0.00     0.066 A 
HETATM   14  C   UNL     1      18.481  51.022  49.892  1.00  0.00     0.036 A 
HETATM   15  C   UNL     1      18.879  51.868  48.859  1.00  0.00     0.003 A 
HETATM   16  C   UNL     1      20.211  51.878  48.439  1.00  0.00     0.007 A 
BRANCH  13  17
HETATM   17  O   UNL     1      18.981  49.379  51.504  1.00  0.00    -0.361 OA
HETATM   18  H   UNL     1      18.498  49.914  52.152  1.00  0.00     0.217 HD
ENDBRANCH  13  17
ENDBRANCH  10  11
ENDBRANCH   9  10
ENDBRANCH   6   9
ENDBRANCH   2   5
BRANCH   1  19
HETATM   19  C   UNL     1      25.391  45.268  51.589  1.00  0.00     0.158 A 
HETATM   20  C   UNL     1      25.416  43.853  51.612  1.00  0.00     0.003 A 
HETATM   21  C   UNL     1      24.651  42.890  50.785  1.00  0.00     0.054 C 
HETATM   22  C   UNL     1      26.362  43.546  52.568  1.00  0.00     0.129 A 
HETATM   23  N   UNL     1      26.823  44.728  53.099  1.00  0.00    -0.241 N 
HETATM   24  N   UNL     1      26.253  45.782  52.460  1.00  0.00    -0.149 NA
BRANCH  23  25
HETATM   25  C   UNL     1      27.803  44.962  54.112  1.00  0.00     0.079 A 
HETATM   26  C   UNL     1      28.903  44.130  54.371  1.00  0.00     0.062 A 
HETATM   27 CL   UNL     1      29.182  42.577  53.663  1.00  0.00    -0.082 Cl
HETATM   28  C   UNL     1      29.836  44.495  55.358  1.00  0.00     0.026 A 
HETATM   29  C   UNL     1      29.680  45.665  56.100  1.00  0.00     0.002 A 
HETATM   30  C   UNL     1      28.577  46.477  55.876  1.00  0.00     0.002 A 
HETATM   31  C   UNL     1      27.644  46.126  54.898  1.00  0.00     0.033 A 
ENDBRANCH  23  25
ENDBRANCH   1  19
TORSDOF 7
ENDMDL
MODEL 5
REMARK VINA RESULT:      -9.1      1.637      2.287
REMARK  7 active torsions:
REMARK  status: ('A' for Active; 'I' for Inactive)
REMARK    1  A    between atoms: C_3  and  N_4 
REMARK       I    between atoms: N_4  and  C_5 
REMARK    2  A    between atoms: C_5  and  C_6 
REMARK       I    between atoms: C_6  and  N_7 
REMARK    3  A    between atoms: N_7  and  C_8 
REMARK    4  A    between atoms: C_8  and  C_9 
REMARK    5  A    between atoms: C_9  and  C_10 
REMARK    6  A    between atoms: C_12  and  O_13 
REMARK    7  A    between atoms: N_20  and  C_21 
ROOT
HETATM    1  N   UNL     1      24.048  47.459  50.264  1.00  0.00    -0.302 N 
HETATM    2  C   UNL     1      24.043  46.127  49.931  1.00  0.00     0.315 C 
HETATM    3  O   UNL     1      23.583  45.542  48.961  1.00  0.00    -0.262 OA
HETATM    4  H   UNL     1      24.481  47.692  51.150  1.00  0.00     0.171 HD
ENDROOT
BRANCH   2   5
HETATM    5  C   UNL     1      24.748  45.292  51.020  1.00  0.00     0.309 C 
HETATM    6  N   UNL     1      26.110  45.485  51.086  1.00  0.00    -0.353 N 
HETATM    7  H   UNL     1      26.513  46.054  50.345  1.00  0.00     0.162 HD
HETATM    8  O   UNL     1      24.089  44.535  51.721  1.00  0.00    -0.262 OA
BRANCH   6   9
HETATM    9  C   UNL     1      26.943  44.702  51.973  1.00  0.00     0.128 C 
BRANCH   9  10
HETATM   10  C   UNL     1      26.963  45.266  53.393  1.00  0.00     0.058 C 
BRANCH  10  11
HETATM   11  C   UNL     1      28.165  44.784  54.166  1.00  0.00    -0.054 A 
HETATM   12  C   UNL     1      28.730  45.574  55.178  1.00  0.00     0.043 A 
HETATM   13  C   UNL     1      29.859  45.122  55.860  1.00  0.00     0.066 A 
HETATM   14  C   UNL     1      30.438  43.897  55.550  1.00  0.00     0.036 A 
HETATM   15  C   UNL     1      29.884  43.108  54.544  1.00  0.00     0.003 A 
HETATM   16  C   UNL     1      28.755  43.550  53.852  1.00  0.00     0.007 A 
BRANCH  13  17
HETATM   17  O   UNL     1      30.436  45.863  56.849  1.00  0.00    -0.361 OA
HETATM   18  H   UNL     1      30.272  45.427  57.700  1.00  0.00     0.217 HD
ENDBRANCH  13  17
ENDBRANCH  10  11
ENDBRANCH   9  10
ENDBRANCH   6   9
ENDBRANCH   2   5
BRANCH   1  19
HETATM   19  C   UNL     1      23.525  48.481  49.511  1.00  0.00     0.158 A 
HETATM   20  C   UNL     1      24.301  49.391  48.753  1.00  0.00     0.003 A 
HETATM   21  C   UNL     1      25.773  49.454  48.586  1.00  0.00     0.054 C 
HETATM   22  C   UNL     1      23.369  50.210  48.149  1.00  0.00     0.129 A 
HETATM   23  N   UNL     1      22.123  49.817  48.578  1.00  0.00    -0.241 N 
HETATM   24  N   UNL     1      22.226  48.726  49.379  1.00  0.00    -0.149 NA
BRANCH  23  25
HETATM   25  C   UNL     1      20.832  50.333  48.249  1.00  0.00     0.079 A 
HETATM   26  C   UNL     1      19.826  49.617  47.582  1.00  0.00     0.062 A 
HETATM   27 CL   UNL     1      20.011  48.057  46.857  1.00  0.00    -0.082 Cl
HETATM   28  C   UNL     1      18.572  50.214  47.366  1.00  0.00     0.026 A 
HETATM   29  C   UNL     1      18.310  51.516  47.788  1.00  0.00     0.002 A 
HETATM   30  C   UNL     1      19.309  52.246  48.418  1.00  0.00     0.002 A 
HETATM   31  C   UNL     1      20.559  51.664  48.640  1.00  0.00     0.033 A 
ENDBRANCH  23  25
ENDBRANCH   1  19
TORSDOF 7
ENDMDL
MODEL 6
REMARK VINA RESULT:      -9.0      2.023      3.168
REMARK  7 active torsions:
REMARK  status: ('A' for Active; 'I' for Inactive)
REMARK    1  A    between atoms: C_3  and  N_4 
REMARK       I    between atoms: N_4  and  C_5 
REMARK    2  A    between atoms: C_5  and  C_6 
REMARK       I    between atoms: C_6  and  N_7 
REMARK    3  A    between atoms: N_7  and  C_8 
REMARK    4  A    between atoms: C_8  and  C_9 
REMARK    5  A    between atoms: C_9  and  C_10 
REMARK    6  A    between atoms: C_12  and  O_13 
REMARK    7  A    between atoms: N_20  and  C_21 
ROOT
HETATM    1  N   UNL     1      23.382  46.764  49.400  1.00  0.00    -0.302 N 
HETATM    2  C   UNL     1      24.555  47.329  49.839  1.00  0.00     0.315 C 
HETATM    3  O   UNL     1      24.949  48.485  49.812  1.00  0.00    -0.262 OA
HETATM    4  H   UNL     1      23.303  45.760  49.518  1.00  0.00     0.171 HD
ENDROOT
BRANCH   2   5
HETATM    5  C   UNL     1      25.481  46.255  50.447  1.00  0.00     0.309 C 
HETATM    6  N   UNL     1      25.556  46.287  51.822  1.00  0.00    -0.353 N 
HETATM    7  H   UNL     1      25.097  47.076  52.272  1.00  0.00     0.162 HD
HETATM    8  O   UNL     1      26.075  45.482  49.708  1.00  0.00    -0.262 OA
BRANCH   6   9
HETATM    9  C   UNL     1      26.462  45.426  52.550  1.00  0.00     0.128 C 
BRANCH   9  10
HETATM   10  C   UNL     1      26.868  46.025  53.896  1.00  0.00     0.058 C 
BRANCH  10  11
HETATM   11  C   UNL     1      28.068  45.320  54.479  1.00  0.00    -0.054 A 
HETATM   12  C   UNL     1      28.756  45.863  55.574  1.00  0.00     0.043 A 
HETATM   13  C   UNL     1      29.880  45.211  56.078  1.00  0.00     0.066 A 
HETATM   14  C   UNL     1      30.334  44.027  55.509  1.00  0.00     0.036 A 
HETATM   15  C   UNL     1      29.658  43.483  54.419  1.00  0.00     0.003 A 
HETATM   16  C   UNL     1      28.532  44.127  53.903  1.00  0.00     0.007 A 
BRANCH  13  17
HETATM   17  O   UNL     1      30.574  45.710  57.140  1.00  0.00    -0.361 OA
HETATM   18  H   UNL     1      31.337  45.136  57.310  1.00  0.00     0.217 HD
ENDBRANCH  13  17
ENDBRANCH  10  11
ENDBRANCH   9  10
ENDBRANCH   6   9
ENDBRANCH   2   5
BRANCH   1  19
HETATM   19  C   UNL     1      22.329  47.433  48.827  1.00  0.00     0.158 A 
HETATM   20  C   UNL     1      21.709  47.053  47.613  1.00  0.00     0.003 A 
HETATM   21  C   UNL     1      22.015  45.908  46.723  1.00  0.00     0.054 C 
HETATM   22  C   UNL     1      20.700  47.979  47.443  1.00  0.00     0.129 A 
HETATM   23  N   UNL     1      20.769  48.872  48.487  1.00  0.00    -0.241 N 
HETATM   24  N   UNL     1      21.745  48.502  49.355  1.00  0.00    -0.149 NA
BRANCH  23  25
HETATM   25  C   UNL     1      19.955  50.009  48.780  1.00  0.00     0.079 A 
HETATM   26  C   UNL     1      19.042  50.091  49.842  1.00  0.00     0.062 A 
HETATM   27 CL   UNL     1      18.578  48.783  50.875  1.00  0.00    -0.082 Cl
HETATM   28  C   UNL     1      18.338  51.287  50.066  1.00  0.00     0.026 A 
HETATM   29  C   UNL     1      18.518  52.395  49.239  1.00  0.00     0.002 A 
HETATM   30  C   UNL     1      19.393  52.313  48.165  1.00  0.00     0.002 A 
HETATM   31  C   UNL     1      20.099  51.132  47.933  1.00  0.00     0.033 A 
ENDBRANCH  23  25
ENDBRANCH   1  19
TORSDOF 7
ENDMDL
MODEL 7
REMARK VINA RESULT:      -9.0      2.829      4.172
REMARK  7 active torsions:
REMARK  status: ('A' for Active; 'I' for Inactive)
REMARK    1  A    between atoms: C_3  and  N_4 
REMARK       I    between atoms: N_4  and  C_5 
REMARK    2  A    between atoms: C_5  and  C_6 
REMARK       I    between atoms: C_6  and  N_7 
REMARK    3  A    between atoms: N_7  and  C_8 
REMARK    4  A    between atoms: C_8  and  C_9 
REMARK    5  A    between atoms: C_9  and  C_10 
REMARK    6  A    between atoms: C_12  and  O_13 
REMARK    7  A    between atoms: N_20  and  C_21 
ROOT
HETATM    1  N   UNL     1      23.648  47.550  49.262  1.00  0.00    -0.302 N 
HETATM    2  C   UNL     1      24.783  48.313  49.388  1.00  0.00     0.315 C 
HETATM    3  O   UNL     1      24.996  49.486  49.120  1.00  0.00    -0.262 OA
HETATM    4  H   UNL     1      23.736  46.578  49.537  1.00  0.00     0.171 HD
ENDROOT
BRANCH   2   5
HETATM    5  C   UNL     1      25.943  47.472  49.961  1.00  0.00     0.309 C 
HETATM    6  N   UNL     1      25.620  46.156  50.202  1.00  0.00    -0.353 N 
HETATM    7  H   UNL     1      24.638  45.913  50.093  1.00  0.00     0.162 HD
HETATM    8  O   UNL     1      27.027  48.002  50.168  1.00  0.00    -0.262 OA
BRANCH   6   9
HETATM    9  C   UNL     1      26.552  45.253  50.843  1.00  0.00     0.128 C 
BRANCH   9  10
HETATM   10  C   UNL     1      26.048  44.775  52.203  1.00  0.00     0.058 C 
BRANCH  10  11
HETATM   11  C   UNL     1      26.520  45.673  53.319  1.00  0.00    -0.054 A 
HETATM   12  C   UNL     1      25.813  46.839  53.648  1.00  0.00     0.043 A 
HETATM   13  C   UNL     1      26.283  47.671  54.663  1.00  0.00     0.066 A 
HETATM   14  C   UNL     1      27.448  47.364  55.357  1.00  0.00     0.036 A 
HETATM   15  C   UNL     1      28.157  46.208  55.034  1.00  0.00     0.003 A 
HETATM   16  C   UNL     1      27.698  45.368  54.019  1.00  0.00     0.007 A 
BRANCH  13  17
HETATM   17  O   UNL     1      25.624  48.813  55.008  1.00  0.00    -0.361 OA
HETATM   18  H   UNL     1      24.708  48.587  55.236  1.00  0.00     0.217 HD
ENDBRANCH  13  17
ENDBRANCH  10  11
ENDBRANCH   9  10
ENDBRANCH   6   9
ENDBRANCH   2   5
BRANCH   1  19
HETATM   19  C   UNL     1      22.429  47.985  48.805  1.00  0.00     0.158 A 
HETATM   20  C   UNL     1      21.685  47.346  47.785  1.00  0.00     0.003 A 
HETATM   21  C   UNL     1      22.010  46.121  47.016  1.00  0.00     0.054 C 
HETATM   22  C   UNL     1      20.536  48.103  47.679  1.00  0.00     0.129 A 
HETATM   23  N   UNL     1      20.639  49.151  48.564  1.00  0.00    -0.241 N 
HETATM   24  N   UNL     1      21.786  49.045  49.283  1.00  0.00    -0.149 NA
BRANCH  23  25
HETATM   25  C   UNL     1      19.724  50.211  48.845  1.00  0.00     0.079 A 
HETATM   26  C   UNL     1      18.765  50.195  49.870  1.00  0.00     0.062 A 
HETATM   27 CL   UNL     1      18.370  48.831  50.858  1.00  0.00    -0.082 Cl
HETATM   28  C   UNL     1      17.957  51.324  50.087  1.00  0.00     0.026 A 
HETATM   29  C   UNL     1      18.078  52.461  49.289  1.00  0.00     0.002 A 
HETATM   30  C   UNL     1      18.998  52.475  48.251  1.00  0.00     0.002 A 
HETATM   31  C   UNL     1      19.808  51.360  48.026  1.00  0.00     0.033 A 
ENDBRANCH  23  25
ENDBRANCH   1  19
TORSDOF 7
ENDMDL
MODEL 8
REMARK VINA RESULT:      -8.9      2.986      4.845
REMARK  7 active torsions:
REMARK  status: ('A' for Active; 'I' for Inactive)
REMARK    1  A    between atoms: C_3  and  N_4 
REMARK       I    between atoms: N_4  and  C_5 
REMARK    2  A    between atoms: C_5  and  C_6 
REMARK       I    between atoms: C_6  and  N_7 
REMARK    3  A    between atoms: N_7  and  C_8 
REMARK    4  A    between atoms: C_8  and  C_9 
REMARK    5  A    between atoms: C_9  and  C_10 
REMARK    6  A    between atoms: C_12  and  O_13 
REMARK    7  A    between atoms: N_20  and  C_21 
ROOT
HETATM    1  N   UNL     1      22.071  48.573  49.555  1.00  0.00    -0.302 N 
HETATM    2  C   UNL     1      22.533  47.614  48.688  1.00  0.00     0.315 C 
HETATM    3  O   UNL     1      22.345  47.455  47.491  1.00  0.00    -0.262 OA
HETATM    4  H   UNL     1      22.358  48.471  50.522  1.00  0.00     0.171 HD
ENDROOT
BRANCH   2   5
HETATM    5  C   UNL     1      23.427  46.598  49.428  1.00  0.00     0.309 C 
HETATM    6  N   UNL     1      24.092  47.117  50.516  1.00  0.00    -0.353 N 
HETATM    7  H   UNL     1      24.020  48.125  50.639  1.00  0.00     0.162 HD
HETATM    8  O   UNL     1      23.497  45.446  49.019  1.00  0.00    -0.262 OA
BRANCH   6   9
HETATM    9  C   UNL     1      25.057  46.335  51.257  1.00  0.00     0.128 C 
BRANCH   9  10
HETATM   10  C   UNL     1      25.510  47.040  52.535  1.00  0.00     0.058 C 
BRANCH  10  11
HETATM   11  C   UNL     1      26.398  46.154  53.374  1.00  0.00    -0.054 A 
HETATM   12  C   UNL     1      26.313  44.758  53.278  1.00  0.00     0.043 A 
HETATM   13  C   UNL     1      27.121  43.958  54.084  1.00  0.00     0.066 A 
HETATM   14  C   UNL     1      28.012  44.524  54.988  1.00  0.00     0.036 A 
HETATM   15  C   UNL     1      28.100  45.911  55.092  1.00  0.00     0.003 A 
HETATM   16  C   UNL     1      27.295  46.723  54.291  1.00  0.00     0.007 A 
BRANCH  13  17
HETATM   17  O   UNL     1      27.065  42.597  54.019  1.00  0.00    -0.361 OA
HETATM   18  H   UNL     1      26.386  42.344  53.375  1.00  0.00     0.217 HD
ENDBRANCH  13  17
ENDBRANCH  10  11
ENDBRANCH   9  10
ENDBRANCH   6   9
ENDBRANCH   2   5
BRANCH   1  19
HETATM   19  C   UNL     1      21.270  49.639  49.227  1.00  0.00     0.158 A 
HETATM   20  C   UNL     1      21.739  50.840  48.642  1.00  0.00     0.003 A 
HETATM   21  C   UNL     1      23.120  51.215  48.253  1.00  0.00     0.054 C 
HETATM   22  C   UNL     1      20.600  51.599  48.467  1.00  0.00     0.129 A 
HETATM   23  N   UNL     1      19.537  50.885  48.969  1.00  0.00    -0.241 N 
HETATM   24  N   UNL     1      19.952  49.664  49.393  1.00  0.00    -0.149 NA
BRANCH  23  25
HETATM   25  C   UNL     1      18.150  51.220  49.027  1.00  0.00     0.079 A 
HETATM   26  C   UNL     1      17.126  50.520  48.369  1.00  0.00     0.062 A 
HETATM   27 CL   UNL     1      17.354  49.253  47.214  1.00  0.00    -0.082 Cl
HETATM   28  C   UNL     1      15.788  50.910  48.549  1.00  0.00     0.026 A 
HETATM   29  C   UNL     1      15.455  51.995  49.359  1.00  0.00     0.002 A 
HETATM   30  C   UNL     1      16.462  52.715  49.987  1.00  0.00     0.002 A 
HETATM   31  C   UNL     1      17.795  52.337  49.818  1.00  0.00     0.033 A 
ENDBRANCH  23  25
ENDBRANCH   1  19
TORSDOF 7
ENDMDL
MODEL 9
REMARK VINA RESULT:      -8.8      3.085     10.565
REMARK  7 active torsions:
REMARK  status: ('A' for Active; 'I' for Inactive)
REMARK    1  A    between atoms: C_3  and  N_4 
REMARK       I    between atoms: N_4  and  C_5 
REMARK    2  A    between atoms: C_5  and  C_6 
REMARK       I    between atoms: C_6  and  N_7 
REMARK    3  A    between atoms: N_7  and  C_8 
REMARK    4  A    between atoms: C_8  and  C_9 
REMARK    5  A    between atoms: C_9  and  C_10 
REMARK    6  A    between atoms: C_12  and  O_13 
REMARK    7  A    between atoms: N_20  and  C_21 
ROOT
HETATM    1  N   UNL     1      27.183  44.291  51.528  1.00  0.00    -0.302 N 
HETATM    2  C   UNL     1      25.813  44.355  51.606  1.00  0.00     0.315 C 
HETATM    3  O   UNL     1      25.039  43.981  52.474  1.00  0.00    -0.262 OA
HETATM    4  H   UNL     1      27.595  44.657  50.677  1.00  0.00     0.171 HD
ENDROOT
BRANCH   2   5
HETATM    5  C   UNL     1      25.227  45.016  50.341  1.00  0.00     0.309 C 
HETATM    6  N   UNL     1      24.327  46.026  50.597  1.00  0.00    -0.353 N 
HETATM    7  H   UNL     1      24.059  46.144  51.572  1.00  0.00     0.162 HD
HETATM    8  O   UNL     1      25.572  44.617  49.236  1.00  0.00    -0.262 OA
BRANCH   6   9
HETATM    9  C   UNL     1      23.598  46.679  49.531  1.00  0.00     0.128 C 
BRANCH   9  10
HETATM   10  C   UNL     1      23.981  48.151  49.389  1.00  0.00     0.058 C 
BRANCH  10  11
HETATM   11  C   UNL     1      22.778  49.013  49.096  1.00  0.00    -0.054 A 
HETATM   12  C   UNL     1      21.503  48.443  48.965  1.00  0.00     0.043 A 
HETATM   13  C   UNL     1      20.409  49.254  48.665  1.00  0.00     0.066 A 
HETATM   14  C   UNL     1      20.563  50.624  48.489  1.00  0.00     0.036 A 
HETATM   15  C   UNL     1      21.827  51.197  48.614  1.00  0.00     0.003 A 
HETATM   16  C   UNL     1      22.930  50.396  48.913  1.00  0.00     0.007 A 
BRANCH  13  17
HETATM   17  O   UNL     1      19.156  48.735  48.529  1.00  0.00    -0.361 OA
HETATM   18  H   UNL     1      18.739  48.696  49.404  1.00  0.00     0.217 HD
ENDBRANCH  13  17
ENDBRANCH  10  11
ENDBRANCH   9  10
ENDBRANCH   6   9
ENDBRANCH   2   5
BRANCH   1  19
HETATM   19  C   UNL     1      28.023  43.784  52.488  1.00  0.00     0.158 A 
HETATM   20  C   UNL     1      28.543  42.467  52.478  1.00  0.00     0.003 A 
HETATM   21  C   UNL     1      28.332  41.385  51.487  1.00  0.00     0.054 C 
HETATM   22  C   UNL     1      29.345  42.411  53.598  1.00  0.00     0.129 A 
HETATM   23  N   UNL     1      29.253  43.623  54.243  1.00  0.00    -0.241 N 
HETATM   24  N   UNL     1      28.473  44.474  53.529  1.00  0.00    -0.149 NA
BRANCH  23  25
HETATM   25  C   UNL     1      29.886  44.078  55.440  1.00  0.00     0.079 A 
HETATM   26  C   UNL     1      29.610  45.296  56.081  1.00  0.00     0.062 A 
HETATM   27 CL   UNL     1      28.611  46.561  55.454  1.00  0.00    -0.082 Cl
HETATM   28  C   UNL     1      30.257  45.610  57.289  1.00  0.00     0.026 A 
HETATM   29  C   UNL     1      31.183  44.739  57.859  1.00  0.00     0.002 A 
HETATM   30  C   UNL     1      31.489  43.547  57.216  1.00  0.00     0.002 A 
HETATM   31  C   UNL     1      30.853  43.223  56.016  1.00  0.00     0.033 A 
ENDBRANCH  23  25
ENDBRANCH   1  19
TORSDOF 7
ENDMDL
MODEL 10
REMARK VINA RESULT:      -8.6      2.866      4.255
REMARK  7 active torsions:
REMARK  status: ('A' for Active; 'I' for Inactive)
REMARK    1  A    between atoms: C_3  and  N_4 
REMARK       I    between atoms: N_4  and  C_5 
REMARK    2  A    between atoms: C_5  and  C_6 
REMARK       I    between atoms: C_6  and  N_7 
REMARK    3  A    between atoms: N_7  and  C_8 
REMARK    4  A    between atoms: C_8  and  C_9 
REMARK    5  A    between atoms: C_9  and  C_10 
REMARK    6  A    between atoms: C_12  and  O_13 
REMARK    7  A    between atoms: N_20  and  C_21 
ROOT
HETATM    1  N   UNL     1      23.409  47.333  49.427  1.00  0.00    -0.302 N 
HETATM    2  C   UNL     1      24.562  48.058  49.599  1.00  0.00     0.315 C 
HETATM    3  O   UNL     1      24.851  49.199  49.273  1.00  0.00    -0.262 OA
HETATM    4  H   UNL     1      23.428  46.381  49.774  1.00  0.00     0.171 HD
ENDROOT
BRANCH   2   5
HETATM    5  C   UNL     1      25.629  47.216  50.330  1.00  0.00     0.309 C 
HETATM    6  N   UNL     1      26.092  46.140  49.606  1.00  0.00    -0.353 N 
HETATM    7  H   UNL     1      25.602  45.948  48.734  1.00  0.00     0.162 HD
HETATM    8  O   UNL     1      25.978  47.532  51.459  1.00  0.00    -0.262 OA
BRANCH   6   9
HETATM    9  C   UNL     1      27.010  45.181  50.179  1.00  0.00     0.128 C 
BRANCH   9  10
HETATM   10  C   UNL     1      26.292  44.122  51.014  1.00  0.00     0.058 C 
BRANCH  10  11
HETATM   11  C   UNL     1      27.176  43.583  52.111  1.00  0.00    -0.054 A 
HETATM   12  C   UNL     1      27.413  42.205  52.229  1.00  0.00     0.043 A 
HETATM   13  C   UNL     1      28.209  41.726  53.267  1.00  0.00     0.066 A 
HETATM   14  C   UNL     1      28.774  42.595  54.194  1.00  0.00     0.036 A 
HETATM   15  C   UNL     1      28.541  43.964  54.085  1.00  0.00     0.003 A 
HETATM   16  C   UNL     1      27.744  44.457  53.051  1.00  0.00     0.007 A 
BRANCH  13  17
HETATM   17  O   UNL     1      28.460  40.394  53.414  1.00  0.00    -0.361 OA
HETATM   18  H   UNL     1      27.679  39.972  53.806  1.00  0.00     0.217 HD
ENDBRANCH  13  17
ENDBRANCH  10  11
ENDBRANCH   9  10
ENDBRANCH   6   9
ENDBRANCH   2   5
BRANCH   1  19
HETATM   19  C   UNL     1      22.254  47.782  48.835  1.00  0.00     0.158 A 
HETATM   20  C   UNL     1      21.631  47.160  47.727  1.00  0.00     0.003 A 
HETATM   21  C   UNL     1      22.038  45.941  46.986  1.00  0.00     0.054 C 
HETATM   22  C   UNL     1      20.507  47.925  47.496  1.00  0.00     0.129 A 
HETATM   23  N   UNL     1      20.511  48.962  48.399  1.00  0.00    -0.241 N 
HETATM   24  N   UNL     1      21.564  48.840  49.247  1.00  0.00    -0.149 NA
BRANCH  23  25
HETATM   25  C   UNL     1      19.575  50.025  48.583  1.00  0.00     0.079 A 
HETATM   26  C   UNL     1      18.247  49.862  49.009  1.00  0.00     0.062 A 
HETATM   27 CL   UNL     1      17.429  48.350  49.201  1.00  0.00    -0.082 Cl
HETATM   28  C   UNL     1      17.436  50.992  49.210  1.00  0.00     0.026 A 
HETATM   29  C   UNL     1      17.920  52.278  48.979  1.00  0.00     0.002 A 
HETATM   30  C   UNL     1      19.221  52.449  48.526  1.00  0.00     0.002 A 
HETATM   31  C   UNL     1      20.037  51.335  48.323  1.00  0.00     0.033 A 
ENDBRANCH  23  25
ENDBRANCH   1  19
TORSDOF 7
ENDMDL
