MODEL 1
REMARK VINA RESULT:      -8.8      0.000      0.000
REMARK  10 active torsions:
REMARK  status: ('A' for Active; 'I' for Inactive)
REMARK    1  A    between atoms: C_2  and  C_3 
REMARK    2  A    between atoms: C_3  and  N_4 
REMARK    3  A    between atoms: C_7  and  C_8 
REMARK       I    between atoms: C_8  and  N_9 
REMARK    4  A    between atoms: N_9  and  C_10 
REMARK    5  A    between atoms: C_10  and  C_11 
REMARK    6  A    between atoms: C_11  and  O_12 
REMARK    7  A    between atoms: C_11  and  C_13 
REMARK    8  A    between atoms: C_13  and  O_14 
REMARK    9  A    between atoms: O_14  and  C_15 
REMARK   10  A    between atoms: C_23  and  C_24 
ROOT
HETATM    1  C   UNL     1      26.167  44.380  53.525  1.00  0.00     0.255 C 
HETATM    2  N   UNL     1      26.293  44.465  52.163  1.00  0.00    -0.354 N 
HETATM    3  O   UNL     1      25.171  43.928  54.079  1.00  0.00    -0.268 OA
HETATM    4  H   UNL     1      27.044  45.022  51.774  1.00  0.00     0.162 HD
ENDROOT
BRANCH   2   5
HETATM    5  C   UNL     1      25.311  43.916  51.247  1.00  0.00     0.156 C 
BRANCH   5   6
HETATM    6  C   UNL     1      25.603  44.239  49.780  1.00  0.00     0.160 C 
BRANCH   6   7
HETATM    7  O   UNL     1      27.018  44.445  49.617  1.00  0.00    -0.392 OA
HETATM    8  H   UNL     1      27.446  43.765  50.172  1.00  0.00     0.210 HD
ENDBRANCH   6   7
BRANCH   6   9
HETATM    9  C   UNL     1      24.837  45.460  49.258  1.00  0.00     0.209 C 
BRANCH   9  10
HETATM   10  O   UNL     1      25.146  46.543  50.148  1.00  0.00    -0.349 OA
BRANCH  10  11
HETATM   11  C   UNL     1      25.592  47.706  49.582  1.00  0.00     0.069 A 
HETATM   12  C   UNL     1      24.582  48.530  49.075  1.00  0.00     0.043 A 
HETATM   13  C   UNL     1      24.886  49.754  48.466  1.00  0.00    -0.059 A 
HETATM   14  C   UNL     1      23.802  50.637  47.923  1.00  0.00     0.048 C 
HETATM   15  C   UNL     1      26.226  50.139  48.355  1.00  0.00     0.007 A 
HETATM   16  C   UNL     1      27.238  49.318  48.853  1.00  0.00     0.003 A 
HETATM   17  C   UNL     1      26.923  48.103  49.468  1.00  0.00     0.037 A 
ENDBRANCH  10  11
ENDBRANCH   9  10
ENDBRANCH   6   9
ENDBRANCH   5   6
ENDBRANCH   2   5
BRANCH   1  18
HETATM   18  C   UNL     1      27.273  44.948  54.260  1.00  0.00     0.075 A 
HETATM   19  C   UNL     1      27.277  46.243  54.822  1.00  0.00     0.158 A 
HETATM   20  N   UNL     1      28.406  46.523  55.469  1.00  0.00    -0.183 NA
HETATM   21  N   UNL     1      29.101  45.369  55.419  1.00  0.00    -0.268 N 
HETATM   22  C   UNL     1      28.491  44.398  54.644  1.00  0.00     0.052 A 
BRANCH  21  23
HETATM   23  C   UNL     1      30.377  45.283  56.129  1.00  0.00     0.106 C 
HETATM   24  C   UNL     1      30.194  45.708  57.587  1.00  0.00     0.034 C 
BRANCH  23  25
HETATM   25  C   UNL     1      31.044  43.894  56.047  1.00  0.00     0.022 C 
HETATM   26  C   UNL     1      31.801  43.522  57.316  1.00  0.00     0.007 C 
ENDBRANCH  23  25
ENDBRANCH  21  23
BRANCH  22  27
HETATM   27  C   UNL     1      29.080  43.010  54.380  1.00  0.00     0.038 A 
HETATM   28  C   UNL     1      28.252  41.946  53.697  1.00  0.00     0.011 A 
HETATM   29  C   UNL     1      29.407  42.555  52.978  1.00  0.00     0.011 A 
ENDBRANCH  22  27
ENDBRANCH   1  18
TORSDOF 10
ENDMDL
MODEL 2
REMARK VINA RESULT:      -8.6      3.490      9.724
REMARK  10 active torsions:
REMARK  status: ('A' for Active; 'I' for Inactive)
REMARK    1  A    between atoms: C_2  and  C_3 
REMARK    2  A    between atoms: C_3  and  N_4 
REMARK    3  A    between atoms: C_7  and  C_8 
REMARK       I    between atoms: C_8  and  N_9 
REMARK    4  A    between atoms: N_9  and  C_10 
REMARK    5  A    between atoms: C_10  and  C_11 
REMARK    6  A    between atoms: C_11  and  O_12 
REMARK    7  A    between atoms: C_11  and  C_13 
REMARK    8  A    between atoms: C_13  and  O_14 
REMARK    9  A    between atoms: O_14  and  C_15 
REMARK   10  A    between atoms: C_23  and  C_24 
ROOT
HETATM    1  C   UNL     1      24.221  47.945  49.749  1.00  0.00     0.255 C 
HETATM    2  N   UNL     1      24.424  47.163  50.856  1.00  0.00    -0.354 N 
HETATM    3  O   UNL     1      25.049  48.749  49.335  1.00  0.00    -0.268 OA
HETATM    4  H   UNL     1      23.636  46.670  51.259  1.00  0.00     0.162 HD
ENDROOT
BRANCH   2   5
HETATM    5  C   UNL     1      25.686  47.126  51.570  1.00  0.00     0.156 C 
BRANCH   5   6
HETATM    6  C   UNL     1      25.542  46.699  53.033  1.00  0.00     0.160 C 
BRANCH   6   7
HETATM    7  O   UNL     1      25.789  47.835  53.881  1.00  0.00    -0.392 OA
HETATM    8  H   UNL     1      25.826  47.480  54.789  1.00  0.00     0.210 HD
ENDBRANCH   6   7
BRANCH   6   9
HETATM    9  C   UNL     1      26.470  45.544  53.428  1.00  0.00     0.209 C 
BRANCH   9  10
HETATM   10  O   UNL     1      27.118  45.944  54.645  1.00  0.00    -0.349 OA
BRANCH  10  11
HETATM   11  C   UNL     1      28.300  45.328  54.952  1.00  0.00     0.069 A 
HETATM   12  C   UNL     1      28.656  44.289  54.086  1.00  0.00     0.043 A 
HETATM   13  C   UNL     1      29.840  43.565  54.275  1.00  0.00    -0.059 A 
HETATM   14  C   UNL     1      30.221  42.452  53.344  1.00  0.00     0.048 C 
HETATM   15  C   UNL     1      30.663  43.885  55.359  1.00  0.00     0.007 A 
HETATM   16  C   UNL     1      30.309  44.916  56.231  1.00  0.00     0.003 A 
HETATM   17  C   UNL     1      29.129  45.639  56.028  1.00  0.00     0.037 A 
ENDBRANCH  10  11
ENDBRANCH   9  10
ENDBRANCH   6   9
ENDBRANCH   5   6
ENDBRANCH   2   5
BRANCH   1  18
HETATM   18  C   UNL     1      22.910  47.806  49.156  1.00  0.00     0.075 A 
HETATM   19  C   UNL     1      22.398  46.602  48.625  1.00  0.00     0.158 A 
HETATM   20  N   UNL     1      21.158  46.730  48.157  1.00  0.00    -0.183 NA
HETATM   21  N   UNL     1      20.821  47.995  48.477  1.00  0.00    -0.268 N 
HETATM   22  C   UNL     1      21.867  48.716  49.028  1.00  0.00     0.052 A 
BRANCH  21  23
HETATM   23  C   UNL     1      19.462  48.456  48.193  1.00  0.00     0.106 C 
HETATM   24  C   UNL     1      19.072  48.083  46.762  1.00  0.00     0.034 C 
BRANCH  23  25
HETATM   25  C   UNL     1      18.407  47.945  49.197  1.00  0.00     0.022 C 
HETATM   26  C   UNL     1      18.578  48.535  50.591  1.00  0.00     0.007 C 
ENDBRANCH  23  25
ENDBRANCH  21  23
BRANCH  22  27
HETATM   27  C   UNL     1      21.775  50.186  49.444  1.00  0.00     0.038 A 
HETATM   28  C   UNL     1      22.632  51.228  48.761  1.00  0.00     0.011 A 
HETATM   29  C   UNL     1      21.160  51.218  48.530  1.00  0.00     0.011 A 
ENDBRANCH  22  27
ENDBRANCH   1  18
TORSDOF 10
ENDMDL
MODEL 3
REMARK VINA RESULT:      -8.6      3.438      9.809
REMARK  10 active torsions:
REMARK  status: ('A' for Active; 'I' for Inactive)
REMARK    1  A    between atoms: C_2  and  C_3 
REMARK    2  A    between atoms: C_3  and  N_4 
REMARK    3  A    between atoms: C_7  and  C_8 
REMARK       I    between atoms: C_8  and  N_9 
REMARK    4  A    between atoms: N_9  and  C_10 
REMARK    5  A    between atoms: C_10  and  C_11 
REMARK    6  A    between atoms: C_11  and  O_12 
REMARK    7  A    between atoms: C_11  and  C_13 
REMARK    8  A    between atoms: C_13  and  O_14 
REMARK    9  A    between atoms: O_14  and  C_15 
REMARK   10  A    between atoms: C_23  and  C_24 
ROOT
HETATM    1  C   UNL     1      24.344  47.881  49.745  1.00  0.00     0.255 C 
HETATM    2  N   UNL     1      24.564  47.038  50.803  1.00  0.00    -0.354 N 
HETATM    3  O   UNL     1      25.167  48.704  49.361  1.00  0.00    -0.268 OA
HETATM    4  H   UNL     1      23.782  46.526  51.193  1.00  0.00     0.162 HD
ENDROOT
BRANCH   2   5
HETATM    5  C   UNL     1      25.839  46.957  51.490  1.00  0.00     0.156 C 
BRANCH   5   6
HETATM    6  C   UNL     1      25.711  46.543  52.958  1.00  0.00     0.160 C 
BRANCH   6   7
HETATM    7  O   UNL     1      25.746  47.720  53.784  1.00  0.00    -0.392 OA
HETATM    8  H   UNL     1      26.256  48.380  53.276  1.00  0.00     0.210 HD
ENDBRANCH   6   7
BRANCH   6   9
HETATM    9  C   UNL     1      26.794  45.557  53.412  1.00  0.00     0.209 C 
BRANCH   9  10
HETATM   10  O   UNL     1      27.424  46.148  54.559  1.00  0.00    -0.349 OA
BRANCH  10  11
HETATM   11  C   UNL     1      28.498  45.487  55.089  1.00  0.00     0.069 A 
HETATM   12  C   UNL     1      29.005  46.050  56.265  1.00  0.00     0.043 A 
HETATM   13  C   UNL     1      30.104  45.483  56.922  1.00  0.00    -0.059 A 
HETATM   14  C   UNL     1      30.645  46.087  58.183  1.00  0.00     0.048 C 
HETATM   15  C   UNL     1      30.705  44.345  56.376  1.00  0.00     0.007 A 
HETATM   16  C   UNL     1      30.207  43.783  55.199  1.00  0.00     0.003 A 
HETATM   17  C   UNL     1      29.104  44.351  54.556  1.00  0.00     0.037 A 
ENDBRANCH  10  11
ENDBRANCH   9  10
ENDBRANCH   6   9
ENDBRANCH   5   6
ENDBRANCH   2   5
BRANCH   1  18
HETATM   18  C   UNL     1      23.022  47.779  49.171  1.00  0.00     0.075 A 
HETATM   19  C   UNL     1      22.463  46.588  48.659  1.00  0.00     0.158 A 
HETATM   20  N   UNL     1      21.223  46.752  48.205  1.00  0.00    -0.183 NA
HETATM   21  N   UNL     1      20.932  48.031  48.516  1.00  0.00    -0.268 N 
HETATM   22  C   UNL     1      22.008  48.722  49.046  1.00  0.00     0.052 A 
BRANCH  21  23
HETATM   23  C   UNL     1      19.585  48.534  48.245  1.00  0.00     0.106 C 
HETATM   24  C   UNL     1      19.183  48.202  46.807  1.00  0.00     0.034 C 
BRANCH  23  25
HETATM   25  C   UNL     1      18.518  48.029  49.239  1.00  0.00     0.022 C 
HETATM   26  C   UNL     1      18.638  48.671  50.616  1.00  0.00     0.007 C 
ENDBRANCH  23  25
ENDBRANCH  21  23
BRANCH  22  27
HETATM   27  C   UNL     1      21.970  50.199  49.448  1.00  0.00     0.038 A 
HETATM   28  C   UNL     1      22.770  51.222  48.673  1.00  0.00     0.011 A 
HETATM   29  C   UNL     1      21.282  51.226  48.581  1.00  0.00     0.011 A 
ENDBRANCH  22  27
ENDBRANCH   1  18
TORSDOF 10
ENDMDL
MODEL 4
REMARK VINA RESULT:      -8.6      1.477      2.899
REMARK  10 active torsions:
REMARK  status: ('A' for Active; 'I' for Inactive)
REMARK    1  A    between atoms: C_2  and  C_3 
REMARK    2  A    between atoms: C_3  and  N_4 
REMARK    3  A    between atoms: C_7  and  C_8 
REMARK       I    between atoms: C_8  and  N_9 
REMARK    4  A    between atoms: N_9  and  C_10 
REMARK    5  A    between atoms: C_10  and  C_11 
REMARK    6  A    between atoms: C_11  and  O_12 
REMARK    7  A    between atoms: C_11  and  C_13 
REMARK    8  A    between atoms: C_13  and  O_14 
REMARK    9  A    between atoms: O_14  and  C_15 
REMARK   10  A    between atoms: C_23  and  C_24 
ROOT
HETATM    1  C   UNL     1      27.417  43.867  51.441  1.00  0.00     0.255 C 
HETATM    2  N   UNL     1      26.396  42.954  51.412  1.00  0.00    -0.354 N 
HETATM    3  O   UNL     1      27.602  44.695  50.556  1.00  0.00    -0.268 OA
HETATM    4  H   UNL     1      26.413  42.179  52.063  1.00  0.00     0.162 HD
ENDROOT
BRANCH   2   5
HETATM    5  C   UNL     1      25.366  42.961  50.390  1.00  0.00     0.156 C 
BRANCH   5   6
HETATM    6  C   UNL     1      24.123  43.761  50.789  1.00  0.00     0.160 C 
BRANCH   6   7
HETATM    7  O   UNL     1      22.969  42.904  50.714  1.00  0.00    -0.392 OA
HETATM    8  H   UNL     1      22.299  43.317  51.292  1.00  0.00     0.210 HD
ENDBRANCH   6   7
BRANCH   6   9
HETATM    9  C   UNL     1      23.899  45.011  49.930  1.00  0.00     0.209 C 
BRANCH   9  10
HETATM   10  O   UNL     1      24.517  46.100  50.632  1.00  0.00    -0.349 OA
BRANCH  10  11
HETATM   11  C   UNL     1      24.687  47.269  49.942  1.00  0.00     0.069 A 
HETATM   12  C   UNL     1      26.015  47.694  49.838  1.00  0.00     0.043 A 
HETATM   13  C   UNL     1      26.345  48.875  49.159  1.00  0.00    -0.059 A 
HETATM   14  C   UNL     1      27.769  49.329  49.047  1.00  0.00     0.048 C 
HETATM   15  C   UNL     1      25.318  49.639  48.595  1.00  0.00     0.007 A 
HETATM   16  C   UNL     1      23.991  49.222  48.702  1.00  0.00     0.003 A 
HETATM   17  C   UNL     1      23.674  48.037  49.373  1.00  0.00     0.037 A 
ENDBRANCH  10  11
ENDBRANCH   9  10
ENDBRANCH   6   9
ENDBRANCH   5   6
ENDBRANCH   2   5
BRANCH   1  18
HETATM   18  C   UNL     1      28.314  43.719  52.564  1.00  0.00     0.075 A 
HETATM   19  C   UNL     1      29.567  43.071  52.505  1.00  0.00     0.158 A 
HETATM   20  N   UNL     1      30.213  43.086  53.669  1.00  0.00    -0.183 NA
HETATM   21  N   UNL     1      29.426  43.838  54.464  1.00  0.00    -0.268 N 
HETATM   22  C   UNL     1      28.230  44.196  53.867  1.00  0.00     0.052 A 
BRANCH  21  23
HETATM   23  C   UNL     1      29.886  44.151  55.817  1.00  0.00     0.106 C 
HETATM   24  C   UNL     1      31.154  43.357  56.136  1.00  0.00     0.034 C 
BRANCH  23  25
HETATM   25  C   UNL     1      30.109  45.657  56.067  1.00  0.00     0.022 C 
HETATM   26  C   UNL     1      30.321  45.991  57.538  1.00  0.00     0.007 C 
ENDBRANCH  23  25
ENDBRANCH  21  23
BRANCH  22  27
HETATM   27  C   UNL     1      27.132  45.010  54.557  1.00  0.00     0.038 A 
HETATM   28  C   UNL     1      26.930  46.468  54.210  1.00  0.00     0.011 A 
HETATM   29  C   UNL     1      25.907  45.464  53.802  1.00  0.00     0.011 A 
ENDBRANCH  22  27
ENDBRANCH   1  18
TORSDOF 10
ENDMDL
MODEL 5
REMARK VINA RESULT:      -8.5      1.264      2.566
REMARK  10 active torsions:
REMARK  status: ('A' for Active; 'I' for Inactive)
REMARK    1  A    between atoms: C_2  and  C_3 
REMARK    2  A    between atoms: C_3  and  N_4 
REMARK    3  A    between atoms: C_7  and  C_8 
REMARK       I    between atoms: C_8  and  N_9 
REMARK    4  A    between atoms: N_9  and  C_10 
REMARK    5  A    between atoms: C_10  and  C_11 
REMARK    6  A    between atoms: C_11  and  O_12 
REMARK    7  A    between atoms: C_11  and  C_13 
REMARK    8  A    between atoms: C_13  and  O_14 
REMARK    9  A    between atoms: O_14  and  C_15 
REMARK   10  A    between atoms: C_23  and  C_24 
ROOT
HETATM    1  C   UNL     1      25.712  44.329  53.426  1.00  0.00     0.255 C 
HETATM    2  N   UNL     1      25.780  44.639  52.093  1.00  0.00    -0.354 N 
HETATM    3  O   UNL     1      24.653  44.209  54.033  1.00  0.00    -0.268 OA
HETATM    4  H   UNL     1      26.671  44.916  51.700  1.00  0.00     0.162 HD
ENDROOT
BRANCH   2   5
HETATM    5  C   UNL     1      24.605  44.735  51.248  1.00  0.00     0.156 C 
BRANCH   5   6
HETATM    6  C   UNL     1      24.902  45.308  49.860  1.00  0.00     0.160 C 
BRANCH   6   7
HETATM    7  O   UNL     1      26.050  44.637  49.310  1.00  0.00    -0.392 OA
HETATM    8  H   UNL     1      26.824  45.050  49.739  1.00  0.00     0.210 HD
ENDBRANCH   6   7
BRANCH   6   9
HETATM    9  C   UNL     1      25.137  46.823  49.861  1.00  0.00     0.209 C 
BRANCH   9  10
HETATM   10  O   UNL     1      23.838  47.434  49.892  1.00  0.00    -0.349 OA
BRANCH  10  11
HETATM   11  C   UNL     1      23.704  48.643  49.267  1.00  0.00     0.069 A 
HETATM   12  C   UNL     1      22.433  49.217  49.379  1.00  0.00     0.043 A 
HETATM   13  C   UNL     1      22.146  50.456  48.790  1.00  0.00    -0.059 A 
HETATM   14  C   UNL     1      20.784  51.070  48.912  1.00  0.00     0.048 C 
HETATM   15  C   UNL     1      23.149  51.110  48.068  1.00  0.00     0.007 A 
HETATM   16  C   UNL     1      24.416  50.538  47.948  1.00  0.00     0.003 A 
HETATM   17  C   UNL     1      24.696  49.307  48.548  1.00  0.00     0.037 A 
ENDBRANCH  10  11
ENDBRANCH   9  10
ENDBRANCH   6   9
ENDBRANCH   5   6
ENDBRANCH   2   5
BRANCH   1  18
HETATM   18  C   UNL     1      26.996  44.239  54.081  1.00  0.00     0.075 A 
HETATM   19  C   UNL     1      27.861  43.127  53.992  1.00  0.00     0.158 A 
HETATM   20  N   UNL     1      28.994  43.298  54.669  1.00  0.00    -0.183 NA
HETATM   21  N   UNL     1      28.915  44.567  55.116  1.00  0.00    -0.268 N 
HETATM   22  C   UNL     1      27.697  45.166  54.844  1.00  0.00     0.052 A 
BRANCH  21  23
HETATM   23  C   UNL     1      30.057  45.135  55.833  1.00  0.00     0.106 C 
HETATM   24  C   UNL     1      29.619  45.617  57.217  1.00  0.00     0.034 C 
BRANCH  23  25
HETATM   25  C   UNL     1      31.261  44.177  55.946  1.00  0.00     0.022 C 
HETATM   26  C   UNL     1      31.462  43.638  57.357  1.00  0.00     0.007 C 
ENDBRANCH  23  25
ENDBRANCH  21  23
BRANCH  22  27
HETATM   27  C   UNL     1      27.320  46.586  55.275  1.00  0.00     0.038 A 
HETATM   28  C   UNL     1      27.950  47.782  54.599  1.00  0.00     0.011 A 
HETATM   29  C   UNL     1      26.508  47.484  54.374  1.00  0.00     0.011 A 
ENDBRANCH  22  27
ENDBRANCH   1  18
TORSDOF 10
ENDMDL
MODEL 6
REMARK VINA RESULT:      -8.4      2.381      8.117
REMARK  10 active torsions:
REMARK  status: ('A' for Active; 'I' for Inactive)
REMARK    1  A    between atoms: C_2  and  C_3 
REMARK    2  A    between atoms: C_3  and  N_4 
REMARK    3  A    between atoms: C_7  and  C_8 
REMARK       I    between atoms: C_8  and  N_9 
REMARK    4  A    between atoms: N_9  and  C_10 
REMARK    5  A    between atoms: C_10  and  C_11 
REMARK    6  A    between atoms: C_11  and  O_12 
REMARK    7  A    between atoms: C_11  and  C_13 
REMARK    8  A    between atoms: C_13  and  O_14 
REMARK    9  A    between atoms: O_14  and  C_15 
REMARK   10  A    between atoms: C_23  and  C_24 
ROOT
HETATM    1  C   UNL     1      25.736  45.657  49.890  1.00  0.00     0.255 C 
HETATM    2  N   UNL     1      25.294  44.429  49.475  1.00  0.00    -0.354 N 
HETATM    3  O   UNL     1      26.749  45.813  50.563  1.00  0.00    -0.268 OA
HETATM    4  H   UNL     1      24.358  44.347  49.096  1.00  0.00     0.162 HD
ENDROOT
BRANCH   2   5
HETATM    5  C   UNL     1      26.048  43.208  49.691  1.00  0.00     0.156 C 
BRANCH   5   6
HETATM    6  C   UNL     1      25.723  42.523  51.021  1.00  0.00     0.160 C 
BRANCH   6   7
HETATM    7  O   UNL     1      24.461  43.014  51.506  1.00  0.00    -0.392 OA
HETATM    8  H   UNL     1      24.650  43.897  51.877  1.00  0.00     0.210 HD
ENDBRANCH   6   7
BRANCH   6   9
HETATM    9  C   UNL     1      26.804  42.720  52.090  1.00  0.00     0.209 C 
BRANCH   9  10
HETATM   10  O   UNL     1      26.278  43.675  53.025  1.00  0.00    -0.349 OA
BRANCH  10  11
HETATM   11  C   UNL     1      27.181  44.341  53.808  1.00  0.00     0.069 A 
HETATM   12  C   UNL     1      28.332  43.610  54.118  1.00  0.00     0.043 A 
HETATM   13  C   UNL     1      29.346  44.162  54.911  1.00  0.00    -0.059 A 
HETATM   14  C   UNL     1      30.581  43.378  55.242  1.00  0.00     0.048 C 
HETATM   15  C   UNL     1      29.185  45.459  55.409  1.00  0.00     0.007 A 
HETATM   16  C   UNL     1      28.034  46.189  55.109  1.00  0.00     0.003 A 
HETATM   17  C   UNL     1      27.033  45.633  54.308  1.00  0.00     0.037 A 
ENDBRANCH  10  11
ENDBRANCH   9  10
ENDBRANCH   6   9
ENDBRANCH   5   6
ENDBRANCH   2   5
BRANCH   1  18
HETATM   18  C   UNL     1      24.861  46.753  49.540  1.00  0.00     0.075 A 
HETATM   19  C   UNL     1      23.480  46.620  49.280  1.00  0.00     0.158 A 
HETATM   20  N   UNL     1      22.892  47.781  49.001  1.00  0.00    -0.183 NA
HETATM   21  N   UNL     1      23.871  48.690  49.181  1.00  0.00    -0.268 N 
HETATM   22  C   UNL     1      25.104  48.119  49.447  1.00  0.00     0.052 A 
BRANCH  21  23
HETATM   23  C   UNL     1      23.547  50.111  49.052  1.00  0.00     0.106 C 
HETATM   24  C   UNL     1      23.490  50.502  47.575  1.00  0.00     0.034 C 
BRANCH  23  25
HETATM   25  C   UNL     1      22.248  50.522  49.776  1.00  0.00     0.022 C 
HETATM   26  C   UNL     1      21.205  51.113  48.835  1.00  0.00     0.007 C 
ENDBRANCH  23  25
ENDBRANCH  21  23
BRANCH  22  27
HETATM   27  C   UNL     1      26.396  48.914  49.650  1.00  0.00     0.038 A 
HETATM   28  C   UNL     1      27.654  48.532  48.903  1.00  0.00     0.011 A 
HETATM   29  C   UNL     1      26.948  49.798  48.559  1.00  0.00     0.011 A 
ENDBRANCH  22  27
ENDBRANCH   1  18
TORSDOF 10
ENDMDL
MODEL 7
REMARK VINA RESULT:      -8.3     12.680     15.375
REMARK  10 active torsions:
REMARK  status: ('A' for Active; 'I' for Inactive)
REMARK    1  A    between atoms: C_2  and  C_3 
REMARK    2  A    between atoms: C_3  and  N_4 
REMARK    3  A    between atoms: C_7  and  C_8 
REMARK       I    between atoms: C_8  and  N_9 
REMARK    4  A    between atoms: N_9  and  C_10 
REMARK    5  A    between atoms: C_10  and  C_11 
REMARK    6  A    between atoms: C_11  and  O_12 
REMARK    7  A    between atoms: C_11  and  C_13 
REMARK    8  A    between atoms: C_13  and  O_14 
REMARK    9  A    between atoms: O_14  and  C_15 
REMARK   10  A    between atoms: C_23  and  C_24 
ROOT
HETATM    1  C   UNL     1      32.850  52.179  39.323  1.00  0.00     0.255 C 
HETATM    2  N   UNL     1      33.852  51.270  39.105  1.00  0.00    -0.354 N 
HETATM    3  O   UNL     1      33.051  53.307  39.758  1.00  0.00    -0.268 OA
HETATM    4  H   UNL     1      33.607  50.302  38.936  1.00  0.00     0.162 HD
ENDROOT
BRANCH   2   5
HETATM    5  C   UNL     1      35.257  51.600  39.254  1.00  0.00     0.156 C 
BRANCH   5   6
HETATM    6  C   UNL     1      35.994  50.681  40.231  1.00  0.00     0.160 C 
BRANCH   6   7
HETATM    7  O   UNL     1      36.358  49.467  39.551  1.00  0.00    -0.392 OA
HETATM    8  H   UNL     1      36.571  48.826  40.256  1.00  0.00     0.210 HD
ENDBRANCH   6   7
BRANCH   6   9
HETATM    9  C   UNL     1      35.183  50.349  41.489  1.00  0.00     0.209 C 
BRANCH   9  10
HETATM   10  O   UNL     1      34.487  49.124  41.210  1.00  0.00    -0.349 OA
BRANCH  10  11
HETATM   11  C   UNL     1      33.158  49.076  41.530  1.00  0.00     0.069 A 
HETATM   12  C   UNL     1      32.396  48.228  40.719  1.00  0.00     0.043 A 
HETATM   13  C   UNL     1      31.019  48.077  40.927  1.00  0.00    -0.059 A 
HETATM   14  C   UNL     1      30.203  47.167  40.058  1.00  0.00     0.048 C 
HETATM   15  C   UNL     1      30.406  48.803  41.953  1.00  0.00     0.007 A 
HETATM   16  C   UNL     1      31.161  49.655  42.760  1.00  0.00     0.003 A 
HETATM   17  C   UNL     1      32.536  49.791  42.551  1.00  0.00     0.037 A 
ENDBRANCH  10  11
ENDBRANCH   9  10
ENDBRANCH   6   9
ENDBRANCH   5   6
ENDBRANCH   2   5
BRANCH   1  18
HETATM   18  C   UNL     1      31.521  51.668  39.078  1.00  0.00     0.075 A 
HETATM   19  C   UNL     1      31.225  50.598  38.206  1.00  0.00     0.158 A 
HETATM   20  N   UNL     1      29.928  50.303  38.170  1.00  0.00    -0.183 NA
HETATM   21  N   UNL     1      29.387  51.114  39.101  1.00  0.00    -0.268 N 
HETATM   22  C   UNL     1      30.295  52.009  39.639  1.00  0.00     0.052 A 
BRANCH  21  23
HETATM   23  C   UNL     1      27.961  50.987  39.404  1.00  0.00     0.106 C 
HETATM   24  C   UNL     1      27.172  50.749  38.116  1.00  0.00     0.034 C 
BRANCH  23  25
HETATM   25  C   UNL     1      27.640  49.897  40.448  1.00  0.00     0.022 C 
HETATM   26  C   UNL     1      26.803  48.758  39.880  1.00  0.00     0.007 C 
ENDBRANCH  23  25
ENDBRANCH  21  23
BRANCH  22  27
HETATM   27  C   UNL     1      29.943  53.071  40.684  1.00  0.00     0.038 A 
HETATM   28  C   UNL     1      29.315  52.670  41.999  1.00  0.00     0.011 A 
HETATM   29  C   UNL     1      30.715  53.180  41.977  1.00  0.00     0.011 A 
ENDBRANCH  22  27
ENDBRANCH   1  18
TORSDOF 10
ENDMDL
MODEL 8
REMARK VINA RESULT:      -8.3     11.792     13.324
REMARK  10 active torsions:
REMARK  status: ('A' for Active; 'I' for Inactive)
REMARK    1  A    between atoms: C_2  and  C_3 
REMARK    2  A    between atoms: C_3  and  N_4 
REMARK    3  A    between atoms: C_7  and  C_8 
REMARK       I    between atoms: C_8  and  N_9 
REMARK    4  A    between atoms: N_9  and  C_10 
REMARK    5  A    between atoms: C_10  and  C_11 
REMARK    6  A    between atoms: C_11  and  O_12 
REMARK    7  A    between atoms: C_11  and  C_13 
REMARK    8  A    between atoms: C_13  and  O_14 
REMARK    9  A    between atoms: O_14  and  C_15 
REMARK   10  A    between atoms: C_23  and  C_24 
ROOT
HETATM    1  C   UNL     1      30.487  48.043  40.214  1.00  0.00     0.255 C 
HETATM    2  N   UNL     1      29.277  47.542  40.616  1.00  0.00    -0.354 N 
HETATM    3  O   UNL     1      31.029  47.723  39.162  1.00  0.00    -0.268 OA
HETATM    4  H   UNL     1      28.979  47.690  41.573  1.00  0.00     0.162 HD
ENDROOT
BRANCH   2   5
HETATM    5  C   UNL     1      28.467  46.679  39.778  1.00  0.00     0.156 C 
BRANCH   5   6
HETATM    6  C   UNL     1      26.968  46.980  39.867  1.00  0.00     0.160 C 
BRANCH   6   7
HETATM    7  O   UNL     1      26.444  47.151  38.539  1.00  0.00    -0.392 OA
HETATM    8  H   UNL     1      25.720  46.501  38.458  1.00  0.00     0.210 HD
ENDBRANCH   6   7
BRANCH   6   9
HETATM    9  C   UNL     1      26.642  48.213  40.718  1.00  0.00     0.209 C 
BRANCH   9  10
HETATM   10  O   UNL     1      26.575  49.324  39.811  1.00  0.00    -0.349 OA
BRANCH  10  11
HETATM   11  C   UNL     1      27.355  50.410  40.099  1.00  0.00     0.069 A 
HETATM   12  C   UNL     1      27.682  51.201  38.993  1.00  0.00     0.043 A 
HETATM   13  C   UNL     1      28.475  52.347  39.133  1.00  0.00    -0.059 A 
HETATM   14  C   UNL     1      28.824  53.194  37.946  1.00  0.00     0.048 C 
HETATM   15  C   UNL     1      28.955  52.686  40.402  1.00  0.00     0.007 A 
HETATM   16  C   UNL     1      28.638  51.897  41.508  1.00  0.00     0.003 A 
HETATM   17  C   UNL     1      27.837  50.761  41.359  1.00  0.00     0.037 A 
ENDBRANCH  10  11
ENDBRANCH   9  10
ENDBRANCH   6   9
ENDBRANCH   5   6
ENDBRANCH   2   5
BRANCH   1  18
HETATM   18  C   UNL     1      31.116  48.919  41.175  1.00  0.00     0.075 A 
HETATM   19  C   UNL     1      30.967  48.808  42.574  1.00  0.00     0.158 A 
HETATM   20  N   UNL     1      31.667  49.721  43.244  1.00  0.00    -0.183 NA
HETATM   21  N   UNL     1      32.358  50.366  42.283  1.00  0.00    -0.268 N 
HETATM   22  C   UNL     1      32.016  49.965  41.003  1.00  0.00     0.052 A 
BRANCH  21  23
HETATM   23  C   UNL     1      33.324  51.392  42.677  1.00  0.00     0.106 C 
HETATM   24  C   UNL     1      33.050  51.844  44.112  1.00  0.00     0.034 C 
BRANCH  23  25
HETATM   25  C   UNL     1      34.796  50.958  42.514  1.00  0.00     0.022 C 
HETATM   26  C   UNL     1      35.561  51.816  41.514  1.00  0.00     0.007 C 
ENDBRANCH  23  25
ENDBRANCH  21  23
BRANCH  22  27
HETATM   27  C   UNL     1      32.613  50.561  39.725  1.00  0.00     0.038 A 
HETATM   28  C   UNL     1      31.716  50.947  38.571  1.00  0.00     0.011 A 
HETATM   29  C   UNL     1      32.395  52.010  39.364  1.00  0.00     0.011 A 
ENDBRANCH  22  27
ENDBRANCH   1  18
TORSDOF 10
ENDMDL
MODEL 9
REMARK VINA RESULT:      -8.2      3.806      9.720
REMARK  10 active torsions:
REMARK  status: ('A' for Active; 'I' for Inactive)
REMARK    1  A    between atoms: C_2  and  C_3 
REMARK    2  A    between atoms: C_3  and  N_4 
REMARK    3  A    between atoms: C_7  and  C_8 
REMARK       I    between atoms: C_8  and  N_9 
REMARK    4  A    between atoms: N_9  and  C_10 
REMARK    5  A    between atoms: C_10  and  C_11 
REMARK    6  A    between atoms: C_11  and  O_12 
REMARK    7  A    between atoms: C_11  and  C_13 
REMARK    8  A    between atoms: C_13  and  O_14 
REMARK    9  A    between atoms: O_14  and  C_15 
REMARK   10  A    between atoms: C_23  and  C_24 
ROOT
HETATM    1  C   UNL     1      22.292  47.088  48.342  1.00  0.00     0.255 C 
HETATM    2  N   UNL     1      23.037  46.893  49.476  1.00  0.00    -0.354 N 
HETATM    3  O   UNL     1      22.507  46.497  47.289  1.00  0.00    -0.268 OA
HETATM    4  H   UNL     1      22.939  47.546  50.244  1.00  0.00     0.162 HD
ENDROOT
BRANCH   2   5
HETATM    5  C   UNL     1      24.073  45.882  49.571  1.00  0.00     0.156 C 
BRANCH   5   6
HETATM    6  C   UNL     1      25.477  46.467  49.744  1.00  0.00     0.160 C 
BRANCH   6   7
HETATM    7  O   UNL     1      26.447  45.420  49.563  1.00  0.00    -0.392 OA
HETATM    8  H   UNL     1      26.279  44.781  50.282  1.00  0.00     0.210 HD
ENDBRANCH   6   7
BRANCH   6   9
HETATM    9  C   UNL     1      25.693  47.147  51.102  1.00  0.00     0.209 C 
BRANCH   9  10
HETATM   10  O   UNL     1      25.585  46.114  52.093  1.00  0.00    -0.349 OA
BRANCH  10  11
HETATM   11  C   UNL     1      26.491  46.137  53.117  1.00  0.00     0.069 A 
HETATM   12  C   UNL     1      27.208  44.949  53.286  1.00  0.00     0.043 A 
HETATM   13  C   UNL     1      28.172  44.823  54.295  1.00  0.00    -0.059 A 
HETATM   14  C   UNL     1      28.940  43.548  54.474  1.00  0.00     0.048 C 
HETATM   15  C   UNL     1      28.399  45.906  55.151  1.00  0.00     0.007 A 
HETATM   16  C   UNL     1      27.682  47.092  54.991  1.00  0.00     0.003 A 
HETATM   17  C   UNL     1      26.729  47.210  53.974  1.00  0.00     0.037 A 
ENDBRANCH  10  11
ENDBRANCH   9  10
ENDBRANCH   6   9
ENDBRANCH   5   6
ENDBRANCH   2   5
BRANCH   1  18
HETATM   18  C   UNL     1      21.282  48.113  48.464  1.00  0.00     0.075 A 
HETATM   19  C   UNL     1      19.983  47.898  48.974  1.00  0.00     0.158 A 
HETATM   20  N   UNL     1      19.248  49.007  49.003  1.00  0.00    -0.183 NA
HETATM   21  N   UNL     1      20.104  49.971  48.609  1.00  0.00    -0.268 N 
HETATM   22  C   UNL     1      21.334  49.479  48.208  1.00  0.00     0.052 A 
BRANCH  21  23
HETATM   23  C   UNL     1      19.651  51.363  48.618  1.00  0.00     0.106 C 
HETATM   24  C   UNL     1      18.713  51.615  47.436  1.00  0.00     0.034 C 
BRANCH  23  25
HETATM   25  C   UNL     1      18.987  51.794  49.942  1.00  0.00     0.022 C 
HETATM   26  C   UNL     1      17.543  52.245  49.763  1.00  0.00     0.007 C 
ENDBRANCH  23  25
ENDBRANCH  21  23
BRANCH  22  27
HETATM   27  C   UNL     1      22.476  50.346  47.673  1.00  0.00     0.038 A 
HETATM   28  C   UNL     1      23.280  51.215  48.613  1.00  0.00     0.011 A 
HETATM   29  C   UNL     1      23.916  50.020  47.989  1.00  0.00     0.011 A 
ENDBRANCH  22  27
ENDBRANCH   1  18
TORSDOF 10
ENDMDL
MODEL 10
REMARK VINA RESULT:      -8.1      3.148      5.460
REMARK  10 active torsions:
REMARK  status: ('A' for Active; 'I' for Inactive)
REMARK    1  A    between atoms: C_2  and  C_3 
REMARK    2  A    between atoms: C_3  and  N_4 
REMARK    3  A    between atoms: C_7  and  C_8 
REMARK       I    between atoms: C_8  and  N_9 
REMARK    4  A    between atoms: N_9  and  C_10 
REMARK    5  A    between atoms: C_10  and  C_11 
REMARK    6  A    between atoms: C_11  and  O_12 
REMARK    7  A    between atoms: C_11  and  C_13 
REMARK    8  A    between atoms: C_13  and  O_14 
REMARK    9  A    between atoms: O_14  and  C_15 
REMARK   10  A    between atoms: C_23  and  C_24 
ROOT
HETATM    1  C   UNL     1      25.776  47.104  50.600  1.00  0.00     0.255 C 
HETATM    2  N   UNL     1      24.476  47.045  50.173  1.00  0.00    -0.354 N 
HETATM    3  O   UNL     1      26.415  48.149  50.662  1.00  0.00    -0.268 OA
HETATM    4  H   UNL     1      24.072  46.142  49.957  1.00  0.00     0.162 HD
ENDROOT
BRANCH   2   5
HETATM    5  C   UNL     1      23.695  48.229  49.868  1.00  0.00     0.156 C 
BRANCH   5   6
HETATM    6  C   UNL     1      22.966  48.146  48.525  1.00  0.00     0.160 C 
BRANCH   6   7
HETATM    7  O   UNL     1      23.515  49.131  47.631  1.00  0.00    -0.392 OA
HETATM    8  H   UNL     1      23.723  49.904  48.191  1.00  0.00     0.210 HD
ENDBRANCH   6   7
BRANCH   6   9
HETATM    9  C   UNL     1      21.449  48.334  48.639  1.00  0.00     0.209 C 
BRANCH   9  10
HETATM   10  O   UNL     1      21.246  49.592  49.299  1.00  0.00    -0.349 OA
BRANCH  10  11
HETATM   11  C   UNL     1      20.306  50.431  48.766  1.00  0.00     0.069 A 
HETATM   12  C   UNL     1      19.907  50.105  47.466  1.00  0.00     0.043 A 
HETATM   13  C   UNL     1      18.951  50.873  46.790  1.00  0.00    -0.059 A 
HETATM   14  C   UNL     1      18.524  50.521  45.396  1.00  0.00     0.048 C 
HETATM   15  C   UNL     1      18.406  51.990  47.429  1.00  0.00     0.007 A 
HETATM   16  C   UNL     1      18.805  52.324  48.724  1.00  0.00     0.003 A 
HETATM   17  C   UNL     1      19.753  51.545  49.394  1.00  0.00     0.037 A 
ENDBRANCH  10  11
ENDBRANCH   9  10
ENDBRANCH   6   9
ENDBRANCH   5   6
ENDBRANCH   2   5
BRANCH   1  18
HETATM   18  C   UNL     1      26.364  45.817  50.892  1.00  0.00     0.075 A 
HETATM   19  C   UNL     1      26.892  44.941  49.920  1.00  0.00     0.158 A 
HETATM   20  N   UNL     1      27.396  43.827  50.446  1.00  0.00    -0.183 NA
HETATM   21  N   UNL     1      27.292  44.023  51.775  1.00  0.00    -0.268 N 
HETATM   22  C   UNL     1      26.616  45.185  52.105  1.00  0.00     0.052 A 
BRANCH  21  23
HETATM   23  C   UNL     1      27.850  43.019  52.682  1.00  0.00     0.106 C 
HETATM   24  C   UNL     1      27.574  41.615  52.140  1.00  0.00     0.034 C 
BRANCH  23  25
HETATM   25  C   UNL     1      29.354  43.206  52.969  1.00  0.00     0.022 C 
HETATM   26  C   UNL     1      29.693  43.102  54.451  1.00  0.00     0.007 C 
ENDBRANCH  23  25
ENDBRANCH  21  23
BRANCH  22  27
HETATM   27  C   UNL     1      26.317  45.631  53.538  1.00  0.00     0.038 A 
HETATM   28  C   UNL     1      27.429  46.138  54.428  1.00  0.00     0.011 A 
HETATM   29  C   UNL     1      26.391  47.086  53.934  1.00  0.00     0.011 A 
ENDBRANCH  22  27
ENDBRANCH   1  18
TORSDOF 10
ENDMDL
