MODEL 1
REMARK VINA RESULT:      -9.4      0.000      0.000
REMARK  3 active torsions:
REMARK  status: ('A' for Active; 'I' for Inactive)
REMARK    1  A    between atoms: C_8  and  C_9 
REMARK    2  A    between atoms: C_9  and  N_10 
REMARK    3  A    between atoms: C_14  and  C_15 
ROOT
HETATM    1  N   UNL     1      25.511  46.369  51.577  1.00  0.00    -0.066 N 
HETATM    2  H   UNL     1      24.655  46.930  51.670  1.00  0.00     0.280 HD
HETATM    3  C   UNL     1      25.188  44.953  52.001  1.00  0.00     0.236 C 
HETATM    4  C   UNL     1      24.836  44.907  53.480  1.00  0.00     0.037 C 
HETATM    5  C   UNL     1      25.965  45.459  54.359  1.00  0.00     0.024 C 
HETATM    6  C   UNL     1      26.168  46.923  53.919  1.00  0.00     0.037 C 
HETATM    7  C   UNL     1      26.563  47.022  52.449  1.00  0.00     0.236 C 
ENDROOT
BRANCH   1   8
HETATM    8  C   UNL     1      25.874  46.393  50.103  1.00  0.00     0.293 C 
BRANCH   8   9
HETATM    9  C   UNL     1      25.795  47.738  49.508  1.00  0.00     0.061 A 
HETATM   10  N   UNL     1      24.617  48.392  49.183  1.00  0.00    -0.307 N 
HETATM   11  C   UNL     1      23.284  47.986  49.305  1.00  0.00     0.105 A 
HETATM   12  C   UNL     1      24.987  49.620  48.640  1.00  0.00     0.133 A 
HETATM   13  C   UNL     1      22.296  48.802  48.888  1.00  0.00    -0.046 A 
HETATM   14  C   UNL     1      20.839  48.463  48.974  1.00  0.00     0.049 C 
HETATM   15  C   UNL     1      22.661  50.098  48.321  1.00  0.00     0.012 A 
HETATM   16  C   UNL     1      23.946  50.485  48.206  1.00  0.00     0.051 A 
HETATM   17  N   UNL     1      26.293  49.764  48.625  1.00  0.00    -0.241 NA
HETATM   18  C   UNL     1      26.799  48.627  49.182  1.00  0.00     0.146 A 
ENDBRANCH   8   9
ENDBRANCH   1   8
BRANCH   5  19
HETATM   19  C   UNL     1      27.265  44.663  54.338  1.00  0.00    -0.024 A 
HETATM   20  C   UNL     1      28.497  44.875  55.064  1.00  0.00     0.018 A 
HETATM   21  C   UNL     1      29.352  43.826  54.731  1.00  0.00     0.138 A 
HETATM   22  C   UNL     1      29.018  45.818  55.973  1.00  0.00     0.017 A 
HETATM   23  N   UNL     1      30.584  43.574  55.204  1.00  0.00    -0.242 NA
HETATM   24  N   UNL     1      28.743  43.058  53.786  1.00  0.00    -0.350 N 
HETATM   25  C   UNL     1      31.020  44.499  56.080  1.00  0.00     0.119 A 
HETATM   26  C   UNL     1      30.303  45.613  56.485  1.00  0.00     0.020 A 
HETATM   27  H   UNL     1      29.186  42.264  53.344  1.00  0.00     0.166 HD
HETATM   28  C   UNL     1      27.495  43.556  53.529  1.00  0.00     0.098 A 
ENDBRANCH   5  19
TORSDOF 3
ENDMDL
MODEL 2
REMARK VINA RESULT:      -8.9     11.665     14.309
REMARK  3 active torsions:
REMARK  status: ('A' for Active; 'I' for Inactive)
REMARK    1  A    between atoms: C_8  and  C_9 
REMARK    2  A    between atoms: C_9  and  N_10 
REMARK    3  A    between atoms: C_14  and  C_15 
ROOT
HETATM    1  N   UNL     1      27.941  49.550  40.570  1.00  0.00    -0.066 N 
HETATM    2  H   UNL     1      26.969  49.355  40.298  1.00  0.00     0.280 HD
HETATM    3  C   UNL     1      27.923  50.665  41.592  1.00  0.00     0.236 C 
HETATM    4  C   UNL     1      27.416  51.954  40.964  1.00  0.00     0.037 C 
HETATM    5  C   UNL     1      28.261  52.380  39.758  1.00  0.00     0.024 C 
HETATM    6  C   UNL     1      28.154  51.229  38.737  1.00  0.00     0.037 C 
HETATM    7  C   UNL     1      28.688  49.919  39.306  1.00  0.00     0.236 C 
ENDROOT
BRANCH   1   8
HETATM    8  C   UNL     1      28.464  48.276  41.210  1.00  0.00     0.293 C 
BRANCH   8   9
HETATM    9  C   UNL     1      29.890  48.032  40.935  1.00  0.00     0.061 A 
HETATM   10  N   UNL     1      30.937  48.761  41.479  1.00  0.00    -0.307 N 
HETATM   11  C   UNL     1      30.932  49.850  42.356  1.00  0.00     0.105 A 
HETATM   12  C   UNL     1      32.107  48.217  40.954  1.00  0.00     0.133 A 
HETATM   13  C   UNL     1      32.097  50.415  42.727  1.00  0.00    -0.046 A 
HETATM   14  C   UNL     1      32.202  51.582  43.660  1.00  0.00     0.049 C 
HETATM   15  C   UNL     1      33.337  49.856  42.194  1.00  0.00     0.012 A 
HETATM   16  C   UNL     1      33.338  48.807  41.349  1.00  0.00     0.051 A 
HETATM   17  N   UNL     1      31.849  47.211  40.149  1.00  0.00    -0.241 NA
HETATM   18  C   UNL     1      30.494  47.069  40.152  1.00  0.00     0.146 A 
ENDBRANCH   8   9
ENDBRANCH   1   8
BRANCH   5  19
HETATM   19  C   UNL     1      29.708  52.748  40.065  1.00  0.00    -0.024 A 
HETATM   20  C   UNL     1      30.939  52.219  39.519  1.00  0.00     0.018 A 
HETATM   21  C   UNL     1      31.983  52.944  40.091  1.00  0.00     0.138 A 
HETATM   22  C   UNL     1      31.323  51.218  38.605  1.00  0.00     0.017 A 
HETATM   23  N   UNL     1      33.299  52.843  39.844  1.00  0.00    -0.242 NA
HETATM   24  N   UNL     1      31.458  53.803  41.008  1.00  0.00    -0.350 N 
HETATM   25  C   UNL     1      33.604  51.882  38.951  1.00  0.00     0.119 A 
HETATM   26  C   UNL     1      32.684  51.059  38.323  1.00  0.00     0.020 A 
HETATM   27  H   UNL     1      32.023  54.402  41.596  1.00  0.00     0.166 HD
HETATM   28  C   UNL     1      30.095  53.688  41.014  1.00  0.00     0.098 A 
ENDBRANCH   5  19
TORSDOF 3
ENDMDL
MODEL 3
REMARK VINA RESULT:      -8.7      1.171      2.001
REMARK  3 active torsions:
REMARK  status: ('A' for Active; 'I' for Inactive)
REMARK    1  A    between atoms: C_8  and  C_9 
REMARK    2  A    between atoms: C_9  and  N_10 
REMARK    3  A    between atoms: C_14  and  C_15 
ROOT
HETATM    1  N   UNL     1      25.261  46.394  51.813  1.00  0.00    -0.066 N 
HETATM    2  H   UNL     1      24.394  46.917  51.990  1.00  0.00     0.280 HD
HETATM    3  C   UNL     1      25.025  44.954  52.212  1.00  0.00     0.236 C 
HETATM    4  C   UNL     1      24.789  44.847  53.710  1.00  0.00     0.037 C 
HETATM    5  C   UNL     1      25.960  45.415  54.520  1.00  0.00     0.024 C 
HETATM    6  C   UNL     1      26.074  46.899  54.117  1.00  0.00     0.037 C 
HETATM    7  C   UNL     1      26.351  47.060  52.627  1.00  0.00     0.236 C 
ENDROOT
BRANCH   1   8
HETATM    8  C   UNL     1      25.509  46.479  50.318  1.00  0.00     0.293 C 
BRANCH   8   9
HETATM    9  C   UNL     1      24.278  46.364  49.519  1.00  0.00     0.061 A 
HETATM   10  N   UNL     1      23.550  47.437  49.027  1.00  0.00    -0.307 N 
HETATM   11  C   UNL     1      23.757  48.814  49.153  1.00  0.00     0.105 A 
HETATM   12  C   UNL     1      22.464  46.894  48.345  1.00  0.00     0.133 A 
HETATM   13  C   UNL     1      22.881  49.675  48.598  1.00  0.00    -0.046 A 
HETATM   14  C   UNL     1      23.010  51.166  48.674  1.00  0.00     0.049 C 
HETATM   15  C   UNL     1      21.738  49.127  47.873  1.00  0.00     0.012 A 
HETATM   16  C   UNL     1      21.543  47.800  47.753  1.00  0.00     0.051 A 
HETATM   17  N   UNL     1      22.486  45.580  48.375  1.00  0.00    -0.241 NA
HETATM   18  C   UNL     1      23.610  45.243  49.068  1.00  0.00     0.146 A 
ENDBRANCH   8   9
ENDBRANCH   1   8
BRANCH   5  19
HETATM   19  C   UNL     1      27.283  44.673  54.375  1.00  0.00    -0.024 A 
HETATM   20  C   UNL     1      28.529  44.843  55.089  1.00  0.00     0.018 A 
HETATM   21  C   UNL     1      29.406  43.869  54.615  1.00  0.00     0.138 A 
HETATM   22  C   UNL     1      29.045  45.692  56.088  1.00  0.00     0.017 A 
HETATM   23  N   UNL     1      30.659  43.608  55.024  1.00  0.00    -0.242 NA
HETATM   24  N   UNL     1      28.795  43.195  53.603  1.00  0.00    -0.350 N 
HETATM   25  C   UNL     1      31.091  44.440  55.990  1.00  0.00     0.119 A 
HETATM   26  C   UNL     1      30.351  45.474  56.540  1.00  0.00     0.020 A 
HETATM   27  H   UNL     1      29.250  42.473  53.060  1.00  0.00     0.166 HD
HETATM   28  C   UNL     1      27.525  43.675  53.436  1.00  0.00     0.098 A 
ENDBRANCH   5  19
TORSDOF 3
ENDMDL
MODEL 4
REMARK VINA RESULT:      -8.6      2.580      9.038
REMARK  3 active torsions:
REMARK  status: ('A' for Active; 'I' for Inactive)
REMARK    1  A    between atoms: C_8  and  C_9 
REMARK    2  A    between atoms: C_9  and  N_10 
REMARK    3  A    between atoms: C_14  and  C_15 
ROOT
HETATM    1  N   UNL     1      24.093  47.136  49.390  1.00  0.00    -0.066 N 
HETATM    2  H   UNL     1      24.844  47.003  48.701  1.00  0.00     0.280 HD
HETATM    3  C   UNL     1      22.940  46.239  48.999  1.00  0.00     0.236 C 
HETATM    4  C   UNL     1      22.348  46.680  47.669  1.00  0.00     0.037 C 
HETATM    5  C   UNL     1      21.872  48.136  47.704  1.00  0.00     0.024 C 
HETATM    6  C   UNL     1      23.121  48.983  48.023  1.00  0.00     0.037 C 
HETATM    7  C   UNL     1      23.730  48.606  49.369  1.00  0.00     0.236 C 
ENDROOT
BRANCH   1   8
HETATM    8  C   UNL     1      24.660  46.691  50.726  1.00  0.00     0.293 C 
BRANCH   8   9
HETATM    9  C   UNL     1      25.705  45.661  50.597  1.00  0.00     0.061 A 
HETATM   10  N   UNL     1      26.513  45.218  51.633  1.00  0.00    -0.307 N 
HETATM   11  C   UNL     1      26.567  45.604  52.977  1.00  0.00     0.105 A 
HETATM   12  C   UNL     1      27.364  44.261  51.086  1.00  0.00     0.133 A 
HETATM   13  C   UNL     1      27.472  45.037  53.799  1.00  0.00    -0.046 A 
HETATM   14  C   UNL     1      27.612  45.379  55.251  1.00  0.00     0.049 C 
HETATM   15  C   UNL     1      28.370  44.026  53.247  1.00  0.00     0.012 A 
HETATM   16  C   UNL     1      28.314  43.657  51.953  1.00  0.00     0.051 A 
HETATM   17  N   UNL     1      27.124  44.081  49.807  1.00  0.00    -0.241 NA
HETATM   18  C   UNL     1      26.089  44.913  49.501  1.00  0.00     0.146 A 
ENDBRANCH   8   9
ENDBRANCH   1   8
BRANCH   5  19
HETATM   19  C   UNL     1      20.717  48.429  48.654  1.00  0.00    -0.024 A 
HETATM   20  C   UNL     1      20.081  49.685  48.986  1.00  0.00     0.018 A 
HETATM   21  C   UNL     1      19.034  49.393  49.859  1.00  0.00     0.138 A 
HETATM   22  C   UNL     1      20.241  51.047  48.663  1.00  0.00     0.017 A 
HETATM   23  N   UNL     1      18.132  50.236  50.388  1.00  0.00    -0.242 NA
HETATM   24  N   UNL     1      19.066  48.061  50.139  1.00  0.00    -0.350 N 
HETATM   25  C   UNL     1      18.326  51.520  50.031  1.00  0.00     0.119 A 
HETATM   26  C   UNL     1      19.339  51.971  49.201  1.00  0.00     0.020 A 
HETATM   27  H   UNL     1      18.438  47.615  50.794  1.00  0.00     0.166 HD
HETATM   28  C   UNL     1      20.080  47.471  49.435  1.00  0.00     0.098 A 
ENDBRANCH   5  19
TORSDOF 3
ENDMDL
MODEL 5
REMARK VINA RESULT:      -8.6      1.776      8.555
REMARK  3 active torsions:
REMARK  status: ('A' for Active; 'I' for Inactive)
REMARK    1  A    between atoms: C_8  and  C_9 
REMARK    2  A    between atoms: C_9  and  N_10 
REMARK    3  A    between atoms: C_14  and  C_15 
ROOT
HETATM    1  N   UNL     1      26.599  45.066  51.535  1.00  0.00    -0.066 N 
HETATM    2  H   UNL     1      27.541  45.284  51.884  1.00  0.00     0.280 HD
HETATM    3  C   UNL     1      26.635  45.136  50.024  1.00  0.00     0.236 C 
HETATM    4  C   UNL     1      26.914  46.558  49.564  1.00  0.00     0.037 C 
HETATM    5  C   UNL     1      25.875  47.551  50.097  1.00  0.00     0.024 C 
HETATM    6  C   UNL     1      25.966  47.477  51.635  1.00  0.00     0.037 C 
HETATM    7  C   UNL     1      25.655  46.076  52.151  1.00  0.00     0.236 C 
ENDROOT
BRANCH   1   8
HETATM    8  C   UNL     1      26.305  43.643  51.976  1.00  0.00     0.293 C 
BRANCH   8   9
HETATM    9  C   UNL     1      27.496  42.931  52.470  1.00  0.00     0.061 A 
HETATM   10  N   UNL     1      28.327  43.386  53.482  1.00  0.00    -0.307 N 
HETATM   11  C   UNL     1      28.279  44.557  54.245  1.00  0.00     0.105 A 
HETATM   12  C   UNL     1      29.329  42.429  53.626  1.00  0.00     0.133 A 
HETATM   13  C   UNL     1      29.232  44.792  55.169  1.00  0.00    -0.046 A 
HETATM   14  C   UNL     1      29.272  46.013  56.037  1.00  0.00     0.049 C 
HETATM   15  C   UNL     1      30.289  43.799  55.341  1.00  0.00     0.012 A 
HETATM   16  C   UNL     1      30.331  42.673  54.605  1.00  0.00     0.051 A 
HETATM   17  N   UNL     1      29.161  41.428  52.792  1.00  0.00    -0.241 NA
HETATM   18  C   UNL     1      28.023  41.711  52.097  1.00  0.00     0.146 A 
ENDBRANCH   8   9
ENDBRANCH   1   8
BRANCH   5  19
HETATM   19  C   UNL     1      24.452  47.350  49.592  1.00  0.00    -0.024 A 
HETATM   20  C   UNL     1      23.493  48.315  49.101  1.00  0.00     0.018 A 
HETATM   21  C   UNL     1      22.362  47.602  48.706  1.00  0.00     0.138 A 
HETATM   22  C   UNL     1      23.422  49.711  48.926  1.00  0.00     0.017 A 
HETATM   23  N   UNL     1      21.239  48.070  48.137  1.00  0.00    -0.242 NA
HETATM   24  N   UNL     1      22.551  46.290  49.017  1.00  0.00    -0.350 N 
HETATM   25  C   UNL     1      21.236  49.408  47.982  1.00  0.00     0.119 A 
HETATM   26  C   UNL     1      22.267  50.255  48.354  1.00  0.00     0.020 A 
HETATM   27  H   UNL     1      21.847  45.578  48.877  1.00  0.00     0.166 HD
HETATM   28  C   UNL     1      23.794  46.124  49.562  1.00  0.00     0.098 A 
ENDBRANCH   5  19
TORSDOF 3
ENDMDL
MODEL 6
REMARK VINA RESULT:      -8.5     11.782     13.980
REMARK  3 active torsions:
REMARK  status: ('A' for Active; 'I' for Inactive)
REMARK    1  A    between atoms: C_8  and  C_9 
REMARK    2  A    between atoms: C_9  and  N_10 
REMARK    3  A    between atoms: C_14  and  C_15 
ROOT
HETATM    1  N   UNL     1      27.259  51.262  39.696  1.00  0.00    -0.066 N 
HETATM    2  H   UNL     1      26.460  51.906  39.630  1.00  0.00     0.280 HD
HETATM    3  C   UNL     1      27.999  51.569  40.979  1.00  0.00     0.236 C 
HETATM    4  C   UNL     1      28.608  52.961  40.923  1.00  0.00     0.037 C 
HETATM    5  C   UNL     1      29.559  53.127  39.732  1.00  0.00     0.024 C 
HETATM    6  C   UNL     1      28.707  52.883  38.470  1.00  0.00     0.037 C 
HETATM    7  C   UNL     1      28.104  51.482  38.459  1.00  0.00     0.236 C 
ENDROOT
BRANCH   1   8
HETATM    8  C   UNL     1      26.671  49.864  39.764  1.00  0.00     0.293 C 
BRANCH   8   9
HETATM    9  C   UNL     1      27.569  48.830  39.221  1.00  0.00     0.061 A 
HETATM   10  N   UNL     1      28.730  48.389  39.836  1.00  0.00    -0.307 N 
HETATM   11  C   UNL     1      29.332  48.779  41.036  1.00  0.00     0.105 A 
HETATM   12  C   UNL     1      29.280  47.427  38.991  1.00  0.00     0.133 A 
HETATM   13  C   UNL     1      30.495  48.212  41.416  1.00  0.00    -0.046 A 
HETATM   14  C   UNL     1      31.220  48.558  42.681  1.00  0.00     0.049 C 
HETATM   15  C   UNL     1      31.085  47.196  40.549  1.00  0.00     0.012 A 
HETATM   16  C   UNL     1      30.502  46.824  39.393  1.00  0.00     0.051 A 
HETATM   17  N   UNL     1      28.535  47.244  37.924  1.00  0.00    -0.241 NA
HETATM   18  C   UNL     1      27.467  48.079  38.068  1.00  0.00     0.146 A 
ENDBRANCH   8   9
ENDBRANCH   1   8
BRANCH   5  19
HETATM   19  C   UNL     1      30.810  52.257  39.762  1.00  0.00    -0.024 A 
HETATM   20  C   UNL     1      31.704  51.950  40.856  1.00  0.00     0.018 A 
HETATM   21  C   UNL     1      32.656  51.057  40.367  1.00  0.00     0.138 A 
HETATM   22  C   UNL     1      31.842  52.301  42.214  1.00  0.00     0.017 A 
HETATM   23  N   UNL     1      33.653  50.454  41.036  1.00  0.00    -0.242 NA
HETATM   24  N   UNL     1      32.441  50.888  39.033  1.00  0.00    -0.350 N 
HETATM   25  C   UNL     1      33.725  50.817  42.331  1.00  0.00     0.119 A 
HETATM   26  C   UNL     1      32.875  51.715  42.954  1.00  0.00     0.020 A 
HETATM   27  H   UNL     1      33.037  50.326  38.441  1.00  0.00     0.166 HD
HETATM   28  C   UNL     1      31.346  51.612  38.652  1.00  0.00     0.098 A 
ENDBRANCH   5  19
TORSDOF 3
ENDMDL
MODEL 7
REMARK VINA RESULT:      -8.4      4.029     10.612
REMARK  3 active torsions:
REMARK  status: ('A' for Active; 'I' for Inactive)
REMARK    1  A    between atoms: C_8  and  C_9 
REMARK    2  A    between atoms: C_9  and  N_10 
REMARK    3  A    between atoms: C_14  and  C_15 
ROOT
HETATM    1  N   UNL     1      20.861  48.924  49.650  1.00  0.00    -0.066 N 
HETATM    2  H   UNL     1      21.181  48.684  50.597  1.00  0.00     0.280 HD
HETATM    3  C   UNL     1      21.073  50.408  49.448  1.00  0.00     0.236 C 
HETATM    4  C   UNL     1      20.182  51.206  50.387  1.00  0.00     0.037 C 
HETATM    5  C   UNL     1      18.698  50.872  50.197  1.00  0.00     0.024 C 
HETATM    6  C   UNL     1      18.559  49.367  50.504  1.00  0.00     0.037 C 
HETATM    7  C   UNL     1      19.404  48.518  49.561  1.00  0.00     0.236 C 
ENDROOT
BRANCH   1   8
HETATM    8  C   UNL     1      21.746  48.143  48.695  1.00  0.00     0.293 C 
BRANCH   8   9
HETATM    9  C   UNL     1      23.029  48.812  48.417  1.00  0.00     0.061 A 
HETATM   10  N   UNL     1      24.238  48.484  49.013  1.00  0.00    -0.307 N 
HETATM   11  C   UNL     1      24.549  47.517  49.974  1.00  0.00     0.105 A 
HETATM   12  C   UNL     1      25.184  49.359  48.485  1.00  0.00     0.133 A 
HETATM   13  C   UNL     1      25.814  47.404  50.424  1.00  0.00    -0.046 A 
HETATM   14  C   UNL     1      26.252  46.404  51.450  1.00  0.00     0.049 C 
HETATM   15  C   UNL     1      26.825  48.308  49.879  1.00  0.00     0.012 A 
HETATM   16  C   UNL     1      26.521  49.237  48.954  1.00  0.00     0.051 A 
HETATM   17  N   UNL     1      24.646  50.177  47.610  1.00  0.00    -0.241 NA
HETATM   18  C   UNL     1      23.329  49.832  47.538  1.00  0.00     0.146 A 
ENDBRANCH   8   9
ENDBRANCH   1   8
BRANCH   5  19
HETATM   19  C   UNL     1      18.108  51.243  48.841  1.00  0.00    -0.024 A 
HETATM   20  C   UNL     1      17.027  50.634  48.099  1.00  0.00     0.018 A 
HETATM   21  C   UNL     1      16.844  51.396  46.946  1.00  0.00     0.138 A 
HETATM   22  C   UNL     1      16.159  49.533  48.244  1.00  0.00     0.017 A 
HETATM   23  N   UNL     1      15.917  51.243  45.986  1.00  0.00    -0.242 NA
HETATM   24  N   UNL     1      17.806  52.359  46.910  1.00  0.00    -0.350 N 
HETATM   25  C   UNL     1      15.108  50.185  46.187  1.00  0.00     0.119 A 
HETATM   26  C   UNL     1      15.185  49.317  47.263  1.00  0.00     0.020 A 
HETATM   27  H   UNL     1      17.916  53.006  46.141  1.00  0.00     0.166 HD
HETATM   28  C   UNL     1      18.582  52.272  48.033  1.00  0.00     0.098 A 
ENDBRANCH   5  19
TORSDOF 3
ENDMDL
MODEL 8
REMARK VINA RESULT:      -8.4      2.645      4.382
REMARK  3 active torsions:
REMARK  status: ('A' for Active; 'I' for Inactive)
REMARK    1  A    between atoms: C_8  and  C_9 
REMARK    2  A    between atoms: C_9  and  N_10 
REMARK    3  A    between atoms: C_14  and  C_15 
ROOT
HETATM    1  N   UNL     1      26.972  42.826  52.398  1.00  0.00    -0.066 N 
HETATM    2  H   UNL     1      27.058  42.060  51.717  1.00  0.00     0.280 HD
HETATM    3  C   UNL     1      27.967  43.900  52.019  1.00  0.00     0.236 C 
HETATM    4  C   UNL     1      29.390  43.385  52.171  1.00  0.00     0.037 C 
HETATM    5  C   UNL     1      29.679  42.901  53.597  1.00  0.00     0.024 C 
HETATM    6  C   UNL     1      28.682  41.756  53.866  1.00  0.00     0.037 C 
HETATM    7  C   UNL     1      27.237  42.231  53.765  1.00  0.00     0.236 C 
ENDROOT
BRANCH   1   8
HETATM    8  C   UNL     1      25.558  43.361  52.255  1.00  0.00     0.293 C 
BRANCH   8   9
HETATM    9  C   UNL     1      24.962  43.077  50.938  1.00  0.00     0.061 A 
HETATM   10  N   UNL     1      24.415  44.032  50.094  1.00  0.00    -0.307 N 
HETATM   11  C   UNL     1      24.276  45.415  50.250  1.00  0.00     0.105 A 
HETATM   12  C   UNL     1      23.956  43.346  48.973  1.00  0.00     0.133 A 
HETATM   13  C   UNL     1      23.676  46.139  49.284  1.00  0.00    -0.046 A 
HETATM   14  C   UNL     1      23.477  47.622  49.352  1.00  0.00     0.049 C 
HETATM   15  C   UNL     1      23.192  45.441  48.096  1.00  0.00     0.012 A 
HETATM   16  C   UNL     1      23.328  44.109  47.950  1.00  0.00     0.051 A 
HETATM   17  N   UNL     1      24.194  42.058  49.067  1.00  0.00    -0.241 NA
HETATM   18  C   UNL     1      24.838  41.884  50.256  1.00  0.00     0.146 A 
ENDBRANCH   8   9
ENDBRANCH   1   8
BRANCH   5  19
HETATM   19  C   UNL     1      29.634  43.974  54.678  1.00  0.00    -0.024 A 
HETATM   20  C   UNL     1      30.377  44.080  55.915  1.00  0.00     0.018 A 
HETATM   21  C   UNL     1      30.007  45.285  56.510  1.00  0.00     0.138 A 
HETATM   22  C   UNL     1      31.328  43.319  56.623  1.00  0.00     0.017 A 
HETATM   23  N   UNL     1      30.477  45.832  57.643  1.00  0.00    -0.242 NA
HETATM   24  N   UNL     1      29.026  45.854  55.756  1.00  0.00    -0.350 N 
HETATM   25  C   UNL     1      31.393  45.067  58.267  1.00  0.00     0.119 A 
HETATM   26  C   UNL     1      31.839  43.835  57.819  1.00  0.00     0.020 A 
HETATM   27  H   UNL     1      28.555  46.711  56.012  1.00  0.00     0.166 HD
HETATM   28  C   UNL     1      28.781  45.073  54.661  1.00  0.00     0.098 A 
ENDBRANCH   5  19
TORSDOF 3
ENDMDL
MODEL 9
REMARK VINA RESULT:      -8.3      3.284      5.192
REMARK  3 active torsions:
REMARK  status: ('A' for Active; 'I' for Inactive)
REMARK    1  A    between atoms: C_8  and  C_9 
REMARK    2  A    between atoms: C_9  and  N_10 
REMARK    3  A    between atoms: C_14  and  C_15 
ROOT
HETATM    1  N   UNL     1      28.677  41.799  51.626  1.00  0.00    -0.066 N 
HETATM    2  H   UNL     1      29.442  41.114  51.663  1.00  0.00     0.280 HD
HETATM    3  C   UNL     1      29.255  43.159  51.950  1.00  0.00     0.236 C 
HETATM    4  C   UNL     1      29.757  43.196  53.385  1.00  0.00     0.037 C 
HETATM    5  C   UNL     1      28.652  42.857  54.392  1.00  0.00     0.024 C 
HETATM    6  C   UNL     1      28.183  41.430  54.043  1.00  0.00     0.037 C 
HETATM    7  C   UNL     1      27.631  41.348  52.624  1.00  0.00     0.236 C 
ENDROOT
BRANCH   1   8
HETATM    8  C   UNL     1      28.168  41.786  50.195  1.00  0.00     0.293 C 
BRANCH   8   9
HETATM    9  C   UNL     1      26.714  41.999  50.096  1.00  0.00     0.061 A 
HETATM   10  N   UNL     1      26.077  43.216  50.285  1.00  0.00    -0.307 N 
HETATM   11  C   UNL     1      26.592  44.474  50.610  1.00  0.00     0.105 A 
HETATM   12  C   UNL     1      24.715  42.976  50.115  1.00  0.00     0.133 A 
HETATM   13  C   UNL     1      25.755  45.519  50.769  1.00  0.00    -0.046 A 
HETATM   14  C   UNL     1      26.204  46.905  51.117  1.00  0.00     0.049 C 
HETATM   15  C   UNL     1      24.324  45.291  50.589  1.00  0.00     0.012 A 
HETATM   16  C   UNL     1      23.832  44.078  50.276  1.00  0.00     0.051 A 
HETATM   17  N   UNL     1      24.483  41.716  49.825  1.00  0.00    -0.241 NA
HETATM   18  C   UNL     1      25.704  41.112  49.781  1.00  0.00     0.146 A 
ENDBRANCH   8   9
ENDBRANCH   1   8
BRANCH   5  19
HETATM   19  C   UNL     1      27.495  43.846  54.457  1.00  0.00    -0.024 A 
HETATM   20  C   UNL     1      27.506  45.281  54.640  1.00  0.00     0.018 A 
HETATM   21  C   UNL     1      26.183  45.712  54.561  1.00  0.00     0.138 A 
HETATM   22  C   UNL     1      28.462  46.292  54.858  1.00  0.00     0.017 A 
HETATM   23  N   UNL     1      25.712  46.969  54.617  1.00  0.00    -0.242 NA
HETATM   24  N   UNL     1      25.380  44.619  54.438  1.00  0.00    -0.350 N 
HETATM   25  C   UNL     1      26.674  47.892  54.811  1.00  0.00     0.119 A 
HETATM   26  C   UNL     1      28.025  47.618  54.942  1.00  0.00     0.020 A 
HETATM   27  H   UNL     1      24.371  44.669  54.416  1.00  0.00     0.166 HD
HETATM   28  C   UNL     1      26.151  43.490  54.388  1.00  0.00     0.098 A 
ENDBRANCH   5  19
TORSDOF 3
ENDMDL
MODEL 10
REMARK VINA RESULT:      -8.3      6.826     10.547
REMARK  3 active torsions:
REMARK  status: ('A' for Active; 'I' for Inactive)
REMARK    1  A    between atoms: C_8  and  C_9 
REMARK    2  A    between atoms: C_9  and  N_10 
REMARK    3  A    between atoms: C_14  and  C_15 
ROOT
HETATM    1  N   UNL     1      17.176  51.619  47.369  1.00  0.00    -0.066 N 
HETATM    2  H   UNL     1      16.612  52.456  47.562  1.00  0.00     0.280 HD
HETATM    3  C   UNL     1      16.908  50.615  48.469  1.00  0.00     0.236 C 
HETATM    4  C   UNL     1      17.413  51.139  49.804  1.00  0.00     0.037 C 
HETATM    5  C   UNL     1      18.909  51.469  49.766  1.00  0.00     0.024 C 
HETATM    6  C   UNL     1      19.078  52.555  48.685  1.00  0.00     0.037 C 
HETATM    7  C   UNL     1      18.622  52.064  47.315  1.00  0.00     0.236 C 
ENDROOT
BRANCH   1   8
HETATM    8  C   UNL     1      16.680  51.072  46.042  1.00  0.00     0.293 C 
BRANCH   8   9
HETATM    9  C   UNL     1      16.580  52.100  44.993  1.00  0.00     0.061 A 
HETATM   10  N   UNL     1      17.267  52.071  43.788  1.00  0.00    -0.307 N 
HETATM   11  C   UNL     1      18.180  51.142  43.281  1.00  0.00     0.105 A 
HETATM   12  C   UNL     1      16.900  53.226  43.101  1.00  0.00     0.133 A 
HETATM   13  C   UNL     1      18.744  51.349  42.074  1.00  0.00    -0.046 A 
HETATM   14  C   UNL     1      19.732  50.417  41.441  1.00  0.00     0.049 C 
HETATM   15  C   UNL     1      18.369  52.550  41.333  1.00  0.00     0.012 A 
HETATM   16  C   UNL     1      17.489  53.442  41.825  1.00  0.00     0.051 A 
HETATM   17  N   UNL     1      16.039  53.941  43.788  1.00  0.00    -0.241 NA
HETATM   18  C   UNL     1      15.812  53.246  44.938  1.00  0.00     0.146 A 
ENDBRANCH   8   9
ENDBRANCH   1   8
BRANCH   5  19
HETATM   19  C   UNL     1      19.839  50.282  49.544  1.00  0.00    -0.024 A 
HETATM   20  C   UNL     1      21.187  50.241  49.021  1.00  0.00     0.018 A 
HETATM   21  C   UNL     1      21.609  48.914  49.084  1.00  0.00     0.138 A 
HETATM   22  C   UNL     1      22.127  51.153  48.500  1.00  0.00     0.017 A 
HETATM   23  N   UNL     1      22.809  48.406  48.759  1.00  0.00    -0.242 NA
HETATM   24  N   UNL     1      20.568  48.153  49.521  1.00  0.00    -0.350 N 
HETATM   25  C   UNL     1      23.669  49.327  48.283  1.00  0.00     0.119 A 
HETATM   26  C   UNL     1      23.388  50.674  48.130  1.00  0.00     0.020 A 
HETATM   27  H   UNL     1      20.610  47.145  49.599  1.00  0.00     0.166 HD
HETATM   28  C   UNL     1      19.494  48.957  49.788  1.00  0.00     0.098 A 
ENDBRANCH   5  19
TORSDOF 3
ENDMDL
