MODEL 1
REMARK VINA RESULT:     -10.0      0.000      0.000
REMARK  4 active torsions:
REMARK  status: ('A' for Active; 'I' for Inactive)
REMARK    1  A    between atoms: C_7  and  C_8 
REMARK    2  A    between atoms: C_8  and  N_9 
REMARK    3  A    between atoms: N_15  and  C_17 
REMARK    4  A    between atoms: C_21  and  C_22 
ROOT
HETATM    1  N   UNL     1      25.375  46.151  50.083  1.00  0.00    -0.067 N 
HETATM    2  H   UNL     1      24.806  46.051  49.230  1.00  0.00     0.280 HD
HETATM    3  C   UNL     1      26.676  45.462  49.784  1.00  0.00     0.236 C 
HETATM    4  C   UNL     1      27.529  45.319  51.047  1.00  0.00     0.039 C 
HETATM    5  C   UNL     1      26.800  44.623  52.230  1.00  0.00    -0.013 C 
HETATM    6  C   UNL     1      26.566  43.108  51.979  1.00  0.00     0.245 C 
HETATM    7  N   UNL     1      27.866  42.339  51.964  1.00  0.00    -0.065 N 
HETATM    8  H   UNL     1      28.498  42.699  51.236  1.00  0.00     0.280 HD
HETATM    9  C   UNL     1      28.618  42.455  53.284  1.00  0.00     0.244 C 
HETATM   10  C   UNL     1      28.915  43.933  53.571  1.00  0.00     0.045 C 
HETATM   11  C   UNL     1      27.626  44.777  53.541  1.00  0.00     0.022 C 
HETATM   12  C   UNL     1      25.439  45.351  52.442  1.00  0.00     0.039 C 
HETATM   13  C   UNL     1      24.590  45.501  51.181  1.00  0.00     0.236 C 
ENDROOT
BRANCH   7  14
HETATM   14  C   UNL     1      27.637  40.890  51.632  1.00  0.00     0.188 A 
HETATM   15  C   UNL     1      28.130  40.418  50.293  1.00  0.00     0.035 A 
HETATM   16  C   UNL     1      28.855  40.016  51.546  1.00  0.00     0.035 A 
ENDBRANCH   7  14
BRANCH  10  17
HETATM   17  C   UNL     1      29.659  44.083  54.882  1.00  0.00    -0.052 A 
HETATM   18  C   UNL     1      29.460  45.231  55.666  1.00  0.00     0.007 A 
HETATM   19  C   UNL     1      30.153  45.404  56.866  1.00  0.00     0.001 A 
HETATM   20  C   UNL     1      31.053  44.435  57.299  1.00  0.00     0.000 A 
HETATM   21  C   UNL     1      31.258  43.290  56.536  1.00  0.00     0.001 A 
HETATM   22  C   UNL     1      30.567  43.112  55.337  1.00  0.00     0.007 A 
ENDBRANCH  10  17
BRANCH   1  23
HETATM   23  C   UNL     1      25.470  47.673  50.212  1.00  0.00     0.277 C 
BRANCH  23  24
HETATM   24  C   UNL     1      24.511  48.360  49.312  1.00  0.00     0.011 A 
HETATM   25  C   UNL     1      24.800  49.346  48.327  1.00  0.00     0.060 A 
HETATM   26  C   UNL     1      26.103  49.979  47.991  1.00  0.00     0.073 C 
HETATM   27  N   UNL     1      23.711  49.673  47.632  1.00  0.00    -0.178 NA
HETATM   28  N   UNL     1      22.709  49.014  48.227  1.00  0.00    -0.284 N 
HETATM   29  C   UNL     1      21.352  49.183  47.761  1.00  0.00     0.179 C 
HETATM   30  C   UNL     1      23.140  48.185  49.226  1.00  0.00     0.122 A 
ENDBRANCH  23  24
ENDBRANCH   1  23
TORSDOF 4
ENDMDL
MODEL 2
REMARK VINA RESULT:      -8.2      4.379     12.976
REMARK  4 active torsions:
REMARK  status: ('A' for Active; 'I' for Inactive)
REMARK    1  A    between atoms: C_7  and  C_8 
REMARK    2  A    between atoms: C_8  and  N_9 
REMARK    3  A    between atoms: N_15  and  C_17 
REMARK    4  A    between atoms: C_21  and  C_22 
ROOT
HETATM    1  N   UNL     1      21.942  49.224  49.323  1.00  0.00    -0.067 N 
HETATM    2  H   UNL     1      22.303  48.994  50.261  1.00  0.00     0.280 HD
HETATM    3  C   UNL     1      21.480  50.651  49.406  1.00  0.00     0.236 C 
HETATM    4  C   UNL     1      20.695  51.052  48.155  1.00  0.00     0.039 C 
HETATM    5  C   UNL     1      19.505  50.109  47.822  1.00  0.00    -0.013 C 
HETATM    6  C   UNL     1      18.336  50.242  48.837  1.00  0.00     0.245 C 
HETATM    7  N   UNL     1      17.660  51.588  48.733  1.00  0.00    -0.065 N 
HETATM    8  H   UNL     1      18.330  52.351  48.902  1.00  0.00     0.280 HD
HETATM    9  C   UNL     1      17.070  51.831  47.349  1.00  0.00     0.244 C 
HETATM   10  C   UNL     1      18.187  51.751  46.301  1.00  0.00     0.045 C 
HETATM   11  C   UNL     1      18.951  50.416  46.400  1.00  0.00     0.022 C 
HETATM   12  C   UNL     1      20.046  48.648  47.812  1.00  0.00     0.039 C 
HETATM   13  C   UNL     1      20.835  48.249  49.057  1.00  0.00     0.236 C 
ENDROOT
BRANCH   7  14
HETATM   14  C   UNL     1      16.589  51.741  49.778  1.00  0.00     0.188 A 
HETATM   15  C   UNL     1      16.238  53.145  50.185  1.00  0.00     0.035 A 
HETATM   16  C   UNL     1      15.291  52.350  49.332  1.00  0.00     0.035 A 
ENDBRANCH   7  14
BRANCH  10  17
HETATM   17  C   UNL     1      17.632  51.983  44.910  1.00  0.00    -0.052 A 
HETATM   18  C   UNL     1      17.976  51.104  43.870  1.00  0.00     0.007 A 
HETATM   19  C   UNL     1      17.497  51.312  42.575  1.00  0.00     0.001 A 
HETATM   20  C   UNL     1      16.670  52.397  42.301  1.00  0.00     0.000 A 
HETATM   21  C   UNL     1      16.316  53.274  43.321  1.00  0.00     0.001 A 
HETATM   22  C   UNL     1      16.792  53.070  44.618  1.00  0.00     0.007 A 
ENDBRANCH  10  17
BRANCH   1  23
HETATM   23  C   UNL     1      23.181  49.001  48.454  1.00  0.00     0.277 C 
BRANCH  23  24
HETATM   24  C   UNL     1      24.311  48.448  49.242  1.00  0.00     0.011 A 
HETATM   25  C   UNL     1      25.680  48.828  49.178  1.00  0.00     0.060 A 
HETATM   26  C   UNL     1      26.336  49.815  48.280  1.00  0.00     0.073 C 
HETATM   27  N   UNL     1      26.405  48.193  50.099  1.00  0.00    -0.178 NA
HETATM   28  N   UNL     1      25.559  47.326  50.669  1.00  0.00    -0.284 N 
HETATM   29  C   UNL     1      26.029  46.419  51.690  1.00  0.00     0.179 C 
HETATM   30  C   UNL     1      24.277  47.459  50.210  1.00  0.00     0.122 A 
ENDBRANCH  23  24
ENDBRANCH   1  23
TORSDOF 4
ENDMDL
MODEL 3
REMARK VINA RESULT:      -8.1      2.348      8.818
REMARK  4 active torsions:
REMARK  status: ('A' for Active; 'I' for Inactive)
REMARK    1  A    between atoms: C_7  and  C_8 
REMARK    2  A    between atoms: C_8  and  N_9 
REMARK    3  A    between atoms: N_15  and  C_17 
REMARK    4  A    between atoms: C_21  and  C_22 
ROOT
HETATM    1  N   UNL     1      26.561  44.012  52.232  1.00  0.00    -0.067 N 
HETATM    2  H   UNL     1      26.955  43.080  52.426  1.00  0.00     0.280 HD
HETATM    3  C   UNL     1      25.096  43.789  51.985  1.00  0.00     0.236 C 
HETATM    4  C   UNL     1      24.427  45.054  51.442  1.00  0.00     0.039 C 
HETATM    5  C   UNL     1      25.113  45.642  50.178  1.00  0.00    -0.013 C 
HETATM    6  C   UNL     1      24.904  44.756  48.919  1.00  0.00     0.245 C 
HETATM    7  N   UNL     1      23.461  44.752  48.475  1.00  0.00    -0.065 N 
HETATM    8  H   UNL     1      22.846  44.407  49.224  1.00  0.00     0.280 HD
HETATM    9  C   UNL     1      22.964  46.147  48.116  1.00  0.00     0.244 C 
HETATM   10  C   UNL     1      23.108  47.065  49.337  1.00  0.00     0.045 C 
HETATM   11  C   UNL     1      24.555  47.063  49.870  1.00  0.00     0.022 C 
HETATM   12  C   UNL     1      26.632  45.790  50.487  1.00  0.00     0.039 C 
HETATM   13  C   UNL     1      27.299  44.530  51.035  1.00  0.00     0.236 C 
ENDROOT
BRANCH   7  14
HETATM   14  C   UNL     1      23.253  43.822  47.311  1.00  0.00     0.188 A 
HETATM   15  C   UNL     1      22.551  42.524  47.599  1.00  0.00     0.035 A 
HETATM   16  C   UNL     1      21.837  43.616  46.854  1.00  0.00     0.035 A 
ENDBRANCH   7  14
BRANCH  10  17
HETATM   17  C   UNL     1      22.627  48.465  49.013  1.00  0.00    -0.052 A 
HETATM   18  C   UNL     1      23.563  49.496  48.833  1.00  0.00     0.007 A 
HETATM   19  C   UNL     1      23.143  50.799  48.557  1.00  0.00     0.001 A 
HETATM   20  C   UNL     1      21.786  51.090  48.459  1.00  0.00     0.000 A 
HETATM   21  C   UNL     1      20.846  50.078  48.630  1.00  0.00     0.001 A 
HETATM   22  C   UNL     1      21.261  48.774  48.904  1.00  0.00     0.007 A 
ENDBRANCH  10  17
BRANCH   1  23
HETATM   23  C   UNL     1      26.886  44.759  53.526  1.00  0.00     0.277 C 
BRANCH  23  24
HETATM   24  C   UNL     1      28.099  44.213  54.185  1.00  0.00     0.011 A 
HETATM   25  C   UNL     1      28.561  42.867  54.172  1.00  0.00     0.060 A 
HETATM   26  C   UNL     1      27.929  41.667  53.563  1.00  0.00     0.073 C 
HETATM   27  N   UNL     1      29.739  42.751  54.784  1.00  0.00    -0.178 NA
HETATM   28  N   UNL     1      29.986  43.964  55.294  1.00  0.00    -0.284 N 
HETATM   29  C   UNL     1      31.174  44.192  56.084  1.00  0.00     0.179 C 
HETATM   30  C   UNL     1      29.044  44.890  54.937  1.00  0.00     0.122 A 
ENDBRANCH  23  24
ENDBRANCH   1  23
TORSDOF 4
ENDMDL
MODEL 4
REMARK VINA RESULT:      -8.1      3.163      7.395
REMARK  4 active torsions:
REMARK  status: ('A' for Active; 'I' for Inactive)
REMARK    1  A    between atoms: C_7  and  C_8 
REMARK    2  A    between atoms: C_8  and  N_9 
REMARK    3  A    between atoms: N_15  and  C_17 
REMARK    4  A    between atoms: C_21  and  C_22 
ROOT
HETATM    1  N   UNL     1      26.216  40.245  48.859  1.00  0.00    -0.067 N 
HETATM    2  H   UNL     1      25.612  40.077  48.042  1.00  0.00     0.280 HD
HETATM    3  C   UNL     1      25.355  40.969  49.856  1.00  0.00     0.236 C 
HETATM    4  C   UNL     1      26.188  41.502  51.024  1.00  0.00     0.039 C 
HETATM    5  C   UNL     1      27.391  42.387  50.594  1.00  0.00    -0.013 C 
HETATM    6  C   UNL     1      26.945  43.764  50.027  1.00  0.00     0.245 C 
HETATM    7  N   UNL     1      26.330  44.633  51.098  1.00  0.00    -0.065 N 
HETATM    8  H   UNL     1      25.513  44.173  51.521  1.00  0.00     0.280 HD
HETATM    9  C   UNL     1      27.302  44.920  52.236  1.00  0.00     0.244 C 
HETATM   10  C   UNL     1      27.750  43.595  52.865  1.00  0.00     0.045 C 
HETATM   11  C   UNL     1      28.336  42.643  51.804  1.00  0.00     0.022 C 
HETATM   12  C   UNL     1      28.200  41.600  49.521  1.00  0.00     0.039 C 
HETATM   13  C   UNL     1      27.369  41.062  48.359  1.00  0.00     0.236 C 
ENDROOT
BRANCH   7  14
HETATM   14  C   UNL     1      25.822  45.927  50.523  1.00  0.00     0.188 A 
HETATM   15  C   UNL     1      24.340  46.166  50.602  1.00  0.00     0.035 A 
HETATM   16  C   UNL     1      25.274  46.931  51.496  1.00  0.00     0.035 A 
ENDBRANCH   7  14
BRANCH  10  17
HETATM   17  C   UNL     1      28.724  43.845  53.999  1.00  0.00    -0.052 A 
HETATM   18  C   UNL     1      28.628  45.029  54.747  1.00  0.00     0.007 A 
HETATM   19  C   UNL     1      29.530  45.293  55.781  1.00  0.00     0.001 A 
HETATM   20  C   UNL     1      30.536  44.381  56.081  1.00  0.00     0.000 A 
HETATM   21  C   UNL     1      30.641  43.200  55.353  1.00  0.00     0.001 A 
HETATM   22  C   UNL     1      29.742  42.931  54.319  1.00  0.00     0.007 A 
ENDBRANCH  10  17
BRANCH   1  23
HETATM   23  C   UNL     1      26.599  38.819  49.258  1.00  0.00     0.277 C 
BRANCH  23  24
HETATM   24  C   UNL     1      27.257  38.096  48.143  1.00  0.00     0.011 A 
HETATM   25  C   UNL     1      28.634  37.755  48.023  1.00  0.00     0.060 A 
HETATM   26  C   UNL     1      29.762  38.084  48.934  1.00  0.00     0.073 C 
HETATM   27  N   UNL     1      28.859  37.016  46.936  1.00  0.00    -0.178 NA
HETATM   28  N   UNL     1      27.685  36.977  46.294  1.00  0.00    -0.284 N 
HETATM   29  C   UNL     1      27.575  36.296  45.024  1.00  0.00     0.179 C 
HETATM   30  C   UNL     1      26.679  37.587  46.992  1.00  0.00     0.122 A 
ENDBRANCH  23  24
ENDBRANCH   1  23
TORSDOF 4
ENDMDL
MODEL 5
REMARK VINA RESULT:      -8.1      2.240      2.973
REMARK  4 active torsions:
REMARK  status: ('A' for Active; 'I' for Inactive)
REMARK    1  A    between atoms: C_7  and  C_8 
REMARK    2  A    between atoms: C_8  and  N_9 
REMARK    3  A    between atoms: N_15  and  C_17 
REMARK    4  A    between atoms: C_21  and  C_22 
ROOT
HETATM    1  N   UNL     1      23.615  43.862  48.960  1.00  0.00    -0.067 N 
HETATM    2  H   UNL     1      23.038  43.561  48.162  1.00  0.00     0.280 HD
HETATM    3  C   UNL     1      25.041  43.685  48.519  1.00  0.00     0.236 C 
HETATM    4  C   UNL     1      26.009  43.863  49.691  1.00  0.00     0.039 C 
HETATM    5  C   UNL     1      25.698  42.957  50.915  1.00  0.00    -0.013 C 
HETATM    6  C   UNL     1      25.997  41.457  50.639  1.00  0.00     0.245 C 
HETATM    7  N   UNL     1      27.478  41.206  50.478  1.00  0.00    -0.065 N 
HETATM    8  H   UNL     1      27.864  41.765  49.706  1.00  0.00     0.280 HD
HETATM    9  C   UNL     1      28.266  41.589  51.725  1.00  0.00     0.244 C 
HETATM   10  C   UNL     1      28.041  43.077  52.029  1.00  0.00     0.045 C 
HETATM   11  C   UNL     1      26.539  43.402  52.147  1.00  0.00     0.022 C 
HETATM   12  C   UNL     1      24.195  43.148  51.276  1.00  0.00     0.039 C 
HETATM   13  C   UNL     1      23.228  42.978  50.106  1.00  0.00     0.236 C 
ENDROOT
BRANCH   7  14
HETATM   14  C   UNL     1      27.750  39.770  50.124  1.00  0.00     0.188 A 
HETATM   15  C   UNL     1      28.776  39.521  49.054  1.00  0.00     0.035 A 
HETATM   16  C   UNL     1      29.102  39.228  50.491  1.00  0.00     0.035 A 
ENDBRANCH   7  14
BRANCH  10  17
HETATM   17  C   UNL     1      28.808  43.490  53.269  1.00  0.00    -0.052 A 
HETATM   18  C   UNL     1      29.946  42.764  53.655  1.00  0.00     0.007 A 
HETATM   19  C   UNL     1      30.655  43.110  54.807  1.00  0.00     0.001 A 
HETATM   20  C   UNL     1      30.238  44.184  55.588  1.00  0.00     0.000 A 
HETATM   21  C   UNL     1      29.115  44.917  55.216  1.00  0.00     0.001 A 
HETATM   22  C   UNL     1      28.404  44.575  54.065  1.00  0.00     0.007 A 
ENDBRANCH  10  17
BRANCH   1  23
HETATM   23  C   UNL     1      23.172  45.317  49.128  1.00  0.00     0.277 C 
BRANCH  23  24
HETATM   24  C   UNL     1      22.417  45.800  47.945  1.00  0.00     0.011 A 
HETATM   25  C   UNL     1      21.851  47.090  47.746  1.00  0.00     0.060 A 
HETATM   26  C   UNL     1      21.813  48.249  48.676  1.00  0.00     0.073 C 
HETATM   27  N   UNL     1      21.329  47.209  46.525  1.00  0.00    -0.178 NA
HETATM   28  N   UNL     1      21.437  45.990  45.982  1.00  0.00    -0.284 N 
HETATM   29  C   UNL     1      20.913  45.735  44.660  1.00  0.00     0.179 C 
HETATM   30  C   UNL     1      22.112  45.111  46.784  1.00  0.00     0.122 A 
ENDBRANCH  23  24
ENDBRANCH   1  23
TORSDOF 4
ENDMDL
MODEL 6
REMARK VINA RESULT:      -7.7      3.610      5.740
REMARK  4 active torsions:
REMARK  status: ('A' for Active; 'I' for Inactive)
REMARK    1  A    between atoms: C_7  and  C_8 
REMARK    2  A    between atoms: C_8  and  N_9 
REMARK    3  A    between atoms: N_15  and  C_17 
REMARK    4  A    between atoms: C_21  and  C_22 
ROOT
HETATM    1  N   UNL     1      25.589  43.291  50.936  1.00  0.00    -0.067 N 
HETATM    2  H   UNL     1      24.799  43.462  50.296  1.00  0.00     0.280 HD
HETATM    3  C   UNL     1      25.080  43.631  52.308  1.00  0.00     0.236 C 
HETATM    4  C   UNL     1      26.219  43.659  53.330  1.00  0.00     0.039 C 
HETATM    5  C   UNL     1      27.401  44.588  52.938  1.00  0.00    -0.013 C 
HETATM    6  C   UNL     1      27.028  46.095  53.020  1.00  0.00     0.245 C 
HETATM    7  N   UNL     1      26.793  46.532  54.446  1.00  0.00    -0.065 N 
HETATM    8  H   UNL     1      26.038  45.983  54.880  1.00  0.00     0.280 HD
HETATM    9  C   UNL     1      28.026  46.337  55.320  1.00  0.00     0.244 C 
HETATM   10  C   UNL     1      28.423  44.854  55.311  1.00  0.00     0.045 C 
HETATM   11  C   UNL     1      28.621  44.338  53.873  1.00  0.00     0.022 C 
HETATM   12  C   UNL     1      27.834  44.219  51.488  1.00  0.00     0.039 C 
HETATM   13  C   UNL     1      26.698  44.185  50.469  1.00  0.00     0.236 C 
ENDROOT
BRANCH   7  14
HETATM   14  C   UNL     1      26.346  47.967  54.508  1.00  0.00     0.188 A 
HETATM   15  C   UNL     1      25.989  48.506  55.865  1.00  0.00     0.035 A 
HETATM   16  C   UNL     1      27.266  48.933  55.199  1.00  0.00     0.035 A 
ENDBRANCH   7  14
BRANCH  10  17
HETATM   17  C   UNL     1      29.652  44.626  56.168  1.00  0.00    -0.052 A 
HETATM   18  C   UNL     1      30.575  43.632  55.806  1.00  0.00     0.007 A 
HETATM   19  C   UNL     1      31.702  43.386  56.594  1.00  0.00     0.001 A 
HETATM   20  C   UNL     1      31.922  44.127  57.751  1.00  0.00     0.000 A 
HETATM   21  C   UNL     1      31.018  45.119  58.120  1.00  0.00     0.001 A 
HETATM   22  C   UNL     1      29.891  45.369  57.336  1.00  0.00     0.007 A 
ENDBRANCH  10  17
BRANCH   1  23
HETATM   23  C   UNL     1      25.857  41.804  50.701  1.00  0.00     0.277 C 
BRANCH  23  24
HETATM   24  C   UNL     1      25.603  41.416  49.292  1.00  0.00     0.011 A 
HETATM   25  C   UNL     1      26.546  40.931  48.342  1.00  0.00     0.060 A 
HETATM   26  C   UNL     1      28.014  40.750  48.490  1.00  0.00     0.073 C 
HETATM   27  N   UNL     1      25.952  40.585  47.200  1.00  0.00    -0.178 NA
HETATM   28  N   UNL     1      24.673  40.949  47.350  1.00  0.00    -0.284 N 
HETATM   29  C   UNL     1      23.735  40.771  46.266  1.00  0.00     0.179 C 
HETATM   30  C   UNL     1      24.402  41.428  48.603  1.00  0.00     0.122 A 
ENDBRANCH  23  24
ENDBRANCH   1  23
TORSDOF 4
ENDMDL
MODEL 7
REMARK VINA RESULT:      -7.5     12.039     15.173
REMARK  4 active torsions:
REMARK  status: ('A' for Active; 'I' for Inactive)
REMARK    1  A    between atoms: C_7  and  C_8 
REMARK    2  A    between atoms: C_8  and  N_9 
REMARK    3  A    between atoms: N_15  and  C_17 
REMARK    4  A    between atoms: C_21  and  C_22 
ROOT
HETATM    1  N   UNL     1      33.899  51.514  42.026  1.00  0.00    -0.067 N 
HETATM    2  H   UNL     1      34.316  52.450  42.128  1.00  0.00     0.280 HD
HETATM    3  C   UNL     1      33.412  51.441  40.606  1.00  0.00     0.236 C 
HETATM    4  C   UNL     1      32.551  50.196  40.380  1.00  0.00     0.039 C 
HETATM    5  C   UNL     1      31.365  50.056  41.374  1.00  0.00    -0.013 C 
HETATM    6  C   UNL     1      30.251  51.111  41.128  1.00  0.00     0.245 C 
HETATM    7  N   UNL     1      29.542  50.876  39.815  1.00  0.00    -0.065 N 
HETATM    8  H   UNL     1      30.204  50.908  39.028  1.00  0.00     0.280 HD
HETATM    9  C   UNL     1      28.871  49.509  39.760  1.00  0.00     0.244 C 
HETATM   10  C   UNL     1      29.930  48.416  39.959  1.00  0.00     0.045 C 
HETATM   11  C   UNL     1      30.726  48.640  41.259  1.00  0.00     0.022 C 
HETATM   12  C   UNL     1      31.935  50.200  42.816  1.00  0.00     0.039 C 
HETATM   13  C   UNL     1      32.800  51.438  43.041  1.00  0.00     0.236 C 
ENDROOT
BRANCH   7  14
HETATM   14  C   UNL     1      28.528  51.953  39.544  1.00  0.00     0.188 A 
HETATM   15  C   UNL     1      28.760  52.809  38.330  1.00  0.00     0.035 A 
HETATM   16  C   UNL     1      27.666  51.780  38.327  1.00  0.00     0.035 A 
ENDBRANCH   7  14
BRANCH  10  17
HETATM   17  C   UNL     1      29.293  47.042  39.915  1.00  0.00    -0.052 A 
HETATM   18  C   UNL     1      29.849  46.046  39.095  1.00  0.00     0.007 A 
HETATM   19  C   UNL     1      29.265  44.780  39.019  1.00  0.00     0.001 A 
HETATM   20  C   UNL     1      28.122  44.491  39.757  1.00  0.00     0.000 A 
HETATM   21  C   UNL     1      27.562  45.465  40.578  1.00  0.00     0.001 A 
HETATM   22  C   UNL     1      28.142  46.732  40.658  1.00  0.00     0.007 A 
ENDBRANCH  10  17
BRANCH   1  23
HETATM   23  C   UNL     1      35.092  50.610  42.342  1.00  0.00     0.277 C 
BRANCH  23  24
HETATM   24  C   UNL     1      36.383  51.313  42.135  1.00  0.00     0.011 A 
HETATM   25  C   UNL     1      36.959  52.326  42.951  1.00  0.00     0.060 A 
HETATM   26  C   UNL     1      36.402  52.979  44.165  1.00  0.00     0.073 C 
HETATM   27  N   UNL     1      38.175  52.663  42.522  1.00  0.00    -0.178 NA
HETATM   28  N   UNL     1      38.343  51.979  41.383  1.00  0.00    -0.284 N 
HETATM   29  C   UNL     1      39.549  52.149  40.606  1.00  0.00     0.179 C 
HETATM   30  C   UNL     1      37.305  51.128  41.119  1.00  0.00     0.122 A 
ENDBRANCH  23  24
ENDBRANCH   1  23
TORSDOF 4
ENDMDL
MODEL 8
REMARK VINA RESULT:      -7.4      6.303     14.776
REMARK  4 active torsions:
REMARK  status: ('A' for Active; 'I' for Inactive)
REMARK    1  A    between atoms: C_7  and  C_8 
REMARK    2  A    between atoms: C_8  and  N_9 
REMARK    3  A    between atoms: N_15  and  C_17 
REMARK    4  A    between atoms: C_21  and  C_22 
ROOT
HETATM    1  N   UNL     1      19.813  50.465  49.164  1.00  0.00    -0.067 N 
HETATM    2  H   UNL     1      20.507  50.487  49.925  1.00  0.00     0.280 HD
HETATM    3  C   UNL     1      19.566  51.902  48.800  1.00  0.00     0.236 C 
HETATM    4  C   UNL     1      18.374  52.034  47.849  1.00  0.00     0.039 C 
HETATM    5  C   UNL     1      17.069  51.367  48.368  1.00  0.00    -0.013 C 
HETATM    6  C   UNL     1      16.446  52.131  49.570  1.00  0.00     0.245 C 
HETATM    7  N   UNL     1      15.920  53.484  49.156  1.00  0.00    -0.065 N 
HETATM    8  H   UNL     1      16.669  54.063  48.752  1.00  0.00     0.280 HD
HETATM    9  C   UNL     1      14.834  53.379  48.092  1.00  0.00     0.244 C 
HETATM   10  C   UNL     1      15.402  52.665  46.858  1.00  0.00     0.045 C 
HETATM   11  C   UNL     1      16.006  51.298  47.233  1.00  0.00     0.022 C 
HETATM   12  C   UNL     1      17.415  49.906  48.780  1.00  0.00     0.039 C 
HETATM   13  C   UNL     1      18.609  49.771  49.724  1.00  0.00     0.236 C 
ENDROOT
BRANCH   7  14
HETATM   14  C   UNL     1      15.400  54.251  50.341  1.00  0.00     0.188 A 
HETATM   15  C   UNL     1      15.439  55.751  50.245  1.00  0.00     0.035 A 
HETATM   16  C   UNL     1      14.129  55.025  50.141  1.00  0.00     0.035 A 
ENDBRANCH   7  14
BRANCH  10  17
HETATM   17  C   UNL     1      14.344  52.539  45.780  1.00  0.00    -0.052 A 
HETATM   18  C   UNL     1      14.248  51.352  45.037  1.00  0.00     0.007 A 
HETATM   19  C   UNL     1      13.298  51.221  44.022  1.00  0.00     0.001 A 
HETATM   20  C   UNL     1      12.432  52.272  43.736  1.00  0.00     0.000 A 
HETATM   21  C   UNL     1      12.510  53.454  44.467  1.00  0.00     0.001 A 
HETATM   22  C   UNL     1      13.458  53.588  45.483  1.00  0.00     0.007 A 
ENDBRANCH  10  17
BRANCH   1  23
HETATM   23  C   UNL     1      20.551  49.652  48.099  1.00  0.00     0.277 C 
BRANCH  23  24
HETATM   24  C   UNL     1      21.817  49.081  48.623  1.00  0.00     0.011 A 
HETATM   25  C   UNL     1      22.998  49.785  48.992  1.00  0.00     0.060 A 
HETATM   26  C   UNL     1      23.291  51.239  48.890  1.00  0.00     0.073 C 
HETATM   27  N   UNL     1      23.907  48.965  49.519  1.00  0.00    -0.178 NA
HETATM   28  N   UNL     1      23.388  47.739  49.386  1.00  0.00    -0.284 N 
HETATM   29  C   UNL     1      24.142  46.581  49.808  1.00  0.00     0.179 C 
HETATM   30  C   UNL     1      22.117  47.754  48.879  1.00  0.00     0.122 A 
ENDBRANCH  23  24
ENDBRANCH   1  23
TORSDOF 4
ENDMDL
MODEL 9
REMARK VINA RESULT:      -7.3     12.037     15.113
REMARK  4 active torsions:
REMARK  status: ('A' for Active; 'I' for Inactive)
REMARK    1  A    between atoms: C_7  and  C_8 
REMARK    2  A    between atoms: C_8  and  N_9 
REMARK    3  A    between atoms: N_15  and  C_17 
REMARK    4  A    between atoms: C_21  and  C_22 
ROOT
HETATM    1  N   UNL     1      33.808  51.629  42.145  1.00  0.00    -0.067 N 
HETATM    2  H   UNL     1      34.208  52.570  42.272  1.00  0.00     0.280 HD
HETATM    3  C   UNL     1      33.355  51.572  40.713  1.00  0.00     0.236 C 
HETATM    4  C   UNL     1      32.518  50.319  40.447  1.00  0.00     0.039 C 
HETATM    5  C   UNL     1      31.311  50.145  41.410  1.00  0.00    -0.013 C 
HETATM    6  C   UNL     1      30.188  51.188  41.155  1.00  0.00     0.245 C 
HETATM    7  N   UNL     1      29.513  50.963  39.823  1.00  0.00    -0.065 N 
HETATM    8  H   UNL     1      30.193  51.018  39.052  1.00  0.00     0.280 HD
HETATM    9  C   UNL     1      28.864  49.588  39.730  1.00  0.00     0.244 C 
HETATM   10  C   UNL     1      29.935  48.508  39.936  1.00  0.00     0.045 C 
HETATM   11  C   UNL     1      30.696  48.723  41.259  1.00  0.00     0.022 C 
HETATM   12  C   UNL     1      31.845  50.275  42.868  1.00  0.00     0.039 C 
HETATM   13  C   UNL     1      32.686  51.521  43.133  1.00  0.00     0.236 C 
ENDROOT
BRANCH   7  14
HETATM   14  C   UNL     1      28.490  52.030  39.545  1.00  0.00     0.188 A 
HETATM   15  C   UNL     1      28.746  52.920  38.361  1.00  0.00     0.035 A 
HETATM   16  C   UNL     1      27.671  51.873  38.296  1.00  0.00     0.035 A 
ENDBRANCH   7  14
BRANCH  10  17
HETATM   17  C   UNL     1      29.320  47.125  39.856  1.00  0.00    -0.052 A 
HETATM   18  C   UNL     1      28.178  46.828  40.616  1.00  0.00     0.007 A 
HETATM   19  C   UNL     1      27.608  45.553  40.577  1.00  0.00     0.001 A 
HETATM   20  C   UNL     1      28.170  44.560  39.781  1.00  0.00     0.000 A 
HETATM   21  C   UNL     1      29.300  44.840  39.018  1.00  0.00     0.001 A 
HETATM   22  C   UNL     1      29.872  46.113  39.052  1.00  0.00     0.007 A 
ENDBRANCH  10  17
BRANCH   1  23
HETATM   23  C   UNL     1      35.006  50.738  42.474  1.00  0.00     0.277 C 
BRANCH  23  24
HETATM   24  C   UNL     1      36.269  51.516  42.532  1.00  0.00     0.011 A 
HETATM   25  C   UNL     1      37.224  51.698  41.493  1.00  0.00     0.060 A 
HETATM   26  C   UNL     1      37.239  51.116  40.125  1.00  0.00     0.073 C 
HETATM   27  N   UNL     1      38.189  52.540  41.861  1.00  0.00    -0.178 NA
HETATM   28  N   UNL     1      37.944  52.807  43.149  1.00  0.00    -0.284 N 
HETATM   29  C   UNL     1      38.840  53.658  43.898  1.00  0.00     0.179 C 
HETATM   30  C   UNL     1      36.782  52.239  43.596  1.00  0.00     0.122 A 
ENDBRANCH  23  24
ENDBRANCH   1  23
TORSDOF 4
ENDMDL
MODEL 10
REMARK VINA RESULT:      -7.2      3.478      8.316
REMARK  4 active torsions:
REMARK  status: ('A' for Active; 'I' for Inactive)
REMARK    1  A    between atoms: C_7  and  C_8 
REMARK    2  A    between atoms: C_8  and  N_9 
REMARK    3  A    between atoms: N_15  and  C_17 
REMARK    4  A    between atoms: C_21  and  C_22 
ROOT
HETATM    1  N   UNL     1      27.792  43.887  53.406  1.00  0.00    -0.067 N 
HETATM    2  H   UNL     1      27.449  44.493  54.166  1.00  0.00     0.280 HD
HETATM    3  C   UNL     1      27.302  44.519  52.133  1.00  0.00     0.236 C 
HETATM    4  C   UNL     1      27.528  43.595  50.934  1.00  0.00     0.039 C 
HETATM    5  C   UNL     1      26.927  42.172  51.106  1.00  0.00    -0.013 C 
HETATM    6  C   UNL     1      25.374  42.171  51.064  1.00  0.00     0.245 C 
HETATM    7  N   UNL     1      24.855  42.526  49.691  1.00  0.00    -0.065 N 
HETATM    8  H   UNL     1      25.190  43.454  49.399  1.00  0.00     0.280 HD
HETATM    9  C   UNL     1      25.323  41.543  48.625  1.00  0.00     0.244 C 
HETATM   10  C   UNL     1      26.858  41.527  48.591  1.00  0.00     0.045 C 
HETATM   11  C   UNL     1      27.444  41.225  49.984  1.00  0.00     0.022 C 
HETATM   12  C   UNL     1      27.428  41.607  52.468  1.00  0.00     0.039 C 
HETATM   13  C   UNL     1      27.210  42.531  53.665  1.00  0.00     0.236 C 
ENDROOT
BRANCH   7  14
HETATM   14  C   UNL     1      23.353  42.610  49.682  1.00  0.00     0.188 A 
HETATM   15  C   UNL     1      22.752  43.983  49.802  1.00  0.00     0.035 A 
HETATM   16  C   UNL     1      22.718  43.260  48.486  1.00  0.00     0.035 A 
ENDBRANCH   7  14
BRANCH  10  17
HETATM   17  C   UNL     1      27.358  40.553  47.544  1.00  0.00    -0.052 A 
HETATM   18  C   UNL     1      27.216  40.865  46.182  1.00  0.00     0.007 A 
HETATM   19  C   UNL     1      27.646  39.973  45.198  1.00  0.00     0.001 A 
HETATM   20  C   UNL     1      28.223  38.759  45.559  1.00  0.00     0.000 A 
HETATM   21  C   UNL     1      28.376  38.437  46.904  1.00  0.00     0.001 A 
HETATM   22  C   UNL     1      27.948  39.327  47.891  1.00  0.00     0.007 A 
ENDBRANCH  10  17
BRANCH   1  23
HETATM   23  C   UNL     1      29.305  43.958  53.615  1.00  0.00     0.277 C 
BRANCH  23  24
HETATM   24  C   UNL     1      29.649  44.536  54.938  1.00  0.00     0.011 A 
HETATM   25  C   UNL     1      29.178  45.755  55.500  1.00  0.00     0.060 A 
HETATM   26  C   UNL     1      28.285  46.780  54.898  1.00  0.00     0.073 C 
HETATM   27  N   UNL     1      29.614  45.915  56.749  1.00  0.00    -0.178 NA
HETATM   28  N   UNL     1      30.451  44.892  56.958  1.00  0.00    -0.284 N 
HETATM   29  C   UNL     1      31.162  44.779  58.211  1.00  0.00     0.179 C 
HETATM   30  C   UNL     1      30.486  44.014  55.909  1.00  0.00     0.122 A 
ENDBRANCH  23  24
ENDBRANCH   1  23
TORSDOF 4
ENDMDL
