MODEL 1
REMARK VINA RESULT:      -8.9      0.000      0.000
REMARK  7 active torsions:
REMARK  status: ('A' for Active; 'I' for Inactive)
REMARK    1  A    between atoms: C_5  and  N_6 
REMARK    2  A    between atoms: N_6  and  C_9 
REMARK    3  A    between atoms: C_9  and  C_10 
REMARK    4  A    between atoms: C_10  and  C_11 
REMARK    5  A    between atoms: C_10  and  C_13 
REMARK    6  A    between atoms: C_11  and  O_12 
REMARK    7  A    between atoms: C_13  and  C_14 
ROOT
HETATM    1  N   UNL     1      26.964  43.933  52.174  1.00  0.00    -0.066 N 
HETATM    2  H   UNL     1      27.612  44.740  52.139  1.00  0.00     0.278 HD
HETATM    3  H   UNL     1      27.363  43.243  51.510  1.00  0.00     0.278 HD
ENDROOT
BRANCH   1   4
HETATM    4  C   UNL     1      27.025  43.467  53.576  1.00  0.00     0.220 C 
HETATM    5  C   UNL     1      27.761  44.450  54.435  1.00  0.00    -0.021 A 
HETATM    6  C   UNL     1      29.027  43.967  54.807  1.00  0.00    -0.040 A 
HETATM    7  C   UNL     1      27.334  45.715  54.817  1.00  0.00     0.010 A 
HETATM    8  C   UNL     1      29.876  44.727  55.611  1.00  0.00    -0.055 A 
HETATM    9  C   UNL     1      29.277  42.605  54.218  1.00  0.00     0.018 C 
HETATM   10  C   UNL     1      31.230  44.243  56.039  1.00  0.00     0.049 C 
HETATM   11  C   UNL     1      29.442  46.006  55.986  1.00  0.00     0.007 A 
HETATM   12  C   UNL     1      28.187  46.496  55.593  1.00  0.00     0.001 A 
HETATM   13  C   UNL     1      27.859  42.191  53.771  1.00  0.00     0.047 C 
HETATM   14  C   UNL     1      30.266  42.631  53.059  1.00  0.00     0.015 C 
ENDBRANCH   1   4
BRANCH   1  15
HETATM   15  C   UNL     1      25.669  44.428  51.640  1.00  0.00     0.240 C 
BRANCH  15  16
HETATM   16  C   UNL     1      25.892  45.505  50.557  1.00  0.00     0.040 C 
BRANCH  16  17
HETATM   17  C   UNL     1      27.054  45.102  49.636  1.00  0.00     0.170 C 
BRANCH  17  18
HETATM   18  O   UNL     1      26.867  43.757  49.197  1.00  0.00    -0.400 OA
HETATM   19  H   UNL     1      26.616  43.807  48.251  1.00  0.00     0.209 HD
ENDBRANCH  17  18
ENDBRANCH  16  17
BRANCH  16  20
HETATM   20  C   UNL     1      26.146  46.929  51.104  1.00  0.00     0.067 C 
BRANCH  20  21
HETATM   21  C   UNL     1      25.981  48.006  50.066  1.00  0.00     0.034 A 
HETATM   22  N   UNL     1      24.699  48.281  49.692  1.00  0.00    -0.266 NA
HETATM   23  C   UNL     1      24.538  49.249  48.755  1.00  0.00     0.117 A 
HETATM   24  C   UNL     1      25.585  49.925  48.151  1.00  0.00     0.019 A 
HETATM   25  C   UNL     1      26.881  49.607  48.535  1.00  0.00     0.003 A 
HETATM   26  C   UNL     1      27.089  48.634  49.506  1.00  0.00     0.027 A 
ENDBRANCH  20  21
ENDBRANCH  16  20
ENDBRANCH  15  16
ENDBRANCH   1  15
TORSDOF 7
ENDMDL
MODEL 2
REMARK VINA RESULT:      -7.9     12.287     14.275
REMARK  7 active torsions:
REMARK  status: ('A' for Active; 'I' for Inactive)
REMARK    1  A    between atoms: C_5  and  N_6 
REMARK    2  A    between atoms: N_6  and  C_9 
REMARK    3  A    between atoms: C_9  and  C_10 
REMARK    4  A    between atoms: C_10  and  C_11 
REMARK    5  A    between atoms: C_10  and  C_13 
REMARK    6  A    between atoms: C_11  and  O_12 
REMARK    7  A    between atoms: C_13  and  C_14 
ROOT
HETATM    1  N   UNL     1      31.943  48.768  41.333  1.00  0.00    -0.066 N 
HETATM    2  H   UNL     1      31.350  49.589  41.553  1.00  0.00     0.278 HD
HETATM    3  H   UNL     1      31.736  48.083  42.084  1.00  0.00     0.278 HD
ENDROOT
BRANCH   1   4
HETATM    4  C   UNL     1      31.472  48.312  40.008  1.00  0.00     0.220 C 
HETATM    5  C   UNL     1      30.965  49.465  39.195  1.00  0.00    -0.021 A 
HETATM    6  C   UNL     1      29.565  49.441  39.080  1.00  0.00    -0.040 A 
HETATM    7  C   UNL     1      31.714  50.492  38.636  1.00  0.00     0.010 A 
HETATM    8  C   UNL     1      28.888  50.425  38.360  1.00  0.00    -0.055 A 
HETATM    9  C   UNL     1      28.983  48.268  39.822  1.00  0.00     0.018 C 
HETATM   10  C   UNL     1      27.396  50.430  38.204  1.00  0.00     0.049 C 
HETATM   11  C   UNL     1      29.650  51.464  37.805  1.00  0.00     0.007 A 
HETATM   12  C   UNL     1      31.046  51.498  37.942  1.00  0.00     0.001 A 
HETATM   13  C   UNL     1      30.236  47.400  40.067  1.00  0.00     0.047 C 
HETATM   14  C   UNL     1      28.292  48.670  41.120  1.00  0.00     0.015 C 
ENDBRANCH   1   4
BRANCH   1  15
HETATM   15  C   UNL     1      33.347  49.232  41.473  1.00  0.00     0.240 C 
BRANCH  15  16
HETATM   16  C   UNL     1      33.404  50.740  41.795  1.00  0.00     0.040 C 
BRANCH  16  17
HETATM   17  C   UNL     1      34.738  51.091  42.472  1.00  0.00     0.170 C 
BRANCH  17  18
HETATM   18  O   UNL     1      34.505  52.031  43.520  1.00  0.00    -0.400 OA
HETATM   19  H   UNL     1      33.703  52.535  43.267  1.00  0.00     0.209 HD
ENDBRANCH  17  18
ENDBRANCH  16  17
BRANCH  16  20
HETATM   20  C   UNL     1      32.237  51.258  42.670  1.00  0.00     0.067 C 
BRANCH  20  21
HETATM   21  C   UNL     1      31.252  52.105  41.910  1.00  0.00     0.034 A 
HETATM   22  N   UNL     1      31.776  53.172  41.243  1.00  0.00    -0.266 NA
HETATM   23  C   UNL     1      30.897  53.944  40.555  1.00  0.00     0.117 A 
HETATM   24  C   UNL     1      29.530  53.727  40.528  1.00  0.00     0.019 A 
HETATM   25  C   UNL     1      29.022  52.645  41.237  1.00  0.00     0.003 A 
HETATM   26  C   UNL     1      29.891  51.818  41.939  1.00  0.00     0.027 A 
ENDBRANCH  20  21
ENDBRANCH  16  20
ENDBRANCH  15  16
ENDBRANCH   1  15
TORSDOF 7
ENDMDL
MODEL 3
REMARK VINA RESULT:      -7.8      1.528      2.001
REMARK  7 active torsions:
REMARK  status: ('A' for Active; 'I' for Inactive)
REMARK    1  A    between atoms: C_5  and  N_6 
REMARK    2  A    between atoms: N_6  and  C_9 
REMARK    3  A    between atoms: C_9  and  C_10 
REMARK    4  A    between atoms: C_10  and  C_11 
REMARK    5  A    between atoms: C_10  and  C_13 
REMARK    6  A    between atoms: C_11  and  O_12 
REMARK    7  A    between atoms: C_13  and  C_14 
ROOT
HETATM    1  N   UNL     1      27.330  44.216  52.256  1.00  0.00    -0.066 N 
HETATM    2  H   UNL     1      26.495  44.825  52.173  1.00  0.00     0.278 HD
HETATM    3  H   UNL     1      28.136  44.851  52.107  1.00  0.00     0.278 HD
ENDROOT
BRANCH   1   4
HETATM    4  C   UNL     1      27.272  43.692  53.637  1.00  0.00     0.220 C 
HETATM    5  C   UNL     1      28.060  44.558  54.572  1.00  0.00    -0.021 A 
HETATM    6  C   UNL     1      29.250  43.932  54.980  1.00  0.00    -0.040 A 
HETATM    7  C   UNL     1      27.745  45.845  54.990  1.00  0.00     0.010 A 
HETATM    8  C   UNL     1      30.130  44.567  55.856  1.00  0.00    -0.055 A 
HETATM    9  C   UNL     1      29.389  42.576  54.343  1.00  0.00     0.018 C 
HETATM   10  C   UNL     1      31.404  43.929  56.323  1.00  0.00     0.049 C 
HETATM   11  C   UNL     1      29.810  45.869  56.267  1.00  0.00     0.007 A 
HETATM   12  C   UNL     1      28.634  46.501  55.839  1.00  0.00     0.001 A 
HETATM   13  C   UNL     1      27.961  42.329  53.813  1.00  0.00     0.047 C 
HETATM   14  C   UNL     1      30.433  42.545  53.233  1.00  0.00     0.015 C 
ENDBRANCH   1   4
BRANCH   1  15
HETATM   15  C   UNL     1      27.249  43.259  51.123  1.00  0.00     0.240 C 
BRANCH  15  16
HETATM   16  C   UNL     1      25.823  43.215  50.534  1.00  0.00     0.040 C 
BRANCH  16  17
HETATM   17  C   UNL     1      25.378  41.760  50.324  1.00  0.00     0.170 C 
BRANCH  17  18
HETATM   18  O   UNL     1      25.971  40.933  51.325  1.00  0.00    -0.400 OA
HETATM   19  H   UNL     1      25.874  40.008  51.013  1.00  0.00     0.209 HD
ENDBRANCH  17  18
ENDBRANCH  16  17
BRANCH  16  20
HETATM   20  C   UNL     1      25.645  43.998  49.212  1.00  0.00     0.067 C 
BRANCH  20  21
HETATM   21  C   UNL     1      25.258  45.438  49.419  1.00  0.00     0.034 A 
HETATM   22  N   UNL     1      23.937  45.729  49.251  1.00  0.00    -0.266 NA
HETATM   23  C   UNL     1      23.576  47.024  49.434  1.00  0.00     0.117 A 
HETATM   24  C   UNL     1      24.465  48.041  49.737  1.00  0.00     0.019 A 
HETATM   25  C   UNL     1      25.809  47.719  49.878  1.00  0.00     0.003 A 
HETATM   26  C   UNL     1      26.217  46.400  49.718  1.00  0.00     0.027 A 
ENDBRANCH  20  21
ENDBRANCH  16  20
ENDBRANCH  15  16
ENDBRANCH   1  15
TORSDOF 7
ENDMDL
MODEL 4
REMARK VINA RESULT:      -7.7     11.925     14.412
REMARK  7 active torsions:
REMARK  status: ('A' for Active; 'I' for Inactive)
REMARK    1  A    between atoms: C_5  and  N_6 
REMARK    2  A    between atoms: N_6  and  C_9 
REMARK    3  A    between atoms: C_9  and  C_10 
REMARK    4  A    between atoms: C_10  and  C_11 
REMARK    5  A    between atoms: C_10  and  C_13 
REMARK    6  A    between atoms: C_11  and  O_12 
REMARK    7  A    between atoms: C_13  and  C_14 
ROOT
HETATM    1  N   UNL     1      28.486  49.266  38.965  1.00  0.00    -0.066 N 
HETATM    2  H   UNL     1      29.027  49.318  39.847  1.00  0.00     0.278 HD
HETATM    3  H   UNL     1      27.496  49.185  39.264  1.00  0.00     0.278 HD
ENDROOT
BRANCH   1   4
HETATM    4  C   UNL     1      28.767  50.545  38.280  1.00  0.00     0.220 C 
HETATM    5  C   UNL     1      30.106  51.084  38.680  1.00  0.00    -0.021 A 
HETATM    6  C   UNL     1      29.984  52.204  39.520  1.00  0.00    -0.040 A 
HETATM    7  C   UNL     1      31.352  50.570  38.346  1.00  0.00     0.010 A 
HETATM    8  C   UNL     1      31.113  52.862  40.007  1.00  0.00    -0.055 A 
HETATM    9  C   UNL     1      28.537  52.524  39.783  1.00  0.00     0.018 C 
HETATM   10  C   UNL     1      31.026  54.066  40.897  1.00  0.00     0.049 C 
HETATM   11  C   UNL     1      32.368  52.332  39.672  1.00  0.00     0.007 A 
HETATM   12  C   UNL     1      32.486  51.199  38.853  1.00  0.00     0.001 A 
HETATM   13  C   UNL     1      27.829  51.690  38.694  1.00  0.00     0.047 C 
HETATM   14  C   UNL     1      28.090  52.143  41.189  1.00  0.00     0.015 C 
ENDBRANCH   1   4
BRANCH   1  15
HETATM   15  C   UNL     1      28.900  47.998  38.310  1.00  0.00     0.240 C 
BRANCH  15  16
HETATM   16  C   UNL     1      29.792  47.156  39.247  1.00  0.00     0.040 C 
BRANCH  16  17
HETATM   17  C   UNL     1      29.532  45.658  39.025  1.00  0.00     0.170 C 
BRANCH  17  18
HETATM   18  O   UNL     1      28.785  45.138  40.125  1.00  0.00    -0.400 OA
HETATM   19  H   UNL     1      27.838  45.248  39.892  1.00  0.00     0.209 HD
ENDBRANCH  17  18
ENDBRANCH  16  17
BRANCH  16  20
HETATM   20  C   UNL     1      29.639  47.482  40.751  1.00  0.00     0.067 C 
BRANCH  20  21
HETATM   21  C   UNL     1      30.752  48.339  41.291  1.00  0.00     0.034 A 
HETATM   22  N   UNL     1      32.015  47.965  40.942  1.00  0.00    -0.266 NA
HETATM   23  C   UNL     1      33.026  48.730  41.424  1.00  0.00     0.117 A 
HETATM   24  C   UNL     1      32.845  49.819  42.260  1.00  0.00     0.019 A 
HETATM   25  C   UNL     1      31.548  50.162  42.619  1.00  0.00     0.003 A 
HETATM   26  C   UNL     1      30.481  49.416  42.130  1.00  0.00     0.027 A 
ENDBRANCH  20  21
ENDBRANCH  16  20
ENDBRANCH  15  16
ENDBRANCH   1  15
TORSDOF 7
ENDMDL
MODEL 5
REMARK VINA RESULT:      -7.7      2.734      4.809
REMARK  7 active torsions:
REMARK  status: ('A' for Active; 'I' for Inactive)
REMARK    1  A    between atoms: C_5  and  N_6 
REMARK    2  A    between atoms: N_6  and  C_9 
REMARK    3  A    between atoms: C_9  and  C_10 
REMARK    4  A    between atoms: C_10  and  C_11 
REMARK    5  A    between atoms: C_10  and  C_13 
REMARK    6  A    between atoms: C_11  and  O_12 
REMARK    7  A    between atoms: C_13  and  C_14 
ROOT
HETATM    1  N   UNL     1      27.229  44.540  52.068  1.00  0.00    -0.066 N 
HETATM    2  H   UNL     1      26.280  44.896  51.853  1.00  0.00     0.278 HD
HETATM    3  H   UNL     1      27.837  45.381  52.055  1.00  0.00     0.278 HD
ENDROOT
BRANCH   1   4
HETATM    4  C   UNL     1      27.109  43.952  53.418  1.00  0.00     0.220 C 
HETATM    5  C   UNL     1      27.906  44.736  54.416  1.00  0.00    -0.021 A 
HETATM    6  C   UNL     1      29.056  44.040  54.824  1.00  0.00    -0.040 A 
HETATM    7  C   UNL     1      27.634  46.013  54.890  1.00  0.00     0.010 A 
HETATM    8  C   UNL     1      29.937  44.591  55.754  1.00  0.00    -0.055 A 
HETATM    9  C   UNL     1      29.157  42.711  54.124  1.00  0.00     0.018 C 
HETATM   10  C   UNL     1      31.169  43.876  56.222  1.00  0.00     0.049 C 
HETATM   11  C   UNL     1      29.661  45.885  56.221  1.00  0.00     0.007 A 
HETATM   12  C   UNL     1      28.525  46.588  55.794  1.00  0.00     0.001 A 
HETATM   13  C   UNL     1      27.735  42.553  53.544  1.00  0.00     0.047 C 
HETATM   14  C   UNL     1      30.230  42.689  53.042  1.00  0.00     0.015 C 
ENDBRANCH   1   4
BRANCH   1  15
HETATM   15  C   UNL     1      27.598  43.657  50.932  1.00  0.00     0.240 C 
BRANCH  15  16
HETATM   16  C   UNL     1      26.730  43.955  49.692  1.00  0.00     0.040 C 
BRANCH  16  17
HETATM   17  C   UNL     1      25.859  45.197  49.938  1.00  0.00     0.170 C 
BRANCH  17  18
HETATM   18  O   UNL     1      26.625  46.372  49.676  1.00  0.00    -0.400 OA
HETATM   19  H   UNL     1      27.513  46.067  49.393  1.00  0.00     0.209 HD
ENDBRANCH  17  18
ENDBRANCH  16  17
BRANCH  16  20
HETATM   20  C   UNL     1      25.828  42.783  49.237  1.00  0.00     0.067 C 
BRANCH  20  21
HETATM   21  C   UNL     1      26.587  41.506  48.995  1.00  0.00     0.034 A 
HETATM   22  N   UNL     1      27.594  41.577  48.079  1.00  0.00    -0.266 NA
HETATM   23  C   UNL     1      28.285  40.432  47.850  1.00  0.00     0.117 A 
HETATM   24  C   UNL     1      28.001  39.221  48.459  1.00  0.00     0.019 A 
HETATM   25  C   UNL     1      26.953  39.173  49.370  1.00  0.00     0.003 A 
HETATM   26  C   UNL     1      26.233  40.329  49.647  1.00  0.00     0.027 A 
ENDBRANCH  20  21
ENDBRANCH  16  20
ENDBRANCH  15  16
ENDBRANCH   1  15
TORSDOF 7
ENDMDL
MODEL 6
REMARK VINA RESULT:      -7.2      5.354     10.624
REMARK  7 active torsions:
REMARK  status: ('A' for Active; 'I' for Inactive)
REMARK    1  A    between atoms: C_5  and  N_6 
REMARK    2  A    between atoms: N_6  and  C_9 
REMARK    3  A    between atoms: C_9  and  C_10 
REMARK    4  A    between atoms: C_10  and  C_11 
REMARK    5  A    between atoms: C_10  and  C_13 
REMARK    6  A    between atoms: C_11  and  O_12 
REMARK    7  A    between atoms: C_13  and  C_14 
ROOT
HETATM    1  N   UNL     1      20.367  48.838  49.874  1.00  0.00    -0.066 N 
HETATM    2  H   UNL     1      20.538  49.588  50.567  1.00  0.00     0.278 HD
HETATM    3  H   UNL     1      20.594  47.958  50.373  1.00  0.00     0.278 HD
ENDROOT
BRANCH   1   4
HETATM    4  C   UNL     1      18.928  48.949  49.552  1.00  0.00     0.220 C 
HETATM    5  C   UNL     1      18.707  48.924  48.070  1.00  0.00    -0.021 A 
HETATM    6  C   UNL     1      18.343  50.189  47.579  1.00  0.00    -0.040 A 
HETATM    7  C   UNL     1      18.870  47.841  47.216  1.00  0.00     0.010 A 
HETATM    8  C   UNL     1      18.088  50.385  46.222  1.00  0.00    -0.055 A 
HETATM    9  C   UNL     1      18.295  51.204  48.689  1.00  0.00     0.018 C 
HETATM   10  C   UNL     1      17.686  51.716  45.660  1.00  0.00     0.049 C 
HETATM   11  C   UNL     1      18.262  49.289  45.364  1.00  0.00     0.007 A 
HETATM   12  C   UNL     1      18.649  48.033  45.854  1.00  0.00     0.001 A 
HETATM   13  C   UNL     1      18.307  50.301  49.941  1.00  0.00     0.047 C 
HETATM   14  C   UNL     1      19.473  52.171  48.660  1.00  0.00     0.015 C 
ENDBRANCH   1   4
BRANCH   1  15
HETATM   15  C   UNL     1      21.361  49.052  48.790  1.00  0.00     0.240 C 
BRANCH  15  16
HETATM   16  C   UNL     1      22.623  49.759  49.327  1.00  0.00     0.040 C 
BRANCH  16  17
HETATM   17  C   UNL     1      22.250  51.112  49.953  1.00  0.00     0.170 C 
BRANCH  17  18
HETATM   18  O   UNL     1      22.097  50.957  51.363  1.00  0.00    -0.400 OA
HETATM   19  H   UNL     1      21.149  50.756  51.518  1.00  0.00     0.209 HD
ENDBRANCH  17  18
ENDBRANCH  16  17
BRANCH  16  20
HETATM   20  C   UNL     1      23.740  49.973  48.278  1.00  0.00     0.067 C 
BRANCH  20  21
HETATM   21  C   UNL     1      25.079  49.445  48.717  1.00  0.00     0.034 A 
HETATM   22  N   UNL     1      25.049  48.412  49.607  1.00  0.00    -0.266 NA
HETATM   23  C   UNL     1      26.250  47.929  50.011  1.00  0.00     0.117 A 
HETATM   24  C   UNL     1      27.470  48.442  49.602  1.00  0.00     0.019 A 
HETATM   25  C   UNL     1      27.469  49.510  48.714  1.00  0.00     0.003 A 
HETATM   26  C   UNL     1      26.259  50.023  48.260  1.00  0.00     0.027 A 
ENDBRANCH  20  21
ENDBRANCH  16  20
ENDBRANCH  15  16
ENDBRANCH   1  15
TORSDOF 7
ENDMDL
MODEL 7
REMARK VINA RESULT:      -7.2     11.519     14.423
REMARK  7 active torsions:
REMARK  status: ('A' for Active; 'I' for Inactive)
REMARK    1  A    between atoms: C_5  and  N_6 
REMARK    2  A    between atoms: N_6  and  C_9 
REMARK    3  A    between atoms: C_9  and  C_10 
REMARK    4  A    between atoms: C_10  and  C_11 
REMARK    5  A    between atoms: C_10  and  C_13 
REMARK    6  A    between atoms: C_11  and  O_12 
REMARK    7  A    between atoms: C_13  and  C_14 
ROOT
HETATM    1  N   UNL     1      27.865  51.949  39.017  1.00  0.00    -0.066 N 
HETATM    2  H   UNL     1      27.004  52.525  39.039  1.00  0.00     0.278 HD
HETATM    3  H   UNL     1      27.769  51.360  38.169  1.00  0.00     0.278 HD
ENDROOT
BRANCH   1   4
HETATM    4  C   UNL     1      28.966  52.928  38.903  1.00  0.00     0.220 C 
HETATM    5  C   UNL     1      30.291  52.234  38.801  1.00  0.00    -0.021 A 
HETATM    6  C   UNL     1      31.039  52.370  39.982  1.00  0.00    -0.040 A 
HETATM    7  C   UNL     1      30.768  51.490  37.729  1.00  0.00     0.010 A 
HETATM    8  C   UNL     1      32.307  51.800  40.097  1.00  0.00    -0.055 A 
HETATM    9  C   UNL     1      30.281  53.164  41.011  1.00  0.00     0.018 C 
HETATM   10  C   UNL     1      33.142  51.931  41.336  1.00  0.00     0.049 C 
HETATM   11  C   UNL     1      32.779  51.044  39.014  1.00  0.00     0.007 A 
HETATM   12  C   UNL     1      32.019  50.889  37.846  1.00  0.00     0.001 A 
HETATM   13  C   UNL     1      29.160  53.794  40.158  1.00  0.00     0.047 C 
HETATM   14  C   UNL     1      29.734  52.301  42.142  1.00  0.00     0.015 C 
ENDBRANCH   1   4
BRANCH   1  15
HETATM   15  C   UNL     1      27.801  51.080  40.221  1.00  0.00     0.240 C 
BRANCH  15  16
HETATM   16  C   UNL     1      27.778  49.588  39.828  1.00  0.00     0.040 C 
BRANCH  16  17
HETATM   17  C   UNL     1      26.406  49.212  39.246  1.00  0.00     0.170 C 
BRANCH  17  18
HETATM   18  O   UNL     1      25.447  50.204  39.612  1.00  0.00    -0.400 OA
HETATM   19  H   UNL     1      25.116  49.954  40.500  1.00  0.00     0.209 HD
ENDBRANCH  17  18
ENDBRANCH  16  17
BRANCH  16  20
HETATM   20  C   UNL     1      28.129  48.612  40.975  1.00  0.00     0.067 C 
BRANCH  20  21
HETATM   21  C   UNL     1      29.610  48.464  41.200  1.00  0.00     0.034 A 
HETATM   22  N   UNL     1      30.066  48.847  42.426  1.00  0.00    -0.266 NA
HETATM   23  C   UNL     1      31.400  48.720  42.641  1.00  0.00     0.117 A 
HETATM   24  C   UNL     1      32.298  48.267  41.689  1.00  0.00     0.019 A 
HETATM   25  C   UNL     1      31.808  47.906  40.441  1.00  0.00     0.003 A 
HETATM   26  C   UNL     1      30.444  48.003  40.187  1.00  0.00     0.027 A 
ENDBRANCH  20  21
ENDBRANCH  16  20
ENDBRANCH  15  16
ENDBRANCH   1  15
TORSDOF 7
ENDMDL
MODEL 8
REMARK VINA RESULT:      -7.2     11.854     14.274
REMARK  7 active torsions:
REMARK  status: ('A' for Active; 'I' for Inactive)
REMARK    1  A    between atoms: C_5  and  N_6 
REMARK    2  A    between atoms: N_6  and  C_9 
REMARK    3  A    between atoms: C_9  and  C_10 
REMARK    4  A    between atoms: C_10  and  C_11 
REMARK    5  A    between atoms: C_10  and  C_13 
REMARK    6  A    between atoms: C_11  and  O_12 
REMARK    7  A    between atoms: C_13  and  C_14 
ROOT
HETATM    1  N   UNL     1      31.614  49.884  38.480  1.00  0.00    -0.066 N 
HETATM    2  H   UNL     1      31.645  49.359  37.587  1.00  0.00     0.278 HD
HETATM    3  H   UNL     1      32.607  50.069  38.714  1.00  0.00     0.278 HD
ENDROOT
BRANCH   1   4
HETATM    4  C   UNL     1      30.870  51.121  38.159  1.00  0.00     0.220 C 
HETATM    5  C   UNL     1      30.734  51.993  39.370  1.00  0.00    -0.021 A 
HETATM    6  C   UNL     1      29.418  51.995  39.862  1.00  0.00    -0.040 A 
HETATM    7  C   UNL     1      31.742  52.702  40.011  1.00  0.00     0.010 A 
HETATM    8  C   UNL     1      29.073  52.747  40.985  1.00  0.00    -0.055 A 
HETATM    9  C   UNL     1      28.532  51.105  39.032  1.00  0.00     0.018 C 
HETATM   10  C   UNL     1      27.678  52.784  41.535  1.00  0.00     0.049 C 
HETATM   11  C   UNL     1      30.097  53.453  41.632  1.00  0.00     0.007 A 
HETATM   12  C   UNL     1      31.415  53.430  41.153  1.00  0.00     0.001 A 
HETATM   13  C   UNL     1      29.401  50.880  37.776  1.00  0.00     0.047 C 
HETATM   14  C   UNL     1      28.178  49.799  39.734  1.00  0.00     0.015 C 
ENDBRANCH   1   4
BRANCH   1  15
HETATM   15  C   UNL     1      31.044  48.947  39.482  1.00  0.00     0.240 C 
BRANCH  15  16
HETATM   16  C   UNL     1      31.973  48.814  40.708  1.00  0.00     0.040 C 
BRANCH  16  17
HETATM   17  C   UNL     1      32.277  47.334  40.987  1.00  0.00     0.170 C 
BRANCH  17  18
HETATM   18  O   UNL     1      33.476  47.234  41.756  1.00  0.00    -0.400 OA
HETATM   19  H   UNL     1      34.157  46.859  41.158  1.00  0.00     0.209 HD
ENDBRANCH  17  18
ENDBRANCH  16  17
BRANCH  16  20
HETATM   20  C   UNL     1      31.437  49.477  41.999  1.00  0.00     0.067 C 
BRANCH  20  21
HETATM   21  C   UNL     1      32.441  50.377  42.667  1.00  0.00     0.034 A 
HETATM   22  N   UNL     1      33.683  50.404  42.106  1.00  0.00    -0.266 NA
HETATM   23  C   UNL     1      34.597  51.211  42.701  1.00  0.00     0.117 A 
HETATM   24  C   UNL     1      34.346  51.961  43.838  1.00  0.00     0.019 A 
HETATM   25  C   UNL     1      33.078  51.895  44.402  1.00  0.00     0.003 A 
HETATM   26  C   UNL     1      32.107  51.094  43.812  1.00  0.00     0.027 A 
ENDBRANCH  20  21
ENDBRANCH  16  20
ENDBRANCH  15  16
ENDBRANCH   1  15
TORSDOF 7
ENDMDL
MODEL 9
REMARK VINA RESULT:      -7.1      3.477      4.997
REMARK  7 active torsions:
REMARK  status: ('A' for Active; 'I' for Inactive)
REMARK    1  A    between atoms: C_5  and  N_6 
REMARK    2  A    between atoms: N_6  and  C_9 
REMARK    3  A    between atoms: C_9  and  C_10 
REMARK    4  A    between atoms: C_10  and  C_11 
REMARK    5  A    between atoms: C_10  and  C_13 
REMARK    6  A    between atoms: C_11  and  O_12 
REMARK    7  A    between atoms: C_13  and  C_14 
ROOT
HETATM    1  N   UNL     1      27.690  41.752  51.436  1.00  0.00    -0.066 N 
HETATM    2  H   UNL     1      28.092  41.272  52.261  1.00  0.00     0.278 HD
HETATM    3  H   UNL     1      26.669  41.785  51.620  1.00  0.00     0.278 HD
ENDROOT
BRANCH   1   4
HETATM    4  C   UNL     1      28.308  43.095  51.449  1.00  0.00     0.220 C 
HETATM    5  C   UNL     1      29.002  43.353  52.752  1.00  0.00    -0.021 A 
HETATM    6  C   UNL     1      28.300  44.282  53.538  1.00  0.00    -0.040 A 
HETATM    7  C   UNL     1      30.166  42.753  53.216  1.00  0.00     0.010 A 
HETATM    8  C   UNL     1      28.776  44.665  54.791  1.00  0.00    -0.055 A 
HETATM    9  C   UNL     1      27.045  44.736  52.842  1.00  0.00     0.018 C 
HETATM   10  C   UNL     1      28.063  45.661  55.656  1.00  0.00     0.049 C 
HETATM   11  C   UNL     1      29.947  44.050  55.257  1.00  0.00     0.007 A 
HETATM   12  C   UNL     1      30.633  43.104  54.480  1.00  0.00     0.001 A 
HETATM   13  C   UNL     1      27.292  44.248  51.399  1.00  0.00     0.047 C 
HETATM   14  C   UNL     1      25.781  44.138  53.448  1.00  0.00     0.015 C 
ENDBRANCH   1   4
BRANCH   1  15
HETATM   15  C   UNL     1      27.947  40.856  50.279  1.00  0.00     0.240 C 
BRANCH  15  16
HETATM   16  C   UNL     1      26.694  40.026  49.932  1.00  0.00     0.040 C 
BRANCH  16  17
HETATM   17  C   UNL     1      27.073  38.551  49.725  1.00  0.00     0.170 C 
BRANCH  17  18
HETATM   18  O   UNL     1      26.080  37.718  50.324  1.00  0.00    -0.400 OA
HETATM   19  H   UNL     1      25.643  38.261  51.014  1.00  0.00     0.209 HD
ENDBRANCH  17  18
ENDBRANCH  16  17
BRANCH  16  20
HETATM   20  C   UNL     1      25.908  40.527  48.697  1.00  0.00     0.067 C 
BRANCH  20  21
HETATM   21  C   UNL     1      24.963  41.656  49.010  1.00  0.00     0.034 A 
HETATM   22  N   UNL     1      24.740  41.896  50.333  1.00  0.00    -0.266 NA
HETATM   23  C   UNL     1      23.889  42.911  50.628  1.00  0.00     0.117 A 
HETATM   24  C   UNL     1      23.226  43.668  49.676  1.00  0.00     0.019 A 
HETATM   25  C   UNL     1      23.454  43.384  48.336  1.00  0.00     0.003 A 
HETATM   26  C   UNL     1      24.335  42.365  47.991  1.00  0.00     0.027 A 
ENDBRANCH  20  21
ENDBRANCH  16  20
ENDBRANCH  15  16
ENDBRANCH   1  15
TORSDOF 7
ENDMDL
MODEL 10
REMARK VINA RESULT:      -7.1      2.451      6.246
REMARK  7 active torsions:
REMARK  status: ('A' for Active; 'I' for Inactive)
REMARK    1  A    between atoms: C_5  and  N_6 
REMARK    2  A    between atoms: N_6  and  C_9 
REMARK    3  A    between atoms: C_9  and  C_10 
REMARK    4  A    between atoms: C_10  and  C_11 
REMARK    5  A    between atoms: C_10  and  C_13 
REMARK    6  A    between atoms: C_11  and  O_12 
REMARK    7  A    between atoms: C_13  and  C_14 
ROOT
HETATM    1  N   UNL     1      27.184  43.276  51.379  1.00  0.00    -0.066 N 
HETATM    2  H   UNL     1      26.456  43.773  51.924  1.00  0.00     0.278 HD
HETATM    3  H   UNL     1      26.956  42.270  51.488  1.00  0.00     0.278 HD
ENDROOT
BRANCH   1   4
HETATM    4  C   UNL     1      26.998  43.749  49.991  1.00  0.00     0.220 C 
HETATM    5  C   UNL     1      26.205  45.021  49.961  1.00  0.00    -0.021 A 
HETATM    6  C   UNL     1      24.906  44.811  49.471  1.00  0.00    -0.040 A 
HETATM    7  C   UNL     1      26.616  46.276  50.392  1.00  0.00     0.010 A 
HETATM    8  C   UNL     1      24.002  45.867  49.358  1.00  0.00    -0.055 A 
HETATM    9  C   UNL     1      24.687  43.361  49.132  1.00  0.00     0.018 C 
HETATM   10  C   UNL     1      22.610  45.686  48.829  1.00  0.00     0.049 C 
HETATM   11  C   UNL     1      24.421  47.129  49.802  1.00  0.00     0.007 A 
HETATM   12  C   UNL     1      25.711  47.332  50.314  1.00  0.00     0.001 A 
HETATM   13  C   UNL     1      26.132  42.818  49.127  1.00  0.00     0.047 C 
HETATM   14  C   UNL     1      23.800  42.642  50.142  1.00  0.00     0.015 C 
ENDBRANCH   1   4
BRANCH   1  15
HETATM   15  C   UNL     1      28.471  43.560  52.065  1.00  0.00     0.240 C 
BRANCH  15  16
HETATM   16  C   UNL     1      28.461  43.015  53.509  1.00  0.00     0.040 C 
BRANCH  16  17
HETATM   17  C   UNL     1      28.559  41.481  53.500  1.00  0.00     0.170 C 
BRANCH  17  18
HETATM   18  O   UNL     1      27.246  40.923  53.446  1.00  0.00    -0.400 OA
HETATM   19  H   UNL     1      26.753  41.440  52.774  1.00  0.00     0.209 HD
ENDBRANCH  17  18
ENDBRANCH  16  17
BRANCH  16  20
HETATM   20  C   UNL     1      27.238  43.442  54.353  1.00  0.00     0.067 C 
BRANCH  20  21
HETATM   21  C   UNL     1      27.086  44.935  54.470  1.00  0.00     0.034 A 
HETATM   22  N   UNL     1      28.058  45.578  55.177  1.00  0.00    -0.266 NA
HETATM   23  C   UNL     1      27.932  46.924  55.291  1.00  0.00     0.117 A 
HETATM   24  C   UNL     1      26.874  47.650  54.769  1.00  0.00     0.019 A 
HETATM   25  C   UNL     1      25.886  46.965  54.074  1.00  0.00     0.003 A 
HETATM   26  C   UNL     1      25.988  45.587  53.919  1.00  0.00     0.027 A 
ENDBRANCH  20  21
ENDBRANCH  16  20
ENDBRANCH  15  16
ENDBRANCH   1  15
TORSDOF 7
ENDMDL
