MODEL 1
REMARK VINA RESULT:      -9.7      0.000      0.000
REMARK  6 active torsions:
REMARK  status: ('A' for Active; 'I' for Inactive)
REMARK    1  A    between atoms: C_3  and  O_4 
REMARK    2  A    between atoms: O_4  and  C_5 
REMARK    3  A    between atoms: C_5  and  C_6 
REMARK       I    between atoms: C_6  and  N_7 
REMARK    4  A    between atoms: N_7  and  C_8 
REMARK    5  A    between atoms: C_8  and  C_9 
REMARK       I    between atoms: C_9  and  N_10 
REMARK    6  A    between atoms: N_10  and  N_11 
ROOT
HETATM    1  C   UNL     1      24.975  44.626  51.330  1.00  0.00     0.255 C 
HETATM    2  N   UNL     1      25.206  45.752  50.561  1.00  0.00    -0.245 N 
HETATM    3  O   UNL     1      23.863  44.204  51.648  1.00  0.00    -0.270 OA
HETATM    4  H   UNL     1      26.167  46.062  50.388  1.00  0.00     0.192 HD
ENDROOT
BRANCH   1   5
HETATM    5  C   UNL     1      26.245  43.946  51.844  1.00  0.00     0.227 C 
BRANCH   5   6
HETATM    6  N   UNL     1      26.122  43.320  53.156  1.00  0.00    -0.350 N 
HETATM    7  C   UNL     1      26.389  43.881  54.376  1.00  0.00     0.242 C 
HETATM    8  O   UNL     1      26.024  43.287  55.392  1.00  0.00    -0.271 OA
HETATM    9  H   UNL     1      25.604  42.450  53.223  1.00  0.00     0.163 HD
BRANCH   7  10
HETATM   10  C   UNL     1      27.082  45.238  54.439  1.00  0.00     0.278 C 
BRANCH  10  11
HETATM   11  O   UNL     1      28.452  45.066  54.098  1.00  0.00    -0.342 OA
BRANCH  11  12
HETATM   12  C   UNL     1      29.314  44.806  55.129  1.00  0.00     0.075 A 
HETATM   13  C   UNL     1      30.107  43.652  55.001  1.00  0.00    -0.029 A 
HETATM   14  C   UNL     1      29.958  42.709  53.839  1.00  0.00     0.051 C 
HETATM   15  C   UNL     1      31.016  43.327  56.021  1.00  0.00     0.009 A 
HETATM   16  C   UNL     1      31.162  44.152  57.134  1.00  0.00     0.001 A 
HETATM   17  C   UNL     1      30.394  45.306  57.244  1.00  0.00     0.003 A 
HETATM   18  C   UNL     1      29.473  45.633  56.246  1.00  0.00     0.037 A 
ENDBRANCH  11  12
ENDBRANCH  10  11
ENDBRANCH   7  10
ENDBRANCH   5   6
ENDBRANCH   1   5
BRANCH   2  19
HETATM   19  N   UNL     1      24.156  46.456  50.048  1.00  0.00    -0.166 NA
HETATM   20  C   UNL     1      24.417  47.622  49.554  1.00  0.00     0.157 A 
HETATM   21  C   UNL     1      25.767  48.332  49.438  1.00  0.00     0.277 A 
HETATM   22  C   UNL     1      23.437  48.529  48.967  1.00  0.00     0.028 A 
HETATM   23  O   UNL     1      26.822  47.874  49.823  1.00  0.00    -0.266 OA
HETATM   24  N   UNL     1      25.502  49.534  48.821  1.00  0.00    -0.321 N 
HETATM   25  C   UNL     1      24.142  49.656  48.544  1.00  0.00     0.048 A 
HETATM   26  H   UNL     1      26.215  50.217  48.608  1.00  0.00     0.169 HD
HETATM   27  C   UNL     1      23.500  50.712  47.935  1.00  0.00     0.032 A 
HETATM   28  C   UNL     1      22.114  50.607  47.762  1.00  0.00     0.021 A 
HETATM   29  C   UNL     1      21.414  49.462  48.197  1.00  0.00     0.012 A 
HETATM   30 BR   UNL     1      19.541  49.371  47.943  1.00  0.00    -0.051 Br
HETATM   31  C   UNL     1      22.073  48.397  48.811  1.00  0.00     0.035 A 
ENDBRANCH   2  19
TORSDOF 6
ENDMDL
MODEL 2
REMARK VINA RESULT:      -9.6      3.678     10.317
REMARK  6 active torsions:
REMARK  status: ('A' for Active; 'I' for Inactive)
REMARK    1  A    between atoms: C_3  and  O_4 
REMARK    2  A    between atoms: O_4  and  C_5 
REMARK    3  A    between atoms: C_5  and  C_6 
REMARK       I    between atoms: C_6  and  N_7 
REMARK    4  A    between atoms: N_7  and  C_8 
REMARK    5  A    between atoms: C_8  and  C_9 
REMARK       I    between atoms: C_9  and  N_10 
REMARK    6  A    between atoms: N_10  and  N_11 
ROOT
HETATM    1  C   UNL     1      25.216  47.348  50.723  1.00  0.00     0.255 C 
HETATM    2  N   UNL     1      25.032  46.460  51.768  1.00  0.00    -0.245 N 
HETATM    3  O   UNL     1      26.267  47.937  50.473  1.00  0.00    -0.270 OA
HETATM    4  H   UNL     1      24.107  46.054  51.934  1.00  0.00     0.192 HD
ENDROOT
BRANCH   1   5
HETATM    5  C   UNL     1      23.954  47.618  49.902  1.00  0.00     0.227 C 
BRANCH   5   6
HETATM    6  N   UNL     1      24.121  48.573  48.811  1.00  0.00    -0.350 N 
HETATM    7  C   UNL     1      23.139  49.249  48.138  1.00  0.00     0.242 C 
HETATM    8  O   UNL     1      23.463  50.178  47.397  1.00  0.00    -0.271 OA
HETATM    9  H   UNL     1      25.049  48.947  48.641  1.00  0.00     0.163 HD
BRANCH   7  10
HETATM   10  C   UNL     1      21.680  48.865  48.361  1.00  0.00     0.278 C 
BRANCH  10  11
HETATM   11  O   UNL     1      21.202  49.542  49.517  1.00  0.00    -0.342 OA
BRANCH  11  12
HETATM   12  C   UNL     1      20.199  50.454  49.325  1.00  0.00     0.075 A 
HETATM   13  C   UNL     1      19.024  50.254  50.069  1.00  0.00    -0.029 A 
HETATM   14  C   UNL     1      18.843  49.058  50.964  1.00  0.00     0.051 C 
HETATM   15  C   UNL     1      17.956  51.154  49.924  1.00  0.00     0.009 A 
HETATM   16  C   UNL     1      18.066  52.257  49.079  1.00  0.00     0.001 A 
HETATM   17  C   UNL     1      19.240  52.466  48.364  1.00  0.00     0.003 A 
HETATM   18  C   UNL     1      20.304  51.569  48.486  1.00  0.00     0.037 A 
ENDBRANCH  11  12
ENDBRANCH  10  11
ENDBRANCH   7  10
ENDBRANCH   5   6
ENDBRANCH   1   5
BRANCH   2  19
HETATM   19  N   UNL     1      26.078  46.140  52.584  1.00  0.00    -0.166 NA
HETATM   20  C   UNL     1      26.448  44.901  52.604  1.00  0.00     0.157 A 
HETATM   21  C   UNL     1      25.886  43.722  51.809  1.00  0.00     0.277 A 
HETATM   22  C   UNL     1      27.535  44.358  53.410  1.00  0.00     0.028 A 
HETATM   23  O   UNL     1      24.965  43.796  51.024  1.00  0.00    -0.266 OA
HETATM   24  N   UNL     1      26.642  42.632  52.179  1.00  0.00    -0.321 N 
HETATM   25  C   UNL     1      27.608  42.997  53.114  1.00  0.00     0.048 A 
HETATM   26  H   UNL     1      26.498  41.705  51.805  1.00  0.00     0.169 HD
HETATM   27  C   UNL     1      28.546  42.185  53.714  1.00  0.00     0.032 A 
HETATM   28  C   UNL     1      29.419  42.783  54.632  1.00  0.00     0.021 A 
HETATM   29  C   UNL     1      29.333  44.161  54.922  1.00  0.00     0.012 A 
HETATM   30 BR   UNL     1      30.534  44.918  56.173  1.00  0.00    -0.051 Br
HETATM   31  C   UNL     1      28.381  44.974  54.309  1.00  0.00     0.035 A 
ENDBRANCH   2  19
TORSDOF 6
ENDMDL
MODEL 3
REMARK VINA RESULT:      -9.4      1.425      1.968
REMARK  6 active torsions:
REMARK  status: ('A' for Active; 'I' for Inactive)
REMARK    1  A    between atoms: C_3  and  O_4 
REMARK    2  A    between atoms: O_4  and  C_5 
REMARK    3  A    between atoms: C_5  and  C_6 
REMARK       I    between atoms: C_6  and  N_7 
REMARK    4  A    between atoms: N_7  and  C_8 
REMARK    5  A    between atoms: C_8  and  C_9 
REMARK       I    between atoms: C_9  and  N_10 
REMARK    6  A    between atoms: N_10  and  N_11 
ROOT
HETATM    1  C   UNL     1      26.352  44.839  50.814  1.00  0.00     0.255 C 
HETATM    2  N   UNL     1      26.386  46.122  50.297  1.00  0.00    -0.245 N 
HETATM    3  O   UNL     1      25.331  44.244  51.160  1.00  0.00    -0.270 OA
HETATM    4  H   UNL     1      27.286  46.560  50.084  1.00  0.00     0.192 HD
ENDROOT
BRANCH   1   5
HETATM    5  C   UNL     1      27.729  44.202  51.003  1.00  0.00     0.227 C 
BRANCH   5   6
HETATM    6  N   UNL     1      27.713  42.843  51.532  1.00  0.00    -0.350 N 
HETATM    7  C   UNL     1      28.502  42.325  52.525  1.00  0.00     0.242 C 
HETATM    8  O   UNL     1      28.210  41.227  52.999  1.00  0.00    -0.271 OA
HETATM    9  H   UNL     1      26.921  42.251  51.305  1.00  0.00     0.163 HD
BRANCH   7  10
HETATM   10  C   UNL     1      29.682  43.141  53.042  1.00  0.00     0.278 C 
BRANCH  10  11
HETATM   11  O   UNL     1      29.207  44.065  54.013  1.00  0.00    -0.342 OA
BRANCH  11  12
HETATM   12  C   UNL     1      29.901  44.130  55.192  1.00  0.00     0.075 A 
HETATM   13  C   UNL     1      29.666  45.262  55.991  1.00  0.00    -0.029 A 
HETATM   14  C   UNL     1      28.769  46.383  55.540  1.00  0.00     0.051 C 
HETATM   15  C   UNL     1      30.342  45.392  57.215  1.00  0.00     0.009 A 
HETATM   16  C   UNL     1      31.210  44.395  57.657  1.00  0.00     0.001 A 
HETATM   17  C   UNL     1      31.419  43.264  56.876  1.00  0.00     0.003 A 
HETATM   18  C   UNL     1      30.767  43.130  55.648  1.00  0.00     0.037 A 
ENDBRANCH  11  12
ENDBRANCH  10  11
ENDBRANCH   7  10
ENDBRANCH   5   6
ENDBRANCH   1   5
BRANCH   2  19
HETATM   19  N   UNL     1      25.224  46.805  50.088  1.00  0.00    -0.166 NA
HETATM   20  C   UNL     1      25.308  47.924  49.445  1.00  0.00     0.157 A 
HETATM   21  C   UNL     1      26.548  48.594  48.853  1.00  0.00     0.277 A 
HETATM   22  C   UNL     1      24.188  48.801  49.128  1.00  0.00     0.028 A 
HETATM   23  O   UNL     1      27.673  48.147  48.920  1.00  0.00    -0.266 OA
HETATM   24  N   UNL     1      26.095  49.751  48.257  1.00  0.00    -0.321 N 
HETATM   25  C   UNL     1      24.716  49.877  48.414  1.00  0.00     0.048 A 
HETATM   26  H   UNL     1      26.700  50.400  47.775  1.00  0.00     0.169 HD
HETATM   27  C   UNL     1      23.909  50.896  47.957  1.00  0.00     0.032 A 
HETATM   28  C   UNL     1      22.539  50.806  48.240  1.00  0.00     0.021 A 
HETATM   29  C   UNL     1      22.020  49.712  48.964  1.00  0.00     0.012 A 
HETATM   30 BR   UNL     1      20.163  49.640  49.323  1.00  0.00    -0.051 Br
HETATM   31  C   UNL     1      22.845  48.685  49.421  1.00  0.00     0.035 A 
ENDBRANCH   2  19
TORSDOF 6
ENDMDL
MODEL 4
REMARK VINA RESULT:      -9.3      3.872     10.192
REMARK  6 active torsions:
REMARK  status: ('A' for Active; 'I' for Inactive)
REMARK    1  A    between atoms: C_3  and  O_4 
REMARK    2  A    between atoms: O_4  and  C_5 
REMARK    3  A    between atoms: C_5  and  C_6 
REMARK       I    between atoms: C_6  and  N_7 
REMARK    4  A    between atoms: N_7  and  C_8 
REMARK    5  A    between atoms: C_8  and  C_9 
REMARK       I    between atoms: C_9  and  N_10 
REMARK    6  A    between atoms: N_10  and  N_11 
ROOT
HETATM    1  C   UNL     1      25.305  46.795  50.502  1.00  0.00     0.255 C 
HETATM    2  N   UNL     1      25.183  46.437  51.833  1.00  0.00    -0.245 N 
HETATM    3  O   UNL     1      26.316  46.638  49.818  1.00  0.00    -0.270 OA
HETATM    4  H   UNL     1      24.321  46.651  52.341  1.00  0.00     0.192 HD
ENDROOT
BRANCH   1   5
HETATM    5  C   UNL     1      24.073  47.495  49.926  1.00  0.00     0.227 C 
BRANCH   5   6
HETATM    6  N   UNL     1      24.350  48.719  49.182  1.00  0.00    -0.350 N 
HETATM    7  C   UNL     1      23.450  49.522  48.534  1.00  0.00     0.242 C 
HETATM    8  O   UNL     1      23.822  50.629  48.143  1.00  0.00    -0.271 OA
HETATM    9  H   UNL     1      25.259  49.155  49.300  1.00  0.00     0.163 HD
BRANCH   7  10
HETATM   10  C   UNL     1      22.013  49.045  48.360  1.00  0.00     0.278 C 
BRANCH  10  11
HETATM   11  O   UNL     1      21.264  49.425  49.508  1.00  0.00    -0.342 OA
BRANCH  11  12
HETATM   12  C   UNL     1      20.294  50.374  49.324  1.00  0.00     0.075 A 
HETATM   13  C   UNL     1      19.114  50.211  50.070  1.00  0.00    -0.029 A 
HETATM   14  C   UNL     1      18.891  49.016  50.957  1.00  0.00     0.051 C 
HETATM   15  C   UNL     1      18.079  51.150  49.932  1.00  0.00     0.009 A 
HETATM   16  C   UNL     1      18.227  52.253  49.094  1.00  0.00     0.001 A 
HETATM   17  C   UNL     1      19.406  52.425  48.378  1.00  0.00     0.003 A 
HETATM   18  C   UNL     1      20.437  51.489  48.492  1.00  0.00     0.037 A 
ENDBRANCH  11  12
ENDBRANCH  10  11
ENDBRANCH   7  10
ENDBRANCH   5   6
ENDBRANCH   1   5
BRANCH   2  19
HETATM   19  N   UNL     1      26.216  45.812  52.469  1.00  0.00    -0.166 NA
HETATM   20  C   UNL     1      26.615  46.327  53.585  1.00  0.00     0.157 A 
HETATM   21  C   UNL     1      26.068  47.550  54.324  1.00  0.00     0.277 A 
HETATM   22  C   UNL     1      27.703  45.815  54.410  1.00  0.00     0.028 A 
HETATM   23  O   UNL     1      25.148  48.237  53.934  1.00  0.00    -0.266 OA
HETATM   24  N   UNL     1      26.826  47.660  55.468  1.00  0.00    -0.321 N 
HETATM   25  C   UNL     1      27.783  46.650  55.525  1.00  0.00     0.048 A 
HETATM   26  H   UNL     1      26.685  48.384  56.159  1.00  0.00     0.169 HD
HETATM   27  C   UNL     1      28.719  46.434  56.513  1.00  0.00     0.032 A 
HETATM   28  C   UNL     1      29.584  45.343  56.350  1.00  0.00     0.021 A 
HETATM   29  C   UNL     1      29.492  44.508  55.216  1.00  0.00     0.012 A 
HETATM   30 BR   UNL     1      30.688  43.052  55.042  1.00  0.00    -0.051 Br
HETATM   31  C   UNL     1      28.541  44.735  54.222  1.00  0.00     0.035 A 
ENDBRANCH   2  19
TORSDOF 6
ENDMDL
MODEL 5
REMARK VINA RESULT:      -8.9      3.454      9.088
REMARK  6 active torsions:
REMARK  status: ('A' for Active; 'I' for Inactive)
REMARK    1  A    between atoms: C_3  and  O_4 
REMARK    2  A    between atoms: O_4  and  C_5 
REMARK    3  A    between atoms: C_5  and  C_6 
REMARK       I    between atoms: C_6  and  N_7 
REMARK    4  A    between atoms: N_7  and  C_8 
REMARK    5  A    between atoms: C_8  and  C_9 
REMARK       I    between atoms: C_9  and  N_10 
REMARK    6  A    between atoms: N_10  and  N_11 
ROOT
HETATM    1  C   UNL     1      24.575  43.888  51.036  1.00  0.00     0.255 C 
HETATM    2  N   UNL     1      25.900  43.526  51.199  1.00  0.00    -0.245 N 
HETATM    3  O   UNL     1      23.928  44.574  51.827  1.00  0.00    -0.270 OA
HETATM    4  H   UNL     1      26.347  42.909  50.515  1.00  0.00     0.192 HD
ENDROOT
BRANCH   1   5
HETATM    5  C   UNL     1      23.914  43.299  49.789  1.00  0.00     0.227 C 
BRANCH   5   6
HETATM    6  N   UNL     1      22.499  43.619  49.632  1.00  0.00    -0.350 N 
HETATM    7  C   UNL     1      21.951  44.633  48.893  1.00  0.00     0.242 C 
HETATM    8  O   UNL     1      20.735  44.628  48.693  1.00  0.00    -0.271 OA
HETATM    9  H   UNL     1      21.817  42.927  49.924  1.00  0.00     0.163 HD
BRANCH   7  10
HETATM   10  C   UNL     1      22.862  45.703  48.302  1.00  0.00     0.278 C 
BRANCH  10  11
HETATM   11  O   UNL     1      23.092  46.701  49.289  1.00  0.00    -0.342 OA
BRANCH  11  12
HETATM   12  C   UNL     1      23.205  47.992  48.844  1.00  0.00     0.075 A 
HETATM   13  C   UNL     1      24.456  48.606  49.029  1.00  0.00    -0.029 A 
HETATM   14  C   UNL     1      25.582  47.918  49.751  1.00  0.00     0.051 C 
HETATM   15  C   UNL     1      24.643  49.928  48.592  1.00  0.00     0.009 A 
HETATM   16  C   UNL     1      23.616  50.617  47.951  1.00  0.00     0.001 A 
HETATM   17  C   UNL     1      22.389  49.996  47.746  1.00  0.00     0.003 A 
HETATM   18  C   UNL     1      22.183  48.688  48.190  1.00  0.00     0.037 A 
ENDBRANCH  11  12
ENDBRANCH  10  11
ENDBRANCH   7  10
ENDBRANCH   5   6
ENDBRANCH   1   5
BRANCH   2  19
HETATM   19  N   UNL     1      26.604  43.978  52.277  1.00  0.00    -0.166 NA
HETATM   20  C   UNL     1      27.710  43.368  52.553  1.00  0.00     0.157 A 
HETATM   21  C   UNL     1      28.370  42.203  51.815  1.00  0.00     0.277 A 
HETATM   22  C   UNL     1      28.599  43.695  53.662  1.00  0.00     0.028 A 
HETATM   23  O   UNL     1      27.913  41.663  50.830  1.00  0.00    -0.266 OA
HETATM   24  N   UNL     1      29.537  41.944  52.499  1.00  0.00    -0.321 N 
HETATM   25  C   UNL     1      29.677  42.812  53.580  1.00  0.00     0.048 A 
HETATM   26  H   UNL     1      30.187  41.219  52.231  1.00  0.00     0.169 HD
HETATM   27  C   UNL     1      30.710  42.859  54.491  1.00  0.00     0.032 A 
HETATM   28  C   UNL     1      30.630  43.827  55.501  1.00  0.00     0.021 A 
HETATM   29  C   UNL     1      29.534  44.712  55.572  1.00  0.00     0.012 A 
HETATM   30 BR   UNL     1      29.473  45.998  56.959  1.00  0.00    -0.051 Br
HETATM   31  C   UNL     1      28.494  44.657  54.645  1.00  0.00     0.035 A 
ENDBRANCH   2  19
TORSDOF 6
ENDMDL
MODEL 6
REMARK VINA RESULT:      -8.9      2.207      3.494
REMARK  6 active torsions:
REMARK  status: ('A' for Active; 'I' for Inactive)
REMARK    1  A    between atoms: C_3  and  O_4 
REMARK    2  A    between atoms: O_4  and  C_5 
REMARK    3  A    between atoms: C_5  and  C_6 
REMARK       I    between atoms: C_6  and  N_7 
REMARK    4  A    between atoms: N_7  and  C_8 
REMARK    5  A    between atoms: C_8  and  C_9 
REMARK       I    between atoms: C_9  and  N_10 
REMARK    6  A    between atoms: N_10  and  N_11 
ROOT
HETATM    1  C   UNL     1      22.882  45.063  48.957  1.00  0.00     0.255 C 
HETATM    2  N   UNL     1      22.820  46.429  49.169  1.00  0.00    -0.245 N 
HETATM    3  O   UNL     1      21.979  44.383  48.470  1.00  0.00    -0.270 OA
HETATM    4  H   UNL     1      23.599  46.908  49.628  1.00  0.00     0.192 HD
ENDROOT
BRANCH   1   5
HETATM    5  C   UNL     1      24.172  44.410  49.453  1.00  0.00     0.227 C 
BRANCH   5   6
HETATM    6  N   UNL     1      25.375  45.219  49.290  1.00  0.00    -0.350 N 
HETATM    7  C   UNL     1      26.607  45.003  49.848  1.00  0.00     0.242 C 
HETATM    8  O   UNL     1      27.565  45.656  49.433  1.00  0.00    -0.271 OA
HETATM    9  H   UNL     1      25.392  45.905  48.543  1.00  0.00     0.163 HD
BRANCH   7  10
HETATM   10  C   UNL     1      26.763  43.933  50.923  1.00  0.00     0.278 C 
BRANCH  10  11
HETATM   11  O   UNL     1      27.067  44.569  52.158  1.00  0.00    -0.342 OA
BRANCH  11  12
HETATM   12  C   UNL     1      28.151  44.092  52.845  1.00  0.00     0.075 A 
HETATM   13  C   UNL     1      28.339  44.599  54.142  1.00  0.00    -0.029 A 
HETATM   14  C   UNL     1      27.450  45.670  54.715  1.00  0.00     0.051 C 
HETATM   15  C   UNL     1      29.430  44.150  54.904  1.00  0.00     0.009 A 
HETATM   16  C   UNL     1      30.301  43.186  54.401  1.00  0.00     0.001 A 
HETATM   17  C   UNL     1      30.096  42.668  53.127  1.00  0.00     0.003 A 
HETATM   18  C   UNL     1      29.026  43.117  52.351  1.00  0.00     0.037 A 
ENDBRANCH  11  12
ENDBRANCH  10  11
ENDBRANCH   7  10
ENDBRANCH   5   6
ENDBRANCH   1   5
BRANCH   2  19
HETATM   19  N   UNL     1      21.717  47.131  48.780  1.00  0.00    -0.166 NA
HETATM   20  C   UNL     1      21.770  48.418  48.894  1.00  0.00     0.157 A 
HETATM   21  C   UNL     1      22.926  49.287  49.392  1.00  0.00     0.277 A 
HETATM   22  C   UNL     1      20.698  49.342  48.541  1.00  0.00     0.028 A 
HETATM   23  O   UNL     1      23.995  48.860  49.774  1.00  0.00    -0.266 OA
HETATM   24  N   UNL     1      22.480  50.586  49.297  1.00  0.00    -0.321 N 
HETATM   25  C   UNL     1      21.179  50.626  48.800  1.00  0.00     0.048 A 
HETATM   26  H   UNL     1      23.042  51.385  49.555  1.00  0.00     0.169 HD
HETATM   27  C   UNL     1      20.403  51.740  48.566  1.00  0.00     0.032 A 
HETATM   28  C   UNL     1      19.113  51.528  48.059  1.00  0.00     0.021 A 
HETATM   29  C   UNL     1      18.640  50.224  47.804  1.00  0.00     0.012 A 
HETATM   30 BR   UNL     1      16.889  49.993  47.124  1.00  0.00    -0.051 Br
HETATM   31  C   UNL     1      19.434  49.103  48.043  1.00  0.00     0.035 A 
ENDBRANCH   2  19
TORSDOF 6
ENDMDL
MODEL 7
REMARK VINA RESULT:      -8.9      3.751      9.514
REMARK  6 active torsions:
REMARK  status: ('A' for Active; 'I' for Inactive)
REMARK    1  A    between atoms: C_3  and  O_4 
REMARK    2  A    between atoms: O_4  and  C_5 
REMARK    3  A    between atoms: C_5  and  C_6 
REMARK       I    between atoms: C_6  and  N_7 
REMARK    4  A    between atoms: N_7  and  C_8 
REMARK    5  A    between atoms: C_8  and  C_9 
REMARK       I    between atoms: C_9  and  N_10 
REMARK    6  A    between atoms: N_10  and  N_11 
ROOT
HETATM    1  C   UNL     1      24.056  44.736  50.341  1.00  0.00     0.255 C 
HETATM    2  N   UNL     1      25.301  45.337  50.401  1.00  0.00    -0.245 N 
HETATM    3  O   UNL     1      23.694  43.790  51.041  1.00  0.00    -0.270 OA
HETATM    4  H   UNL     1      25.536  46.087  49.745  1.00  0.00     0.192 HD
ENDROOT
BRANCH   1   5
HETATM    5  C   UNL     1      23.140  45.300  49.255  1.00  0.00     0.227 C 
BRANCH   5   6
HETATM    6  N   UNL     1      21.810  44.702  49.198  1.00  0.00    -0.350 N 
HETATM    7  C   UNL     1      20.675  45.243  48.655  1.00  0.00     0.242 C 
HETATM    8  O   UNL     1      19.693  44.517  48.496  1.00  0.00    -0.271 OA
HETATM    9  H   UNL     1      21.723  43.710  49.393  1.00  0.00     0.163 HD
BRANCH   7  10
HETATM   10  C   UNL     1      20.678  46.705  48.222  1.00  0.00     0.278 C 
BRANCH  10  11
HETATM   11  O   UNL     1      20.021  47.478  49.218  1.00  0.00    -0.342 OA
BRANCH  11  12
HETATM   12  C   UNL     1      20.071  48.839  49.074  1.00  0.00     0.075 A 
HETATM   13  C   UNL     1      19.432  49.594  50.072  1.00  0.00    -0.029 A 
HETATM   14  C   UNL     1      18.663  48.947  51.191  1.00  0.00     0.051 C 
HETATM   15  C   UNL     1      19.448  50.996  49.988  1.00  0.00     0.009 A 
HETATM   16  C   UNL     1      20.118  51.639  48.949  1.00  0.00     0.001 A 
HETATM   17  C   UNL     1      20.771  50.888  47.979  1.00  0.00     0.003 A 
HETATM   18  C   UNL     1      20.749  49.493  48.040  1.00  0.00     0.037 A 
ENDBRANCH  11  12
ENDBRANCH  10  11
ENDBRANCH   7  10
ENDBRANCH   5   6
ENDBRANCH   1   5
BRANCH   2  19
HETATM   19  N   UNL     1      26.216  44.920  51.323  1.00  0.00    -0.166 NA
HETATM   20  C   UNL     1      26.425  45.697  52.335  1.00  0.00     0.157 A 
HETATM   21  C   UNL     1      25.761  47.033  52.668  1.00  0.00     0.277 A 
HETATM   22  C   UNL     1      27.364  45.436  53.420  1.00  0.00     0.028 A 
HETATM   23  O   UNL     1      24.915  47.572  51.986  1.00  0.00    -0.266 OA
HETATM   24  N   UNL     1      26.320  47.438  53.860  1.00  0.00    -0.321 N 
HETATM   25  C   UNL     1      27.257  46.509  54.305  1.00  0.00     0.048 A 
HETATM   26  H   UNL     1      26.064  48.296  54.329  1.00  0.00     0.169 HD
HETATM   27  C   UNL     1      28.019  46.567  55.452  1.00  0.00     0.032 A 
HETATM   28  C   UNL     1      28.903  45.506  55.690  1.00  0.00     0.021 A 
HETATM   29  C   UNL     1      29.001  44.428  54.785  1.00  0.00     0.012 A 
HETATM   30 BR   UNL     1      30.213  43.022  55.151  1.00  0.00    -0.051 Br
HETATM   31  C   UNL     1      28.225  44.378  53.627  1.00  0.00     0.035 A 
ENDBRANCH   2  19
TORSDOF 6
ENDMDL
MODEL 8
REMARK VINA RESULT:      -8.7      3.465      9.774
REMARK  6 active torsions:
REMARK  status: ('A' for Active; 'I' for Inactive)
REMARK    1  A    between atoms: C_3  and  O_4 
REMARK    2  A    between atoms: O_4  and  C_5 
REMARK    3  A    between atoms: C_5  and  C_6 
REMARK       I    between atoms: C_6  and  N_7 
REMARK    4  A    between atoms: N_7  and  C_8 
REMARK    5  A    between atoms: C_8  and  C_9 
REMARK       I    between atoms: C_9  and  N_10 
REMARK    6  A    between atoms: N_10  and  N_11 
ROOT
HETATM    1  C   UNL     1      25.507  47.105  51.039  1.00  0.00     0.255 C 
HETATM    2  N   UNL     1      25.387  46.092  51.974  1.00  0.00    -0.245 N 
HETATM    3  O   UNL     1      26.404  47.948  51.022  1.00  0.00    -0.270 OA
HETATM    4  H   UNL     1      24.578  45.465  51.943  1.00  0.00     0.192 HD
ENDROOT
BRANCH   1   5
HETATM    5  C   UNL     1      24.366  47.158  50.023  1.00  0.00     0.227 C 
BRANCH   5   6
HETATM    6  N   UNL     1      23.634  45.908  49.850  1.00  0.00    -0.350 N 
HETATM    7  C   UNL     1      22.657  45.633  48.931  1.00  0.00     0.242 C 
HETATM    8  O   UNL     1      22.301  44.464  48.779  1.00  0.00    -0.271 OA
HETATM    9  H   UNL     1      23.995  45.076  50.307  1.00  0.00     0.163 HD
BRANCH   7  10
HETATM   10  C   UNL     1      22.079  46.769  48.094  1.00  0.00     0.278 C 
BRANCH  10  11
HETATM   11  O   UNL     1      21.031  47.389  48.828  1.00  0.00    -0.342 OA
BRANCH  11  12
HETATM   12  C   UNL     1      20.921  48.749  48.715  1.00  0.00     0.075 A 
HETATM   13  C   UNL     1      19.615  49.268  48.684  1.00  0.00    -0.029 A 
HETATM   14  C   UNL     1      18.404  48.376  48.688  1.00  0.00     0.051 C 
HETATM   15  C   UNL     1      19.430  50.656  48.573  1.00  0.00     0.009 A 
HETATM   16  C   UNL     1      20.524  51.518  48.530  1.00  0.00     0.001 A 
HETATM   17  C   UNL     1      21.813  51.002  48.588  1.00  0.00     0.003 A 
HETATM   18  C   UNL     1      22.013  49.623  48.680  1.00  0.00     0.037 A 
ENDBRANCH  11  12
ENDBRANCH  10  11
ENDBRANCH   7  10
ENDBRANCH   5   6
ENDBRANCH   1   5
BRANCH   2  19
HETATM   19  N   UNL     1      26.336  45.940  52.942  1.00  0.00    -0.166 NA
HETATM   20  C   UNL     1      27.160  44.954  52.806  1.00  0.00     0.157 A 
HETATM   21  C   UNL     1      27.242  43.924  51.678  1.00  0.00     0.277 A 
HETATM   22  C   UNL     1      28.236  44.620  53.732  1.00  0.00     0.028 A 
HETATM   23  O   UNL     1      26.499  43.890  50.720  1.00  0.00    -0.266 OA
HETATM   24  N   UNL     1      28.303  43.107  51.999  1.00  0.00    -0.321 N 
HETATM   25  C   UNL     1      28.888  43.508  53.197  1.00  0.00     0.048 A 
HETATM   26  H   UNL     1      28.598  42.331  51.424  1.00  0.00     0.169 HD
HETATM   27  C   UNL     1      29.969  42.938  53.837  1.00  0.00     0.032 A 
HETATM   28  C   UNL     1      30.381  43.521  55.043  1.00  0.00     0.021 A 
HETATM   29  C   UNL     1      29.710  44.644  55.571  1.00  0.00     0.012 A 
HETATM   30 BR   UNL     1      30.305  45.390  57.206  1.00  0.00    -0.051 Br
HETATM   31  C   UNL     1      28.619  45.214  54.916  1.00  0.00     0.035 A 
ENDBRANCH   2  19
TORSDOF 6
ENDMDL
MODEL 9
REMARK VINA RESULT:      -8.5     11.819     14.121
REMARK  6 active torsions:
REMARK  status: ('A' for Active; 'I' for Inactive)
REMARK    1  A    between atoms: C_3  and  O_4 
REMARK    2  A    between atoms: O_4  and  C_5 
REMARK    3  A    between atoms: C_5  and  C_6 
REMARK       I    between atoms: C_6  and  N_7 
REMARK    4  A    between atoms: N_7  and  C_8 
REMARK    5  A    between atoms: C_8  and  C_9 
REMARK       I    between atoms: C_9  and  N_10 
REMARK    6  A    between atoms: N_10  and  N_11 
ROOT
HETATM    1  C   UNL     1      30.954  48.783  41.723  1.00  0.00     0.255 C 
HETATM    2  N   UNL     1      29.602  48.537  41.882  1.00  0.00    -0.245 N 
HETATM    3  O   UNL     1      31.592  48.580  40.690  1.00  0.00    -0.270 OA
HETATM    4  H   UNL     1      29.161  48.687  42.794  1.00  0.00     0.192 HD
ENDROOT
BRANCH   1   5
HETATM    5  C   UNL     1      31.654  49.279  42.989  1.00  0.00     0.227 C 
BRANCH   5   6
HETATM    6  N   UNL     1      32.894  50.012  42.761  1.00  0.00    -0.350 N 
HETATM    7  C   UNL     1      33.036  51.347  42.492  1.00  0.00     0.242 C 
HETATM    8  O   UNL     1      34.161  51.844  42.544  1.00  0.00    -0.271 OA
HETATM    9  H   UNL     1      33.769  49.563  43.013  1.00  0.00     0.163 HD
BRANCH   7  10
HETATM   10  C   UNL     1      31.797  52.183  42.187  1.00  0.00     0.278 C 
BRANCH  10  11
HETATM   11  O   UNL     1      32.003  52.873  40.961  1.00  0.00    -0.342 OA
BRANCH  11  12
HETATM   12  C   UNL     1      31.044  52.714  39.997  1.00  0.00     0.075 A 
HETATM   13  C   UNL     1      31.392  51.908  38.899  1.00  0.00    -0.029 A 
HETATM   14  C   UNL     1      32.769  51.322  38.747  1.00  0.00     0.051 C 
HETATM   15  C   UNL     1      30.454  51.699  37.875  1.00  0.00     0.009 A 
HETATM   16  C   UNL     1      29.178  52.253  37.956  1.00  0.00     0.001 A 
HETATM   17  C   UNL     1      28.829  53.027  39.056  1.00  0.00     0.003 A 
HETATM   18  C   UNL     1      29.757  53.258  40.074  1.00  0.00     0.037 A 
ENDBRANCH  11  12
ENDBRANCH  10  11
ENDBRANCH   7  10
ENDBRANCH   5   6
ENDBRANCH   1   5
BRANCH   2  19
HETATM   19  N   UNL     1      28.862  48.082  40.830  1.00  0.00    -0.166 NA
HETATM   20  C   UNL     1      27.901  48.842  40.417  1.00  0.00     0.157 A 
HETATM   21  C   UNL     1      27.480  50.219  40.934  1.00  0.00     0.277 A 
HETATM   22  C   UNL     1      26.996  48.535  39.315  1.00  0.00     0.028 A 
HETATM   23  O   UNL     1      28.014  50.803  41.853  1.00  0.00    -0.266 OA
HETATM   24  N   UNL     1      26.421  50.604  40.142  1.00  0.00    -0.321 N 
HETATM   25  C   UNL     1      26.133  49.625  39.194  1.00  0.00     0.048 A 
HETATM   26  H   UNL     1      25.939  51.484  40.252  1.00  0.00     0.169 HD
HETATM   27  C   UNL     1      25.148  49.651  38.231  1.00  0.00     0.032 A 
HETATM   28  C   UNL     1      25.048  48.540  37.384  1.00  0.00     0.021 A 
HETATM   29  C   UNL     1      25.927  47.444  37.519  1.00  0.00     0.012 A 
HETATM   30 BR   UNL     1      25.748  45.966  36.351  1.00  0.00    -0.051 Br
HETATM   31  C   UNL     1      26.922  47.427  38.496  1.00  0.00     0.035 A 
ENDBRANCH   2  19
TORSDOF 6
ENDMDL
MODEL 10
REMARK VINA RESULT:      -8.4      3.303      4.846
REMARK  6 active torsions:
REMARK  status: ('A' for Active; 'I' for Inactive)
REMARK    1  A    between atoms: C_3  and  O_4 
REMARK    2  A    between atoms: O_4  and  C_5 
REMARK    3  A    between atoms: C_5  and  C_6 
REMARK       I    between atoms: C_6  and  N_7 
REMARK    4  A    between atoms: N_7  and  C_8 
REMARK    5  A    between atoms: C_8  and  C_9 
REMARK       I    between atoms: C_9  and  N_10 
REMARK    6  A    between atoms: N_10  and  N_11 
ROOT
HETATM    1  C   UNL     1      25.243  46.541  51.614  1.00  0.00     0.255 C 
HETATM    2  N   UNL     1      24.983  45.227  51.269  1.00  0.00    -0.245 N 
HETATM    3  O   UNL     1      24.772  47.526  51.046  1.00  0.00    -0.270 OA
HETATM    4  H   UNL     1      25.458  44.467  51.764  1.00  0.00     0.192 HD
ENDROOT
BRANCH   1   5
HETATM    5  C   UNL     1      26.251  46.702  52.753  1.00  0.00     0.227 C 
BRANCH   5   6
HETATM    6  N   UNL     1      25.727  47.343  53.955  1.00  0.00    -0.350 N 
HETATM    7  C   UNL     1      26.439  47.823  55.021  1.00  0.00     0.242 C 
HETATM    8  O   UNL     1      25.860  48.528  55.848  1.00  0.00    -0.271 OA
HETATM    9  H   UNL     1      24.762  47.658  53.946  1.00  0.00     0.163 HD
BRANCH   7  10
HETATM   10  C   UNL     1      27.928  47.513  55.125  1.00  0.00     0.278 C 
BRANCH  10  11
HETATM   11  O   UNL     1      28.112  46.475  56.080  1.00  0.00    -0.342 OA
BRANCH  11  12
HETATM   12  C   UNL     1      28.919  45.433  55.707  1.00  0.00     0.075 A 
HETATM   13  C   UNL     1      30.017  45.166  56.543  1.00  0.00    -0.029 A 
HETATM   14  C   UNL     1      30.339  46.028  57.733  1.00  0.00     0.051 C 
HETATM   15  C   UNL     1      30.884  44.109  56.222  1.00  0.00     0.009 A 
HETATM   16  C   UNL     1      30.645  43.306  55.109  1.00  0.00     0.001 A 
HETATM   17  C   UNL     1      29.543  43.557  54.300  1.00  0.00     0.003 A 
HETATM   18  C   UNL     1      28.681  44.616  54.596  1.00  0.00     0.037 A 
ENDBRANCH  11  12
ENDBRANCH  10  11
ENDBRANCH   7  10
ENDBRANCH   5   6
ENDBRANCH   1   5
BRANCH   2  19
HETATM   19  N   UNL     1      24.106  44.945  50.262  1.00  0.00    -0.166 NA
HETATM   20  C   UNL     1      24.129  43.745  49.783  1.00  0.00     0.157 A 
HETATM   21  C   UNL     1      24.999  42.561  50.209  1.00  0.00     0.277 A 
HETATM   22  C   UNL     1      23.280  43.250  48.705  1.00  0.00     0.028 A 
HETATM   23  O   UNL     1      25.832  42.599  51.089  1.00  0.00    -0.266 OA
HETATM   24  N   UNL     1      24.619  41.513  49.401  1.00  0.00    -0.321 N 
HETATM   25  C   UNL     1      23.615  41.908  48.520  1.00  0.00     0.048 A 
HETATM   26  H   UNL     1      25.027  40.591  49.462  1.00  0.00     0.169 HD
HETATM   27  C   UNL     1      22.984  41.140  47.566  1.00  0.00     0.032 A 
HETATM   28  C   UNL     1      21.997  41.763  46.791  1.00  0.00     0.021 A 
HETATM   29  C   UNL     1      21.670  43.121  46.988  1.00  0.00     0.012 A 
HETATM   30 BR   UNL     1      20.332  43.916  45.912  1.00  0.00    -0.051 Br
HETATM   31  C   UNL     1      22.313  43.890  47.958  1.00  0.00     0.035 A 
ENDBRANCH   2  19
TORSDOF 6
ENDMDL
