MODEL 1
REMARK VINA RESULT:      -9.7      0.000      0.000
REMARK  8 active torsions:
REMARK  status: ('A' for Active; 'I' for Inactive)
REMARK    1  A    between atoms: C_7  and  C_8 
REMARK    2  A    between atoms: C_8  and  O_9 
REMARK    3  A    between atoms: O_9  and  C_10 
REMARK    4  A    between atoms: C_12  and  C_13 
REMARK       I    between atoms: C_13  and  N_14 
REMARK    5  A    between atoms: N_14  and  C_15 
REMARK    6  A    between atoms: C_15  and  C_16 
REMARK    7  A    between atoms: C_17  and  C_18 
REMARK    8  A    between atoms: C_18  and  N_19 
ROOT
HETATM    1  C   UNL     1      25.283  44.602  51.541  1.00  0.00     0.252 C 
HETATM    2  N   UNL     1      25.330  45.367  50.389  1.00  0.00    -0.353 N 
HETATM    3  O   UNL     1      24.410  44.742  52.390  1.00  0.00    -0.268 OA
HETATM    4  H   UNL     1      26.200  45.364  49.869  1.00  0.00     0.163 HD
ENDROOT
BRANCH   1   5
HETATM    5  C   UNL     1      26.408  43.655  51.740  1.00  0.00     0.034 A 
HETATM    6  C   UNL     1      27.058  43.648  52.979  1.00  0.00     0.053 A 
HETATM    7  C   UNL     1      28.163  42.820  53.196  1.00  0.00     0.070 A 
HETATM    8  C   UNL     1      28.583  41.960  52.178  1.00  0.00     0.037 A 
HETATM    9  C   UNL     1      27.920  41.951  50.946  1.00  0.00     0.004 A 
HETATM   10  C   UNL     1      26.837  42.802  50.720  1.00  0.00     0.017 A 
BRANCH   7  11
HETATM   11  O   UNL     1      28.736  42.948  54.429  1.00  0.00    -0.346 OA
BRANCH  11  12
HETATM   12  C   UNL     1      30.025  43.561  54.499  1.00  0.00     0.219 C 
BRANCH  12  13
HETATM   13  C   UNL     1      30.108  44.450  55.688  1.00  0.00     0.024 A 
HETATM   14  C   UNL     1      30.909  44.304  56.853  1.00  0.00     0.069 A 
HETATM   15  C   UNL     1      31.866  43.223  57.186  1.00  0.00     0.073 C 
HETATM   16  N   UNL     1      30.718  45.314  57.708  1.00  0.00    -0.133 NA
HETATM   17  O   UNL     1      29.775  46.133  57.121  1.00  0.00    -0.217 OA
HETATM   18  C   UNL     1      29.411  45.616  55.919  1.00  0.00     0.085 A 
HETATM   19  C   UNL     1      28.397  46.372  55.161  1.00  0.00     0.079 C 
ENDBRANCH  12  13
ENDBRANCH  11  12
ENDBRANCH   7  11
ENDBRANCH   1   5
BRANCH   2  20
HETATM   20  C   UNL     1      24.518  46.556  50.338  1.00  0.00     0.162 C 
BRANCH  20  21
HETATM   21  C   UNL     1      25.247  47.716  49.705  1.00  0.00    -0.033 A 
HETATM   22  C   UNL     1      24.639  48.644  48.829  1.00  0.00    -0.025 A 
HETATM   23  C   UNL     1      25.432  49.665  48.263  1.00  0.00     0.009 A 
HETATM   24  C   UNL     1      26.788  49.778  48.567  1.00  0.00     0.001 A 
HETATM   25  C   UNL     1      27.380  48.875  49.440  1.00  0.00     0.001 A 
HETATM   26  C   UNL     1      26.618  47.854  50.002  1.00  0.00     0.009 A 
BRANCH  22  27
HETATM   27  C   UNL     1      23.168  48.615  48.482  1.00  0.00     0.274 C 
BRANCH  27  28
HETATM   28  N   UNL     1      22.276  49.256  49.526  1.00  0.00    -0.067 N 
HETATM   29  H   UNL     1      22.560  48.877  50.436  1.00  0.00     0.280 HD
HETATM   30  C   UNL     1      20.814  48.950  49.325  1.00  0.00     0.235 C 
HETATM   31  C   UNL     1      20.344  50.050  48.398  1.00  0.00     0.029 C 
HETATM   32  C   UNL     1      21.179  51.267  48.766  1.00  0.00     0.029 C 
HETATM   33  C   UNL     1      22.342  50.760  49.606  1.00  0.00     0.235 C 
ENDBRANCH  27  28
ENDBRANCH  22  27
ENDBRANCH  20  21
ENDBRANCH   2  20
TORSDOF 8
ENDMDL
MODEL 2
REMARK VINA RESULT:      -9.5      0.706      1.665
REMARK  8 active torsions:
REMARK  status: ('A' for Active; 'I' for Inactive)
REMARK    1  A    between atoms: C_7  and  C_8 
REMARK    2  A    between atoms: C_8  and  O_9 
REMARK    3  A    between atoms: O_9  and  C_10 
REMARK    4  A    between atoms: C_12  and  C_13 
REMARK       I    between atoms: C_13  and  N_14 
REMARK    5  A    between atoms: N_14  and  C_15 
REMARK    6  A    between atoms: C_15  and  C_16 
REMARK    7  A    between atoms: C_17  and  C_18 
REMARK    8  A    between atoms: C_18  and  N_19 
ROOT
HETATM    1  C   UNL     1      25.183  44.327  51.344  1.00  0.00     0.252 C 
HETATM    2  N   UNL     1      25.660  45.447  50.686  1.00  0.00    -0.353 N 
HETATM    3  O   UNL     1      24.006  44.202  51.664  1.00  0.00    -0.268 OA
HETATM    4  H   UNL     1      26.664  45.583  50.678  1.00  0.00     0.163 HD
ENDROOT
BRANCH   1   5
HETATM    5  C   UNL     1      26.198  43.314  51.725  1.00  0.00     0.034 A 
HETATM    6  C   UNL     1      26.865  43.469  52.945  1.00  0.00     0.053 A 
HETATM    7  C   UNL     1      27.873  42.578  53.321  1.00  0.00     0.070 A 
HETATM    8  C   UNL     1      28.177  41.498  52.489  1.00  0.00     0.037 A 
HETATM    9  C   UNL     1      27.495  41.329  51.278  1.00  0.00     0.004 A 
HETATM   10  C   UNL     1      26.510  42.239  50.889  1.00  0.00     0.017 A 
BRANCH   7  11
HETATM   11  O   UNL     1      28.478  42.873  54.510  1.00  0.00    -0.346 OA
BRANCH  11  12
HETATM   12  C   UNL     1      29.807  43.399  54.463  1.00  0.00     0.219 C 
BRANCH  12  13
HETATM   13  C   UNL     1      30.033  44.327  55.601  1.00  0.00     0.024 A 
HETATM   14  C   UNL     1      29.418  45.581  55.862  1.00  0.00     0.069 A 
HETATM   15  C   UNL     1      28.394  46.292  55.061  1.00  0.00     0.073 C 
HETATM   16  N   UNL     1      29.875  46.125  56.996  1.00  0.00    -0.133 NA
HETATM   17  O   UNL     1      30.810  45.238  57.489  1.00  0.00    -0.217 OA
HETATM   18  C   UNL     1      30.906  44.170  56.657  1.00  0.00     0.085 A 
HETATM   19  C   UNL     1      31.875  43.126  57.039  1.00  0.00     0.079 C 
ENDBRANCH  12  13
ENDBRANCH  11  12
ENDBRANCH   7  11
ENDBRANCH   1   5
BRANCH   2  20
HETATM   20  C   UNL     1      24.820  46.617  50.655  1.00  0.00     0.162 C 
BRANCH  20  21
HETATM   21  C   UNL     1      25.451  47.750  49.886  1.00  0.00    -0.033 A 
HETATM   22  C   UNL     1      24.715  48.767  49.235  1.00  0.00    -0.025 A 
HETATM   23  C   UNL     1      25.414  49.753  48.508  1.00  0.00     0.009 A 
HETATM   24  C   UNL     1      26.807  49.748  48.436  1.00  0.00     0.001 A 
HETATM   25  C   UNL     1      27.529  48.758  49.089  1.00  0.00     0.001 A 
HETATM   26  C   UNL     1      26.859  47.769  49.805  1.00  0.00     0.009 A 
BRANCH  22  27
HETATM   27  C   UNL     1      23.208  48.868  49.298  1.00  0.00     0.274 C 
BRANCH  27  28
HETATM   28  N   UNL     1      22.666  50.236  48.937  1.00  0.00    -0.067 N 
HETATM   29  H   UNL     1      23.475  50.830  48.722  1.00  0.00     0.280 HD
HETATM   30  C   UNL     1      21.892  50.881  50.058  1.00  0.00     0.235 C 
HETATM   31  C   UNL     1      20.479  50.381  49.847  1.00  0.00     0.029 C 
HETATM   32  C   UNL     1      20.328  50.231  48.341  1.00  0.00     0.029 C 
HETATM   33  C   UNL     1      21.731  50.276  47.755  1.00  0.00     0.235 C 
ENDBRANCH  27  28
ENDBRANCH  22  27
ENDBRANCH  20  21
ENDBRANCH   2  20
TORSDOF 8
ENDMDL
MODEL 3
REMARK VINA RESULT:      -9.4      2.760      9.802
REMARK  8 active torsions:
REMARK  status: ('A' for Active; 'I' for Inactive)
REMARK    1  A    between atoms: C_7  and  C_8 
REMARK    2  A    between atoms: C_8  and  O_9 
REMARK    3  A    between atoms: O_9  and  C_10 
REMARK    4  A    between atoms: C_12  and  C_13 
REMARK       I    between atoms: C_13  and  N_14 
REMARK    5  A    between atoms: N_14  and  C_15 
REMARK    6  A    between atoms: C_15  and  C_16 
REMARK    7  A    between atoms: C_17  and  C_18 
REMARK    8  A    between atoms: C_18  and  N_19 
ROOT
HETATM    1  C   UNL     1      25.801  46.590  50.530  1.00  0.00     0.252 C 
HETATM    2  N   UNL     1      25.104  46.699  51.721  1.00  0.00    -0.353 N 
HETATM    3  O   UNL     1      26.343  45.550  50.176  1.00  0.00    -0.268 OA
HETATM    4  H   UNL     1      24.902  47.635  52.053  1.00  0.00     0.163 HD
ENDROOT
BRANCH   1   5
HETATM    5  C   UNL     1      25.935  47.838  49.739  1.00  0.00     0.034 A 
HETATM    6  C   UNL     1      24.783  48.386  49.163  1.00  0.00     0.053 A 
HETATM    7  C   UNL     1      24.866  49.525  48.357  1.00  0.00     0.070 A 
HETATM    8  C   UNL     1      26.105  50.141  48.170  1.00  0.00     0.037 A 
HETATM    9  C   UNL     1      27.255  49.607  48.763  1.00  0.00     0.004 A 
HETATM   10  C   UNL     1      27.175  48.451  49.541  1.00  0.00     0.017 A 
BRANCH   7  11
HETATM   11  O   UNL     1      23.677  49.925  47.816  1.00  0.00    -0.346 OA
BRANCH  11  12
HETATM   12  C   UNL     1      22.619  50.259  48.717  1.00  0.00     0.219 C 
BRANCH  12  13
HETATM   13  C   UNL     1      21.310  49.847  48.148  1.00  0.00     0.024 A 
HETATM   14  C   UNL     1      20.113  50.604  48.031  1.00  0.00     0.069 A 
HETATM   15  C   UNL     1      19.859  52.002  48.454  1.00  0.00     0.073 C 
HETATM   16  N   UNL     1      19.138  49.894  47.454  1.00  0.00    -0.133 NA
HETATM   17  O   UNL     1      19.678  48.651  47.196  1.00  0.00    -0.217 OA
HETATM   18  C   UNL     1      20.971  48.623  47.612  1.00  0.00     0.085 A 
HETATM   19  C   UNL     1      21.696  47.355  47.414  1.00  0.00     0.079 C 
ENDBRANCH  12  13
ENDBRANCH  11  12
ENDBRANCH   7  11
ENDBRANCH   1   5
BRANCH   2  20
HETATM   20  C   UNL     1      25.285  45.660  52.703  1.00  0.00     0.162 C 
BRANCH  20  21
HETATM   21  C   UNL     1      26.414  45.966  53.655  1.00  0.00    -0.033 A 
HETATM   22  C   UNL     1      27.122  44.980  54.380  1.00  0.00    -0.025 A 
HETATM   23  C   UNL     1      28.133  45.390  55.275  1.00  0.00     0.009 A 
HETATM   24  C   UNL     1      28.450  46.738  55.440  1.00  0.00     0.001 A 
HETATM   25  C   UNL     1      27.764  47.703  54.715  1.00  0.00     0.001 A 
HETATM   26  C   UNL     1      26.756  47.322  53.833  1.00  0.00     0.009 A 
BRANCH  22  27
HETATM   27  C   UNL     1      26.868  43.498  54.228  1.00  0.00     0.274 C 
BRANCH  27  28
HETATM   28  N   UNL     1      27.458  42.898  52.968  1.00  0.00    -0.067 N 
HETATM   29  H   UNL     1      26.690  42.805  52.293  1.00  0.00     0.280 HD
HETATM   30  C   UNL     1      28.059  41.533  53.187  1.00  0.00     0.235 C 
HETATM   31  C   UNL     1      29.487  41.834  53.587  1.00  0.00     0.029 C 
HETATM   32  C   UNL     1      29.859  43.097  52.827  1.00  0.00     0.029 C 
HETATM   33  C   UNL     1      28.557  43.698  52.317  1.00  0.00     0.235 C 
ENDBRANCH  27  28
ENDBRANCH  22  27
ENDBRANCH  20  21
ENDBRANCH   2  20
TORSDOF 8
ENDMDL
MODEL 4
REMARK VINA RESULT:      -9.3      2.495      8.030
REMARK  8 active torsions:
REMARK  status: ('A' for Active; 'I' for Inactive)
REMARK    1  A    between atoms: C_7  and  C_8 
REMARK    2  A    between atoms: C_8  and  O_9 
REMARK    3  A    between atoms: O_9  and  C_10 
REMARK    4  A    between atoms: C_12  and  C_13 
REMARK       I    between atoms: C_13  and  N_14 
REMARK    5  A    between atoms: N_14  and  C_15 
REMARK    6  A    between atoms: C_15  and  C_16 
REMARK    7  A    between atoms: C_17  and  C_18 
REMARK    8  A    between atoms: C_18  and  N_19 
ROOT
HETATM    1  C   UNL     1      25.507  44.101  52.833  1.00  0.00     0.252 C 
HETATM    2  N   UNL     1      26.826  43.782  53.106  1.00  0.00    -0.353 N 
HETATM    3  O   UNL     1      24.661  44.211  53.713  1.00  0.00    -0.268 OA
HETATM    4  H   UNL     1      27.395  43.471  52.327  1.00  0.00     0.163 HD
ENDROOT
BRANCH   1   5
HETATM    5  C   UNL     1      25.148  44.215  51.399  1.00  0.00     0.034 A 
HETATM    6  C   UNL     1      24.589  45.415  50.948  1.00  0.00     0.053 A 
HETATM    7  C   UNL     1      24.176  45.550  49.619  1.00  0.00     0.070 A 
HETATM    8  C   UNL     1      24.372  44.491  48.731  1.00  0.00     0.037 A 
HETATM    9  C   UNL     1      24.952  43.297  49.175  1.00  0.00     0.004 A 
HETATM   10  C   UNL     1      25.334  43.152  50.510  1.00  0.00     0.017 A 
BRANCH   7  11
HETATM   11  O   UNL     1      23.599  46.753  49.324  1.00  0.00    -0.346 OA
BRANCH  11  12
HETATM   12  C   UNL     1      24.133  47.917  49.959  1.00  0.00     0.219 C 
BRANCH  12  13
HETATM   13  C   UNL     1      24.615  48.884  48.939  1.00  0.00     0.024 A 
HETATM   14  C   UNL     1      25.952  49.229  48.602  1.00  0.00     0.069 A 
HETATM   15  C   UNL     1      27.213  48.715  49.186  1.00  0.00     0.073 C 
HETATM   16  N   UNL     1      25.991  50.137  47.621  1.00  0.00    -0.133 NA
HETATM   17  O   UNL     1      24.676  50.414  47.309  1.00  0.00    -0.217 OA
HETATM   18  C   UNL     1      23.857  49.669  48.096  1.00  0.00     0.085 A 
HETATM   19  C   UNL     1      22.408  49.853  47.894  1.00  0.00     0.079 C 
ENDBRANCH  12  13
ENDBRANCH  11  12
ENDBRANCH   7  11
ENDBRANCH   1   5
BRANCH   2  20
HETATM   20  C   UNL     1      27.137  43.267  54.415  1.00  0.00     0.162 C 
BRANCH  20  21
HETATM   21  C   UNL     1      28.517  43.670  54.872  1.00  0.00    -0.033 A 
HETATM   22  C   UNL     1      28.813  44.909  55.486  1.00  0.00    -0.025 A 
HETATM   23  C   UNL     1      30.151  45.193  55.832  1.00  0.00     0.009 A 
HETATM   24  C   UNL     1      31.170  44.271  55.596  1.00  0.00     0.001 A 
HETATM   25  C   UNL     1      30.875  43.049  55.008  1.00  0.00     0.001 A 
HETATM   26  C   UNL     1      29.563  42.752  54.648  1.00  0.00     0.009 A 
BRANCH  22  27
HETATM   27  C   UNL     1      27.761  45.943  55.813  1.00  0.00     0.274 C 
BRANCH  27  28
HETATM   28  N   UNL     1      27.834  47.189  54.954  1.00  0.00    -0.067 N 
HETATM   29  H   UNL     1      28.829  47.396  54.812  1.00  0.00     0.280 HD
HETATM   30  C   UNL     1      27.190  48.391  55.598  1.00  0.00     0.235 C 
HETATM   31  C   UNL     1      25.745  48.298  55.158  1.00  0.00     0.029 C 
HETATM   32  C   UNL     1      25.788  47.676  53.771  1.00  0.00     0.029 C 
HETATM   33  C   UNL     1      27.180  47.087  53.600  1.00  0.00     0.235 C 
ENDBRANCH  27  28
ENDBRANCH  22  27
ENDBRANCH  20  21
ENDBRANCH   2  20
TORSDOF 8
ENDMDL
MODEL 5
REMARK VINA RESULT:      -9.3      2.847      7.637
REMARK  8 active torsions:
REMARK  status: ('A' for Active; 'I' for Inactive)
REMARK    1  A    between atoms: C_7  and  C_8 
REMARK    2  A    between atoms: C_8  and  O_9 
REMARK    3  A    between atoms: O_9  and  C_10 
REMARK    4  A    between atoms: C_12  and  C_13 
REMARK       I    between atoms: C_13  and  N_14 
REMARK    5  A    between atoms: N_14  and  C_15 
REMARK    6  A    between atoms: C_15  and  C_16 
REMARK    7  A    between atoms: C_17  and  C_18 
REMARK    8  A    between atoms: C_18  and  N_19 
ROOT
HETATM    1  C   UNL     1      28.510  42.021  52.787  1.00  0.00     0.252 C 
HETATM    2  N   UNL     1      29.223  43.147  53.162  1.00  0.00    -0.353 N 
HETATM    3  O   UNL     1      28.694  40.923  53.299  1.00  0.00    -0.268 OA
HETATM    4  H   UNL     1      29.190  43.943  52.536  1.00  0.00     0.163 HD
ENDROOT
BRANCH   1   5
HETATM    5  C   UNL     1      27.564  42.197  51.658  1.00  0.00     0.034 A 
HETATM    6  C   UNL     1      27.658  43.362  50.889  1.00  0.00     0.053 A 
HETATM    7  C   UNL     1      26.750  43.603  49.854  1.00  0.00     0.070 A 
HETATM    8  C   UNL     1      25.775  42.647  49.562  1.00  0.00     0.037 A 
HETATM    9  C   UNL     1      25.694  41.471  50.317  1.00  0.00     0.004 A 
HETATM   10  C   UNL     1      26.581  41.246  51.371  1.00  0.00     0.017 A 
BRANCH   7  11
HETATM   11  O   UNL     1      26.920  44.800  49.217  1.00  0.00    -0.346 OA
BRANCH  11  12
HETATM   12  C   UNL     1      27.197  45.946  50.025  1.00  0.00     0.219 C 
BRANCH  12  13
HETATM   13  C   UNL     1      26.224  47.030  49.730  1.00  0.00     0.024 A 
HETATM   14  C   UNL     1      26.479  48.383  49.380  1.00  0.00     0.069 A 
HETATM   15  C   UNL     1      27.784  49.066  49.223  1.00  0.00     0.073 C 
HETATM   16  N   UNL     1      25.343  49.060  49.181  1.00  0.00    -0.133 NA
HETATM   17  O   UNL     1      24.322  48.162  49.413  1.00  0.00    -0.217 OA
HETATM   18  C   UNL     1      24.847  46.954  49.743  1.00  0.00     0.085 A 
HETATM   19  C   UNL     1      23.883  45.876  50.031  1.00  0.00     0.079 C 
ENDBRANCH  12  13
ENDBRANCH  11  12
ENDBRANCH   7  11
ENDBRANCH   1   5
BRANCH   2  20
HETATM   20  C   UNL     1      30.416  42.956  53.948  1.00  0.00     0.162 C 
BRANCH  20  21
HETATM   21  C   UNL     1      30.384  43.745  55.233  1.00  0.00    -0.033 A 
HETATM   22  C   UNL     1      29.560  44.875  55.442  1.00  0.00    -0.025 A 
HETATM   23  C   UNL     1      29.648  45.561  56.673  1.00  0.00     0.009 A 
HETATM   24  C   UNL     1      30.513  45.134  57.679  1.00  0.00     0.001 A 
HETATM   25  C   UNL     1      31.309  44.014  57.477  1.00  0.00     0.001 A 
HETATM   26  C   UNL     1      31.247  43.328  56.267  1.00  0.00     0.009 A 
BRANCH  22  27
HETATM   27  C   UNL     1      28.567  45.377  54.420  1.00  0.00     0.274 C 
BRANCH  27  28
HETATM   28  N   UNL     1      27.193  45.670  54.988  1.00  0.00    -0.067 N 
HETATM   29  H   UNL     1      27.274  45.615  56.009  1.00  0.00     0.280 HD
HETATM   30  C   UNL     1      26.145  44.682  54.544  1.00  0.00     0.235 C 
HETATM   31  C   UNL     1      25.623  45.273  53.253  1.00  0.00     0.029 C 
HETATM   32  C   UNL     1      25.715  46.780  53.437  1.00  0.00     0.029 C 
HETATM   33  C   UNL     1      26.617  47.019  54.638  1.00  0.00     0.235 C 
ENDBRANCH  27  28
ENDBRANCH  22  27
ENDBRANCH  20  21
ENDBRANCH   2  20
TORSDOF 8
ENDMDL
MODEL 6
REMARK VINA RESULT:      -8.8      1.116      1.517
REMARK  8 active torsions:
REMARK  status: ('A' for Active; 'I' for Inactive)
REMARK    1  A    between atoms: C_7  and  C_8 
REMARK    2  A    between atoms: C_8  and  O_9 
REMARK    3  A    between atoms: O_9  and  C_10 
REMARK    4  A    between atoms: C_12  and  C_13 
REMARK       I    between atoms: C_13  and  N_14 
REMARK    5  A    between atoms: N_14  and  C_15 
REMARK    6  A    between atoms: C_15  and  C_16 
REMARK    7  A    between atoms: C_17  and  C_18 
REMARK    8  A    between atoms: C_18  and  N_19 
ROOT
HETATM    1  C   UNL     1      25.625  44.765  51.871  1.00  0.00     0.252 C 
HETATM    2  N   UNL     1      25.865  45.761  50.941  1.00  0.00    -0.353 N 
HETATM    3  O   UNL     1      24.554  44.655  52.458  1.00  0.00    -0.268 OA
HETATM    4  H   UNL     1      26.832  45.933  50.690  1.00  0.00     0.163 HD
ENDROOT
BRANCH   1   5
HETATM    5  C   UNL     1      26.773  43.882  52.190  1.00  0.00     0.034 A 
HETATM    6  C   UNL     1      27.379  44.008  53.445  1.00  0.00     0.053 A 
HETATM    7  C   UNL     1      28.502  43.243  53.771  1.00  0.00     0.070 A 
HETATM    8  C   UNL     1      28.988  42.314  52.848  1.00  0.00     0.037 A 
HETATM    9  C   UNL     1      28.369  42.171  51.600  1.00  0.00     0.004 A 
HETATM   10  C   UNL     1      27.267  42.959  51.265  1.00  0.00     0.017 A 
BRANCH   7  11
HETATM   11  O   UNL     1      29.026  43.501  55.006  1.00  0.00    -0.346 OA
BRANCH  11  12
HETATM   12  C   UNL     1      29.695  44.750  55.193  1.00  0.00     0.219 C 
BRANCH  12  13
HETATM   13  C   UNL     1      30.170  44.874  56.596  1.00  0.00     0.024 A 
HETATM   14  C   UNL     1      31.240  44.193  57.236  1.00  0.00     0.069 A 
HETATM   15  C   UNL     1      32.158  43.177  56.669  1.00  0.00     0.073 C 
HETATM   16  N   UNL     1      31.372  44.575  58.511  1.00  0.00    -0.133 NA
HETATM   17  O   UNL     1      30.377  45.506  58.731  1.00  0.00    -0.217 OA
HETATM   18  C   UNL     1      29.660  45.681  57.591  1.00  0.00     0.085 A 
HETATM   19  C   UNL     1      28.545  46.644  57.659  1.00  0.00     0.079 C 
ENDBRANCH  12  13
ENDBRANCH  11  12
ENDBRANCH   7  11
ENDBRANCH   1   5
BRANCH   2  20
HETATM   20  C   UNL     1      24.948  46.872  50.893  1.00  0.00     0.162 C 
BRANCH  20  21
HETATM   21  C   UNL     1      25.418  47.959  49.959  1.00  0.00    -0.033 A 
HETATM   22  C   UNL     1      24.549  48.780  49.205  1.00  0.00    -0.025 A 
HETATM   23  C   UNL     1      25.107  49.737  48.330  1.00  0.00     0.009 A 
HETATM   24  C   UNL     1      26.487  49.891  48.213  1.00  0.00     0.001 A 
HETATM   25  C   UNL     1      27.339  49.095  48.966  1.00  0.00     0.001 A 
HETATM   26  C   UNL     1      26.811  48.137  49.828  1.00  0.00     0.009 A 
BRANCH  22  27
HETATM   27  C   UNL     1      23.043  48.704  49.306  1.00  0.00     0.274 C 
BRANCH  27  28
HETATM   28  N   UNL     1      22.346  48.508  47.974  1.00  0.00    -0.067 N 
HETATM   29  H   UNL     1      22.977  48.870  47.251  1.00  0.00     0.280 HD
HETATM   30  C   UNL     1      21.039  49.253  47.874  1.00  0.00     0.235 C 
HETATM   31  C   UNL     1      20.028  48.273  48.429  1.00  0.00     0.029 C 
HETATM   32  C   UNL     1      20.550  46.898  48.043  1.00  0.00     0.029 C 
HETATM   33  C   UNL     1      22.000  47.084  47.622  1.00  0.00     0.235 C 
ENDBRANCH  27  28
ENDBRANCH  22  27
ENDBRANCH  20  21
ENDBRANCH   2  20
TORSDOF 8
ENDMDL
MODEL 7
REMARK VINA RESULT:      -8.8      2.109      3.260
REMARK  8 active torsions:
REMARK  status: ('A' for Active; 'I' for Inactive)
REMARK    1  A    between atoms: C_7  and  C_8 
REMARK    2  A    between atoms: C_8  and  O_9 
REMARK    3  A    between atoms: O_9  and  C_10 
REMARK    4  A    between atoms: C_12  and  C_13 
REMARK       I    between atoms: C_13  and  N_14 
REMARK    5  A    between atoms: N_14  and  C_15 
REMARK    6  A    between atoms: C_15  and  C_16 
REMARK    7  A    between atoms: C_17  and  C_18 
REMARK    8  A    between atoms: C_18  and  N_19 
ROOT
HETATM    1  C   UNL     1      25.307  46.400  51.627  1.00  0.00     0.252 C 
HETATM    2  N   UNL     1      24.352  45.940  50.737  1.00  0.00    -0.353 N 
HETATM    3  O   UNL     1      25.653  47.575  51.672  1.00  0.00    -0.268 OA
HETATM    4  H   UNL     1      24.302  44.937  50.593  1.00  0.00     0.163 HD
ENDROOT
BRANCH   1   5
HETATM    5  C   UNL     1      25.962  45.370  52.470  1.00  0.00     0.034 A 
HETATM    6  C   UNL     1      26.573  45.777  53.661  1.00  0.00     0.053 A 
HETATM    7  C   UNL     1      27.257  44.855  54.458  1.00  0.00     0.070 A 
HETATM    8  C   UNL     1      27.284  43.511  54.080  1.00  0.00     0.037 A 
HETATM    9  C   UNL     1      26.654  43.099  52.900  1.00  0.00     0.004 A 
HETATM   10  C   UNL     1      26.000  44.026  52.088  1.00  0.00     0.017 A 
BRANCH   7  11
HETATM   11  O   UNL     1      27.851  45.392  55.565  1.00  0.00    -0.346 OA
BRANCH  11  12
HETATM   12  C   UNL     1      29.193  45.866  55.431  1.00  0.00     0.219 C 
BRANCH  12  13
HETATM   13  C   UNL     1      30.134  44.948  56.125  1.00  0.00     0.024 A 
HETATM   14  C   UNL     1      30.692  45.065  57.427  1.00  0.00     0.069 A 
HETATM   15  C   UNL     1      30.484  46.137  58.428  1.00  0.00     0.073 C 
HETATM   16  N   UNL     1      31.495  44.034  57.710  1.00  0.00    -0.133 NA
HETATM   17  O   UNL     1      31.487  43.230  56.588  1.00  0.00    -0.217 OA
HETATM   18  C   UNL     1      30.678  43.777  55.645  1.00  0.00     0.085 A 
HETATM   19  C   UNL     1      30.564  43.040  54.372  1.00  0.00     0.079 C 
ENDBRANCH  12  13
ENDBRANCH  11  12
ENDBRANCH   7  11
ENDBRANCH   1   5
BRANCH   2  20
HETATM   20  C   UNL     1      23.987  46.798  49.639  1.00  0.00     0.162 C 
BRANCH  20  21
HETATM   21  C   UNL     1      22.981  46.149  48.720  1.00  0.00    -0.033 A 
HETATM   22  C   UNL     1      21.749  46.741  48.358  1.00  0.00    -0.025 A 
HETATM   23  C   UNL     1      20.868  46.019  47.525  1.00  0.00     0.009 A 
HETATM   24  C   UNL     1      21.200  44.753  47.045  1.00  0.00     0.001 A 
HETATM   25  C   UNL     1      22.418  44.181  47.389  1.00  0.00     0.001 A 
HETATM   26  C   UNL     1      23.298  44.871  48.219  1.00  0.00     0.009 A 
BRANCH  22  27
HETATM   27  C   UNL     1      21.332  48.124  48.802  1.00  0.00     0.274 C 
BRANCH  27  28
HETATM   28  N   UNL     1      21.429  49.174  47.714  1.00  0.00    -0.067 N 
HETATM   29  H   UNL     1      21.450  48.675  46.817  1.00  0.00     0.280 HD
HETATM   30  C   UNL     1      22.676  50.017  47.812  1.00  0.00     0.235 C 
HETATM   31  C   UNL     1      22.267  51.151  48.726  1.00  0.00     0.029 C 
HETATM   32  C   UNL     1      20.793  51.387  48.437  1.00  0.00     0.029 C 
HETATM   33  C   UNL     1      20.299  50.171  47.667  1.00  0.00     0.235 C 
ENDBRANCH  27  28
ENDBRANCH  22  27
ENDBRANCH  20  21
ENDBRANCH   2  20
TORSDOF 8
ENDMDL
MODEL 8
REMARK VINA RESULT:      -8.6      2.350      3.854
REMARK  8 active torsions:
REMARK  status: ('A' for Active; 'I' for Inactive)
REMARK    1  A    between atoms: C_7  and  C_8 
REMARK    2  A    between atoms: C_8  and  O_9 
REMARK    3  A    between atoms: O_9  and  C_10 
REMARK    4  A    between atoms: C_12  and  C_13 
REMARK       I    between atoms: C_13  and  N_14 
REMARK    5  A    between atoms: N_14  and  C_15 
REMARK    6  A    between atoms: C_15  and  C_16 
REMARK    7  A    between atoms: C_17  and  C_18 
REMARK    8  A    between atoms: C_18  and  N_19 
ROOT
HETATM    1  C   UNL     1      24.919  47.718  49.958  1.00  0.00     0.252 C 
HETATM    2  N   UNL     1      23.542  47.603  49.895  1.00  0.00    -0.353 N 
HETATM    3  O   UNL     1      25.517  48.713  49.566  1.00  0.00    -0.268 OA
HETATM    4  H   UNL     1      23.151  46.674  50.004  1.00  0.00     0.163 HD
ENDROOT
BRANCH   1   5
HETATM    5  C   UNL     1      25.650  46.523  50.448  1.00  0.00     0.034 A 
HETATM    6  C   UNL     1      26.009  46.472  51.799  1.00  0.00     0.053 A 
HETATM    7  C   UNL     1      26.752  45.398  52.296  1.00  0.00     0.070 A 
HETATM    8  C   UNL     1      27.093  44.348  51.440  1.00  0.00     0.037 A 
HETATM    9  C   UNL     1      26.715  44.387  50.093  1.00  0.00     0.004 A 
HETATM   10  C   UNL     1      26.001  45.476  49.591  1.00  0.00     0.017 A 
BRANCH   7  11
HETATM   11  O   UNL     1      27.081  45.498  53.618  1.00  0.00    -0.346 OA
BRANCH  11  12
HETATM   12  C   UNL     1      27.263  44.283  54.348  1.00  0.00     0.219 C 
BRANCH  12  13
HETATM   13  C   UNL     1      28.688  44.130  54.745  1.00  0.00     0.024 A 
HETATM   14  C   UNL     1      29.647  43.194  54.273  1.00  0.00     0.069 A 
HETATM   15  C   UNL     1      29.472  42.122  53.265  1.00  0.00     0.073 C 
HETATM   16  N   UNL     1      30.835  43.371  54.861  1.00  0.00    -0.133 NA
HETATM   17  O   UNL     1      30.668  44.420  55.742  1.00  0.00    -0.217 OA
HETATM   18  C   UNL     1      29.388  44.869  55.674  1.00  0.00     0.085 A 
HETATM   19  C   UNL     1      29.040  45.992  56.564  1.00  0.00     0.079 C 
ENDBRANCH  12  13
ENDBRANCH  11  12
ENDBRANCH   7  11
ENDBRANCH   1   5
BRANCH   2  20
HETATM   20  C   UNL     1      22.826  48.542  49.068  1.00  0.00     0.162 C 
BRANCH  20  21
HETATM   21  C   UNL     1      21.868  47.857  48.127  1.00  0.00    -0.033 A 
HETATM   22  C   UNL     1      20.753  48.494  47.536  1.00  0.00    -0.025 A 
HETATM   23  C   UNL     1      19.900  47.738  46.703  1.00  0.00     0.009 A 
HETATM   24  C   UNL     1      20.150  46.391  46.445  1.00  0.00     0.001 A 
HETATM   25  C   UNL     1      21.255  45.772  47.012  1.00  0.00     0.001 A 
HETATM   26  C   UNL     1      22.104  46.496  47.846  1.00  0.00     0.009 A 
BRANCH  22  27
HETATM   27  C   UNL     1      20.435  49.959  47.733  1.00  0.00     0.274 C 
BRANCH  27  28
HETATM   28  N   UNL     1      18.987  50.234  48.082  1.00  0.00    -0.067 N 
HETATM   29  H   UNL     1      18.441  49.432  47.747  1.00  0.00     0.280 HD
HETATM   30  C   UNL     1      18.445  51.478  47.426  1.00  0.00     0.235 C 
HETATM   31  C   UNL     1      18.782  52.575  48.412  1.00  0.00     0.029 C 
HETATM   32  C   UNL     1      18.699  51.921  49.783  1.00  0.00     0.029 C 
HETATM   33  C   UNL     1      18.693  50.418  49.549  1.00  0.00     0.235 C 
ENDBRANCH  27  28
ENDBRANCH  22  27
ENDBRANCH  20  21
ENDBRANCH   2  20
TORSDOF 8
ENDMDL
MODEL 9
REMARK VINA RESULT:      -8.5      2.847      5.951
REMARK  8 active torsions:
REMARK  status: ('A' for Active; 'I' for Inactive)
REMARK    1  A    between atoms: C_7  and  C_8 
REMARK    2  A    between atoms: C_8  and  O_9 
REMARK    3  A    between atoms: O_9  and  C_10 
REMARK    4  A    between atoms: C_12  and  C_13 
REMARK       I    between atoms: C_13  and  N_14 
REMARK    5  A    between atoms: N_14  and  C_15 
REMARK    6  A    between atoms: C_15  and  C_16 
REMARK    7  A    between atoms: C_17  and  C_18 
REMARK    8  A    between atoms: C_18  and  N_19 
ROOT
HETATM    1  C   UNL     1      23.830  50.155  48.286  1.00  0.00     0.252 C 
HETATM    2  N   UNL     1      22.861  50.338  49.257  1.00  0.00    -0.353 N 
HETATM    3  O   UNL     1      23.670  50.500  47.121  1.00  0.00    -0.268 OA
HETATM    4  H   UNL     1      22.966  49.814  50.118  1.00  0.00     0.163 HD
ENDROOT
BRANCH   1   5
HETATM    5  C   UNL     1      25.051  49.428  48.715  1.00  0.00     0.034 A 
HETATM    6  C   UNL     1      24.897  48.238  49.434  1.00  0.00     0.053 A 
HETATM    7  C   UNL     1      26.015  47.550  49.914  1.00  0.00     0.070 A 
HETATM    8  C   UNL     1      27.293  48.036  49.626  1.00  0.00     0.037 A 
HETATM    9  C   UNL     1      27.448  49.214  48.887  1.00  0.00     0.004 A 
HETATM   10  C   UNL     1      26.330  49.918  48.437  1.00  0.00     0.017 A 
BRANCH   7  11
HETATM   11  O   UNL     1      25.724  46.433  50.645  1.00  0.00    -0.346 OA
BRANCH  11  12
HETATM   12  C   UNL     1      25.278  46.621  51.990  1.00  0.00     0.219 C 
BRANCH  12  13
HETATM   13  C   UNL     1      26.287  46.090  52.944  1.00  0.00     0.024 A 
HETATM   14  C   UNL     1      27.035  44.885  52.868  1.00  0.00     0.069 A 
HETATM   15  C   UNL     1      26.999  43.840  51.818  1.00  0.00     0.073 C 
HETATM   16  N   UNL     1      27.856  44.751  53.915  1.00  0.00    -0.133 NA
HETATM   17  O   UNL     1      27.647  45.864  54.704  1.00  0.00    -0.217 OA
HETATM   18  C   UNL     1      26.710  46.659  54.126  1.00  0.00     0.085 A 
HETATM   19  C   UNL     1      26.362  47.896  54.851  1.00  0.00     0.079 C 
ENDBRANCH  12  13
ENDBRANCH  11  12
ENDBRANCH   7  11
ENDBRANCH   1   5
BRANCH   2  20
HETATM   20  C   UNL     1      21.525  50.658  48.821  1.00  0.00     0.162 C 
BRANCH  20  21
HETATM   21  C   UNL     1      20.591  49.479  48.937  1.00  0.00    -0.033 A 
HETATM   22  C   UNL     1      19.331  49.532  49.577  1.00  0.00    -0.025 A 
HETATM   23  C   UNL     1      18.562  48.352  49.662  1.00  0.00     0.009 A 
HETATM   24  C   UNL     1      19.015  47.153  49.115  1.00  0.00     0.001 A 
HETATM   25  C   UNL     1      20.245  47.106  48.473  1.00  0.00     0.001 A 
HETATM   26  C   UNL     1      21.026  48.256  48.386  1.00  0.00     0.009 A 
BRANCH  22  27
HETATM   27  C   UNL     1      18.751  50.801  50.159  1.00  0.00     0.274 C 
BRANCH  27  28
HETATM   28  N   UNL     1      18.178  51.747  49.124  1.00  0.00    -0.067 N 
HETATM   29  H   UNL     1      18.967  52.271  48.727  1.00  0.00     0.280 HD
HETATM   30  C   UNL     1      17.200  52.737  49.703  1.00  0.00     0.235 C 
HETATM   31  C   UNL     1      15.873  52.014  49.625  1.00  0.00     0.029 C 
HETATM   32  C   UNL     1      15.963  51.147  48.378  1.00  0.00     0.029 C 
HETATM   33  C   UNL     1      17.432  51.096  47.987  1.00  0.00     0.235 C 
ENDBRANCH  27  28
ENDBRANCH  22  27
ENDBRANCH  20  21
ENDBRANCH   2  20
TORSDOF 8
ENDMDL
MODEL 10
REMARK VINA RESULT:      -8.4      2.821      9.809
REMARK  8 active torsions:
REMARK  status: ('A' for Active; 'I' for Inactive)
REMARK    1  A    between atoms: C_7  and  C_8 
REMARK    2  A    between atoms: C_8  and  O_9 
REMARK    3  A    between atoms: O_9  and  C_10 
REMARK    4  A    between atoms: C_12  and  C_13 
REMARK       I    between atoms: C_13  and  N_14 
REMARK    5  A    between atoms: N_14  and  C_15 
REMARK    6  A    between atoms: C_15  and  C_16 
REMARK    7  A    between atoms: C_17  and  C_18 
REMARK    8  A    between atoms: C_18  and  N_19 
ROOT
HETATM    1  C   UNL     1      24.974  45.889  50.954  1.00  0.00     0.252 C 
HETATM    2  N   UNL     1      25.189  45.966  52.319  1.00  0.00    -0.353 N 
HETATM    3  O   UNL     1      24.674  44.843  50.392  1.00  0.00    -0.268 OA
HETATM    4  H   UNL     1      25.666  46.791  52.665  1.00  0.00     0.163 HD
ENDROOT
BRANCH   1   5
HETATM    5  C   UNL     1      25.219  47.135  50.186  1.00  0.00     0.034 A 
HETATM    6  C   UNL     1      24.113  47.867  49.739  1.00  0.00     0.053 A 
HETATM    7  C   UNL     1      24.290  49.013  48.959  1.00  0.00     0.070 A 
HETATM    8  C   UNL     1      25.584  49.451  48.669  1.00  0.00     0.037 A 
HETATM    9  C   UNL     1      26.691  48.732  49.135  1.00  0.00     0.004 A 
HETATM   10  C   UNL     1      26.513  47.570  49.887  1.00  0.00     0.017 A 
BRANCH   7  11
HETATM   11  O   UNL     1      23.129  49.602  48.544  1.00  0.00    -0.346 OA
BRANCH  11  12
HETATM   12  C   UNL     1      21.902  49.083  49.063  1.00  0.00     0.219 C 
BRANCH  12  13
HETATM   13  C   UNL     1      20.791  49.344  48.111  1.00  0.00     0.024 A 
HETATM   14  C   UNL     1      20.230  48.473  47.137  1.00  0.00     0.069 A 
HETATM   15  C   UNL     1      20.614  47.078  46.816  1.00  0.00     0.073 C 
HETATM   16  N   UNL     1      19.232  49.062  46.470  1.00  0.00    -0.133 NA
HETATM   17  O   UNL     1      19.133  50.337  46.987  1.00  0.00    -0.217 OA
HETATM   18  C   UNL     1      20.063  50.505  47.962  1.00  0.00     0.085 A 
HETATM   19  C   UNL     1      20.096  51.826  48.617  1.00  0.00     0.079 C 
ENDBRANCH  12  13
ENDBRANCH  11  12
ENDBRANCH   7  11
ENDBRANCH   1   5
BRANCH   2  20
HETATM   20  C   UNL     1      25.365  44.732  53.043  1.00  0.00     0.162 C 
BRANCH  20  21
HETATM   21  C   UNL     1      26.782  44.552  53.525  1.00  0.00    -0.033 A 
HETATM   22  C   UNL     1      27.752  43.777  52.848  1.00  0.00    -0.025 A 
HETATM   23  C   UNL     1      29.036  43.646  53.419  1.00  0.00     0.009 A 
HETATM   24  C   UNL     1      29.362  44.277  54.619  1.00  0.00     0.001 A 
HETATM   25  C   UNL     1      28.413  45.051  55.273  1.00  0.00     0.001 A 
HETATM   26  C   UNL     1      27.137  45.186  54.733  1.00  0.00     0.009 A 
BRANCH  22  27
HETATM   27  C   UNL     1      27.491  43.095  51.525  1.00  0.00     0.274 C 
BRANCH  27  28
HETATM   28  N   UNL     1      27.085  41.640  51.652  1.00  0.00    -0.067 N 
HETATM   29  H   UNL     1      26.770  41.501  52.618  1.00  0.00     0.280 HD
HETATM   30  C   UNL     1      28.219  40.683  51.385  1.00  0.00     0.235 C 
HETATM   31  C   UNL     1      28.154  40.464  49.889  1.00  0.00     0.029 C 
HETATM   32  C   UNL     1      26.678  40.556  49.535  1.00  0.00     0.029 C 
HETATM   33  C   UNL     1      25.981  41.188  50.730  1.00  0.00     0.235 C 
ENDBRANCH  27  28
ENDBRANCH  22  27
ENDBRANCH  20  21
ENDBRANCH   2  20
TORSDOF 8
ENDMDL
