MODEL 1
REMARK VINA RESULT:      -8.5      0.000      0.000
REMARK  4 active torsions:
REMARK  status: ('A' for Active; 'I' for Inactive)
REMARK    1  A    between atoms: N_1  and  C_2 
REMARK    2  A    between atoms: C_2  and  C_3 
REMARK    3  A    between atoms: C_2  and  C_16 
REMARK       I    between atoms: C_3  and  N_5 
REMARK    4  A    between atoms: N_5  and  C_6 
ROOT
HETATM    1  C   UNL     1      25.786  46.187  53.155  1.00  0.00     0.260 C 
HETATM    2  O   UNL     1      25.715  47.254  53.764  1.00  0.00    -0.270 OA
HETATM    3  N   UNL     1      25.811  46.037  51.774  1.00  0.00    -0.325 N 
HETATM    4  H   UNL     1      25.956  45.098  51.423  1.00  0.00     0.169 HD
ENDROOT
BRANCH   1   5
HETATM    5  C   UNL     1      25.902  44.832  53.914  1.00  0.00     0.342 C 
BRANCH   5   6
HETATM    6  N   UNL     1      25.339  43.742  53.091  1.00  0.00     0.096 N 
HETATM    7  H   UNL     1      25.104  44.146  52.181  1.00  0.00     0.314 HD
HETATM    8  H   UNL     1      24.431  43.487  53.483  1.00  0.00     0.314 HD
ENDBRANCH   5   6
BRANCH   5   9
HETATM    9  C   UNL     1      27.334  44.522  54.310  1.00  0.00    -0.016 A 
HETATM   10  C   UNL     1      28.034  45.395  55.158  1.00  0.00     0.010 A 
HETATM   11  C   UNL     1      29.348  45.114  55.541  1.00  0.00     0.001 A 
HETATM   12  C   UNL     1      29.976  43.955  55.091  1.00  0.00     0.000 A 
HETATM   13  C   UNL     1      29.290  43.072  54.260  1.00  0.00     0.001 A 
HETATM   14  C   UNL     1      27.977  43.351  53.875  1.00  0.00     0.010 A 
ENDBRANCH   5   9
ENDBRANCH   1   5
BRANCH   3  15
HETATM   15  C   UNL     1      25.698  47.051  50.801  1.00  0.00     0.035 A 
HETATM   16  C   UNL     1      26.781  47.776  50.306  1.00  0.00     0.030 A 
HETATM   17  C   UNL     1      26.589  48.775  49.345  1.00  0.00     0.016 A 
HETATM   18  C   UNL     1      25.303  49.056  48.856  1.00  0.00    -0.008 A 
HETATM   19  C   UNL     1      25.056  50.034  47.889  1.00  0.00     0.128 A 
HETATM   20  C   UNL     1      24.201  48.331  49.342  1.00  0.00    -0.021 A 
HETATM   21  N   UNL     1      23.833  50.324  47.388  1.00  0.00    -0.272 NA
HETATM   22  C   UNL     1      22.798  49.606  47.871  1.00  0.00     0.117 A 
HETATM   23  C   UNL     1      22.928  48.618  48.834  1.00  0.00     0.031 A 
HETATM   24  C   UNL     1      24.412  47.342  50.322  1.00  0.00     0.042 A 
ENDBRANCH   3  15
TORSDOF 4
ENDMDL
MODEL 2
REMARK VINA RESULT:      -8.4      3.168      7.910
REMARK  4 active torsions:
REMARK  status: ('A' for Active; 'I' for Inactive)
REMARK    1  A    between atoms: N_1  and  C_2 
REMARK    2  A    between atoms: C_2  and  C_3 
REMARK    3  A    between atoms: C_2  and  C_16 
REMARK       I    between atoms: C_3  and  N_5 
REMARK    4  A    between atoms: N_5  and  C_6 
ROOT
HETATM    1  C   UNL     1      27.359  42.858  52.371  1.00  0.00     0.260 C 
HETATM    2  O   UNL     1      27.314  41.734  52.874  1.00  0.00    -0.270 OA
HETATM    3  N   UNL     1      28.155  43.911  52.800  1.00  0.00    -0.325 N 
HETATM    4  H   UNL     1      28.143  44.750  52.233  1.00  0.00     0.169 HD
ENDROOT
BRANCH   1   5
HETATM    5  C   UNL     1      26.510  43.212  51.115  1.00  0.00     0.342 C 
BRANCH   5   6
HETATM    6  N   UNL     1      25.203  42.525  51.178  1.00  0.00     0.096 N 
HETATM    7  H   UNL     1      25.397  41.525  51.267  1.00  0.00     0.314 HD
HETATM    8  H   UNL     1      24.761  42.604  50.261  1.00  0.00     0.314 HD
ENDBRANCH   5   6
BRANCH   5   9
HETATM    9  C   UNL     1      26.323  44.711  50.959  1.00  0.00    -0.016 A 
HETATM   10  C   UNL     1      26.890  45.380  49.863  1.00  0.00     0.010 A 
HETATM   11  C   UNL     1      26.713  46.756  49.700  1.00  0.00     0.001 A 
HETATM   12  C   UNL     1      25.959  47.479  50.623  1.00  0.00     0.000 A 
HETATM   13  C   UNL     1      25.378  46.826  51.708  1.00  0.00     0.001 A 
HETATM   14  C   UNL     1      25.555  45.452  51.873  1.00  0.00     0.010 A 
ENDBRANCH   5   9
ENDBRANCH   1   5
BRANCH   3  15
HETATM   15  C   UNL     1      29.016  43.933  53.918  1.00  0.00     0.035 A 
HETATM   16  C   UNL     1      30.093  43.063  54.086  1.00  0.00     0.030 A 
HETATM   17  C   UNL     1      30.898  43.141  55.227  1.00  0.00     0.016 A 
HETATM   18  C   UNL     1      30.642  44.104  56.217  1.00  0.00    -0.008 A 
HETATM   19  C   UNL     1      31.421  44.232  57.370  1.00  0.00     0.128 A 
HETATM   20  C   UNL     1      29.563  44.991  56.060  1.00  0.00    -0.021 A 
HETATM   21  N   UNL     1      31.209  45.154  58.338  1.00  0.00    -0.272 NA
HETATM   22  C   UNL     1      30.170  45.993  58.154  1.00  0.00     0.117 A 
HETATM   23  C   UNL     1      29.330  45.952  57.052  1.00  0.00     0.031 A 
HETATM   24  C   UNL     1      28.752  44.886  54.913  1.00  0.00     0.042 A 
ENDBRANCH   3  15
TORSDOF 4
ENDMDL
MODEL 3
REMARK VINA RESULT:      -8.2      2.700      8.144
REMARK  4 active torsions:
REMARK  status: ('A' for Active; 'I' for Inactive)
REMARK    1  A    between atoms: N_1  and  C_2 
REMARK    2  A    between atoms: C_2  and  C_3 
REMARK    3  A    between atoms: C_2  and  C_16 
REMARK       I    between atoms: C_3  and  N_5 
REMARK    4  A    between atoms: N_5  and  C_6 
ROOT
HETATM    1  C   UNL     1      26.331  44.150  52.896  1.00  0.00     0.260 C 
HETATM    2  O   UNL     1      25.510  44.112  53.812  1.00  0.00    -0.270 OA
HETATM    3  N   UNL     1      27.689  44.407  53.029  1.00  0.00    -0.325 N 
HETATM    4  H   UNL     1      28.251  44.322  52.191  1.00  0.00     0.169 HD
ENDROOT
BRANCH   1   5
HETATM    5  C   UNL     1      25.910  43.858  51.425  1.00  0.00     0.342 C 
BRANCH   5   6
HETATM    6  N   UNL     1      25.046  42.661  51.375  1.00  0.00     0.096 N 
HETATM    7  H   UNL     1      25.073  42.314  50.413  1.00  0.00     0.314 HD
HETATM    8  H   UNL     1      24.079  42.965  51.494  1.00  0.00     0.314 HD
ENDBRANCH   5   6
BRANCH   5   9
HETATM    9  C   UNL     1      25.218  45.048  50.785  1.00  0.00    -0.016 A 
HETATM   10  C   UNL     1      24.176  44.845  49.866  1.00  0.00     0.010 A 
HETATM   11  C   UNL     1      23.521  45.932  49.282  1.00  0.00     0.001 A 
HETATM   12  C   UNL     1      23.891  47.233  49.613  1.00  0.00     0.000 A 
HETATM   13  C   UNL     1      24.913  47.451  50.534  1.00  0.00     0.001 A 
HETATM   14  C   UNL     1      25.570  46.367  51.119  1.00  0.00     0.010 A 
ENDBRANCH   5   9
ENDBRANCH   1   5
BRANCH   3  15
HETATM   15  C   UNL     1      28.386  44.735  54.210  1.00  0.00     0.035 A 
HETATM   16  C   UNL     1      28.136  45.878  54.968  1.00  0.00     0.030 A 
HETATM   17  C   UNL     1      28.876  46.140  56.126  1.00  0.00     0.016 A 
HETATM   18  C   UNL     1      29.875  45.250  56.550  1.00  0.00    -0.008 A 
HETATM   19  C   UNL     1      30.637  45.457  57.704  1.00  0.00     0.128 A 
HETATM   20  C   UNL     1      30.138  44.091  55.799  1.00  0.00    -0.021 A 
HETATM   21  N   UNL     1      31.599  44.616  58.148  1.00  0.00    -0.272 NA
HETATM   22  C   UNL     1      31.821  43.511  57.408  1.00  0.00     0.117 A 
HETATM   23  C   UNL     1      31.131  43.209  56.244  1.00  0.00     0.031 A 
HETATM   24  C   UNL     1      29.394  43.853  54.627  1.00  0.00     0.042 A 
ENDBRANCH   3  15
TORSDOF 4
ENDMDL
MODEL 4
REMARK VINA RESULT:      -8.2      5.447      8.439
REMARK  4 active torsions:
REMARK  status: ('A' for Active; 'I' for Inactive)
REMARK    1  A    between atoms: N_1  and  C_2 
REMARK    2  A    between atoms: C_2  and  C_3 
REMARK    3  A    between atoms: C_2  and  C_16 
REMARK       I    between atoms: C_3  and  N_5 
REMARK    4  A    between atoms: N_5  and  C_6 
ROOT
HETATM    1  C   UNL     1      28.549  41.461  52.608  1.00  0.00     0.260 C 
HETATM    2  O   UNL     1      27.987  40.880  53.537  1.00  0.00    -0.270 OA
HETATM    3  N   UNL     1      29.212  42.679  52.691  1.00  0.00    -0.325 N 
HETATM    4  H   UNL     1      29.697  42.989  51.858  1.00  0.00     0.169 HD
ENDROOT
BRANCH   1   5
HETATM    5  C   UNL     1      28.608  40.835  51.184  1.00  0.00     0.342 C 
BRANCH   5   6
HETATM    6  N   UNL     1      29.030  39.421  51.271  1.00  0.00     0.096 N 
HETATM    7  H   UNL     1      29.848  39.317  50.666  1.00  0.00     0.314 HD
HETATM    8  H   UNL     1      28.318  38.851  50.813  1.00  0.00     0.314 HD
ENDBRANCH   5   6
BRANCH   5   9
HETATM    9  C   UNL     1      27.283  40.956  50.454  1.00  0.00    -0.016 A 
HETATM   10  C   UNL     1      26.359  41.943  50.833  1.00  0.00     0.010 A 
HETATM   11  C   UNL     1      25.142  42.075  50.160  1.00  0.00     0.001 A 
HETATM   12  C   UNL     1      24.836  41.231  49.095  1.00  0.00     0.000 A 
HETATM   13  C   UNL     1      25.748  40.256  48.698  1.00  0.00     0.001 A 
HETATM   14  C   UNL     1      26.965  40.122  49.369  1.00  0.00     0.010 A 
ENDBRANCH   5   9
ENDBRANCH   1   5
BRANCH   3  15
HETATM   15  C   UNL     1      29.323  43.518  53.820  1.00  0.00     0.035 A 
HETATM   16  C   UNL     1      28.524  44.641  54.034  1.00  0.00     0.030 A 
HETATM   17  C   UNL     1      28.699  45.430  55.176  1.00  0.00     0.016 A 
HETATM   18  C   UNL     1      29.674  45.098  56.130  1.00  0.00    -0.008 A 
HETATM   19  C   UNL     1      29.884  45.845  57.293  1.00  0.00     0.128 A 
HETATM   20  C   UNL     1      30.485  43.967  55.930  1.00  0.00    -0.021 A 
HETATM   21  N   UNL     1      30.807  45.549  58.237  1.00  0.00    -0.272 NA
HETATM   22  C   UNL     1      31.563  44.454  58.018  1.00  0.00     0.117 A 
HETATM   23  C   UNL     1      31.445  43.646  56.898  1.00  0.00     0.031 A 
HETATM   24  C   UNL     1      30.306  43.194  54.766  1.00  0.00     0.042 A 
ENDBRANCH   3  15
TORSDOF 4
ENDMDL
MODEL 5
REMARK VINA RESULT:      -8.0      3.899      8.234
REMARK  4 active torsions:
REMARK  status: ('A' for Active; 'I' for Inactive)
REMARK    1  A    between atoms: N_1  and  C_2 
REMARK    2  A    between atoms: C_2  and  C_3 
REMARK    3  A    between atoms: C_2  and  C_16 
REMARK       I    between atoms: C_3  and  N_5 
REMARK    4  A    between atoms: N_5  and  C_6 
ROOT
HETATM    1  C   UNL     1      27.657  42.094  52.794  1.00  0.00     0.260 C 
HETATM    2  O   UNL     1      27.567  41.247  53.683  1.00  0.00    -0.270 OA
HETATM    3  N   UNL     1      28.228  43.353  52.923  1.00  0.00    -0.325 N 
HETATM    4  H   UNL     1      28.303  43.906  52.078  1.00  0.00     0.169 HD
ENDROOT
BRANCH   1   5
HETATM    5  C   UNL     1      27.148  41.804  51.351  1.00  0.00     0.342 C 
BRANCH   5   6
HETATM    6  N   UNL     1      26.398  40.532  51.326  1.00  0.00     0.096 N 
HETATM    7  H   UNL     1      26.976  39.835  51.803  1.00  0.00     0.314 HD
HETATM    8  H   UNL     1      26.369  40.201  50.361  1.00  0.00     0.314 HD
ENDBRANCH   5   6
BRANCH   5   9
HETATM    9  C   UNL     1      26.298  42.940  50.809  1.00  0.00    -0.016 A 
HETATM   10  C   UNL     1      24.949  43.048  51.183  1.00  0.00     0.010 A 
HETATM   11  C   UNL     1      24.160  44.097  50.703  1.00  0.00     0.001 A 
HETATM   12  C   UNL     1      24.710  45.054  49.853  1.00  0.00     0.000 A 
HETATM   13  C   UNL     1      26.050  44.968  49.485  1.00  0.00     0.001 A 
HETATM   14  C   UNL     1      26.840  43.921  49.962  1.00  0.00     0.010 A 
ENDBRANCH   5   9
ENDBRANCH   1   5
BRANCH   3  15
HETATM   15  C   UNL     1      28.757  43.937  54.093  1.00  0.00     0.035 A 
HETATM   16  C   UNL     1      28.275  45.118  54.658  1.00  0.00     0.030 A 
HETATM   17  C   UNL     1      28.857  45.640  55.817  1.00  0.00     0.016 A 
HETATM   18  C   UNL     1      29.929  44.979  56.438  1.00  0.00    -0.008 A 
HETATM   19  C   UNL     1      30.540  45.452  57.603  1.00  0.00     0.128 A 
HETATM   20  C   UNL     1      30.424  43.786  55.884  1.00  0.00    -0.021 A 
HETATM   21  N   UNL     1      31.567  44.835  58.233  1.00  0.00    -0.272 NA
HETATM   22  C   UNL     1      32.013  43.690  57.679  1.00  0.00     0.117 A 
HETATM   23  C   UNL     1      31.485  43.134  56.523  1.00  0.00     0.031 A 
HETATM   24  C   UNL     1      29.836  43.284  54.706  1.00  0.00     0.042 A 
ENDBRANCH   3  15
TORSDOF 4
ENDMDL
MODEL 6
REMARK VINA RESULT:      -7.9      2.009      2.531
REMARK  4 active torsions:
REMARK  status: ('A' for Active; 'I' for Inactive)
REMARK    1  A    between atoms: N_1  and  C_2 
REMARK    2  A    between atoms: C_2  and  C_3 
REMARK    3  A    between atoms: C_2  and  C_16 
REMARK       I    between atoms: C_3  and  N_5 
REMARK    4  A    between atoms: N_5  and  C_6 
ROOT
HETATM    1  C   UNL     1      26.972  43.989  52.384  1.00  0.00     0.260 C 
HETATM    2  O   UNL     1      27.792  44.146  51.479  1.00  0.00    -0.270 OA
HETATM    3  N   UNL     1      25.696  44.535  52.431  1.00  0.00    -0.325 N 
HETATM    4  H   UNL     1      25.107  44.246  53.203  1.00  0.00     0.169 HD
ENDROOT
BRANCH   1   5
HETATM    5  C   UNL     1      27.289  43.081  53.610  1.00  0.00     0.342 C 
BRANCH   5   6
HETATM    6  N   UNL     1      27.525  41.693  53.162  1.00  0.00     0.096 N 
HETATM    7  H   UNL     1      26.611  41.234  53.122  1.00  0.00     0.314 HD
HETATM    8  H   UNL     1      28.010  41.198  53.912  1.00  0.00     0.314 HD
ENDBRANCH   5   6
BRANCH   5   9
HETATM    9  C   UNL     1      28.472  43.597  54.408  1.00  0.00    -0.016 A 
HETATM   10  C   UNL     1      28.426  44.875  54.989  1.00  0.00     0.010 A 
HETATM   11  C   UNL     1      29.502  45.355  55.739  1.00  0.00     0.001 A 
HETATM   12  C   UNL     1      30.633  44.564  55.926  1.00  0.00     0.000 A 
HETATM   13  C   UNL     1      30.688  43.289  55.368  1.00  0.00     0.001 A 
HETATM   14  C   UNL     1      29.615  42.806  54.618  1.00  0.00     0.010 A 
ENDBRANCH   5   9
ENDBRANCH   1   5
BRANCH   3  15
HETATM   15  C   UNL     1      25.109  45.418  51.501  1.00  0.00     0.035 A 
HETATM   16  C   UNL     1      25.320  46.796  51.499  1.00  0.00     0.030 A 
HETATM   17  C   UNL     1      24.695  47.610  50.548  1.00  0.00     0.016 A 
HETATM   18  C   UNL     1      23.853  47.050  49.573  1.00  0.00    -0.008 A 
HETATM   19  C   UNL     1      23.212  47.814  48.594  1.00  0.00     0.128 A 
HETATM   20  C   UNL     1      23.632  45.662  49.560  1.00  0.00    -0.021 A 
HETATM   21  N   UNL     1      22.403  47.308  47.635  1.00  0.00    -0.272 NA
HETATM   22  C   UNL     1      22.218  45.972  47.647  1.00  0.00     0.117 A 
HETATM   23  C   UNL     1      22.798  45.120  48.574  1.00  0.00     0.031 A 
HETATM   24  C   UNL     1      24.257  44.861  50.536  1.00  0.00     0.042 A 
ENDBRANCH   3  15
TORSDOF 4
ENDMDL
MODEL 7
REMARK VINA RESULT:      -7.9      2.384      3.378
REMARK  4 active torsions:
REMARK  status: ('A' for Active; 'I' for Inactive)
REMARK    1  A    between atoms: N_1  and  C_2 
REMARK    2  A    between atoms: C_2  and  C_3 
REMARK    3  A    between atoms: C_2  and  C_16 
REMARK       I    between atoms: C_3  and  N_5 
REMARK    4  A    between atoms: N_5  and  C_6 
ROOT
HETATM    1  C   UNL     1      27.287  43.069  52.455  1.00  0.00     0.260 C 
HETATM    2  O   UNL     1      28.021  43.309  51.495  1.00  0.00    -0.270 OA
HETATM    3  N   UNL     1      25.918  43.293  52.508  1.00  0.00    -0.325 N 
HETATM    4  H   UNL     1      25.437  42.966  53.337  1.00  0.00     0.169 HD
ENDROOT
BRANCH   1   5
HETATM    5  C   UNL     1      27.847  42.420  53.755  1.00  0.00     0.342 C 
BRANCH   5   6
HETATM    6  N   UNL     1      28.562  41.169  53.427  1.00  0.00     0.096 N 
HETATM    7  H   UNL     1      28.767  41.196  52.425  1.00  0.00     0.314 HD
HETATM    8  H   UNL     1      27.902  40.395  53.517  1.00  0.00     0.314 HD
ENDBRANCH   5   6
BRANCH   5   9
HETATM    9  C   UNL     1      28.749  43.370  54.521  1.00  0.00    -0.016 A 
HETATM   10  C   UNL     1      28.302  44.662  54.839  1.00  0.00     0.010 A 
HETATM   11  C   UNL     1      29.117  45.541  55.556  1.00  0.00     0.001 A 
HETATM   12  C   UNL     1      30.384  45.138  55.974  1.00  0.00     0.000 A 
HETATM   13  C   UNL     1      30.836  43.854  55.679  1.00  0.00     0.001 A 
HETATM   14  C   UNL     1      30.024  42.974  54.961  1.00  0.00     0.010 A 
ENDBRANCH   5   9
ENDBRANCH   1   5
BRANCH   3  15
HETATM   15  C   UNL     1      25.108  43.888  51.518  1.00  0.00     0.035 A 
HETATM   16  C   UNL     1      24.250  43.173  50.683  1.00  0.00     0.030 A 
HETATM   17  C   UNL     1      23.483  43.834  49.718  1.00  0.00     0.016 A 
HETATM   18  C   UNL     1      23.557  45.230  49.582  1.00  0.00    -0.008 A 
HETATM   19  C   UNL     1      22.806  45.941  48.642  1.00  0.00     0.128 A 
HETATM   20  C   UNL     1      24.414  45.965  50.418  1.00  0.00    -0.021 A 
HETATM   21  N   UNL     1      22.844  47.285  48.490  1.00  0.00    -0.272 NA
HETATM   22  C   UNL     1      23.671  47.961  49.312  1.00  0.00     0.117 A 
HETATM   23  C   UNL     1      24.466  47.358  50.275  1.00  0.00     0.031 A 
HETATM   24  C   UNL     1      25.192  45.281  51.372  1.00  0.00     0.042 A 
ENDBRANCH   3  15
TORSDOF 4
ENDMDL
MODEL 8
REMARK VINA RESULT:      -7.9      5.168      7.146
REMARK  4 active torsions:
REMARK  status: ('A' for Active; 'I' for Inactive)
REMARK    1  A    between atoms: N_1  and  C_2 
REMARK    2  A    between atoms: C_2  and  C_3 
REMARK    3  A    between atoms: C_2  and  C_16 
REMARK       I    between atoms: C_3  and  N_5 
REMARK    4  A    between atoms: N_5  and  C_6 
ROOT
HETATM    1  C   UNL     1      27.340  43.433  52.408  1.00  0.00     0.260 C 
HETATM    2  O   UNL     1      27.858  44.078  51.495  1.00  0.00    -0.270 OA
HETATM    3  N   UNL     1      26.890  42.122  52.326  1.00  0.00    -0.325 N 
HETATM    4  H   UNL     1      26.563  41.700  53.187  1.00  0.00     0.169 HD
ENDROOT
BRANCH   1   5
HETATM    5  C   UNL     1      27.166  44.046  53.829  1.00  0.00     0.342 C 
BRANCH   5   6
HETATM    6  N   UNL     1      26.195  43.250  54.608  1.00  0.00     0.096 N 
HETATM    7  H   UNL     1      26.712  42.470  55.019  1.00  0.00     0.314 HD
HETATM    8  H   UNL     1      25.559  42.798  53.950  1.00  0.00     0.314 HD
ENDBRANCH   5   6
BRANCH   5   9
HETATM    9  C   UNL     1      28.488  44.153  54.567  1.00  0.00    -0.016 A 
HETATM   10  C   UNL     1      28.767  45.285  55.351  1.00  0.00     0.010 A 
HETATM   11  C   UNL     1      29.973  45.388  56.048  1.00  0.00     0.001 A 
HETATM   12  C   UNL     1      30.912  44.362  55.978  1.00  0.00     0.000 A 
HETATM   13  C   UNL     1      30.645  43.227  55.216  1.00  0.00     0.001 A 
HETATM   14  C   UNL     1      29.441  43.121  54.519  1.00  0.00     0.010 A 
ENDBRANCH   5   9
ENDBRANCH   1   5
BRANCH   3  15
HETATM   15  C   UNL     1      26.875  41.292  51.186  1.00  0.00     0.035 A 
HETATM   16  C   UNL     1      25.808  41.221  50.291  1.00  0.00     0.030 A 
HETATM   17  C   UNL     1      25.863  40.367  49.185  1.00  0.00     0.016 A 
HETATM   18  C   UNL     1      26.998  39.574  48.952  1.00  0.00    -0.008 A 
HETATM   19  C   UNL     1      27.110  38.712  47.857  1.00  0.00     0.128 A 
HETATM   20  C   UNL     1      28.084  39.637  49.842  1.00  0.00    -0.021 A 
HETATM   21  N   UNL     1      28.192  37.943  47.596  1.00  0.00    -0.272 NA
HETATM   22  C   UNL     1      29.219  38.032  48.466  1.00  0.00     0.117 A 
HETATM   23  C   UNL     1      29.213  38.848  49.586  1.00  0.00     0.031 A 
HETATM   24  C   UNL     1      28.004  40.490  50.960  1.00  0.00     0.042 A 
ENDBRANCH   3  15
TORSDOF 4
ENDMDL
MODEL 9
REMARK VINA RESULT:      -7.9      1.364      2.172
REMARK  4 active torsions:
REMARK  status: ('A' for Active; 'I' for Inactive)
REMARK    1  A    between atoms: N_1  and  C_2 
REMARK    2  A    between atoms: C_2  and  C_3 
REMARK    3  A    between atoms: C_2  and  C_16 
REMARK       I    between atoms: C_3  and  N_5 
REMARK    4  A    between atoms: N_5  and  C_6 
ROOT
HETATM    1  C   UNL     1      25.969  44.214  52.418  1.00  0.00     0.260 C 
HETATM    2  O   UNL     1      24.853  44.364  52.916  1.00  0.00    -0.270 OA
HETATM    3  N   UNL     1      26.514  44.978  51.394  1.00  0.00    -0.325 N 
HETATM    4  H   UNL     1      27.477  44.786  51.148  1.00  0.00     0.169 HD
ENDROOT
BRANCH   1   5
HETATM    5  C   UNL     1      26.945  43.120  52.943  1.00  0.00     0.342 C 
BRANCH   5   6
HETATM    6  N   UNL     1      27.591  42.431  51.806  1.00  0.00     0.096 N 
HETATM    7  H   UNL     1      27.128  41.525  51.705  1.00  0.00     0.314 HD
HETATM    8  H   UNL     1      28.542  42.187  52.084  1.00  0.00     0.314 HD
ENDBRANCH   5   6
BRANCH   5   9
HETATM    9  C   UNL     1      27.987  43.692  53.886  1.00  0.00    -0.016 A 
HETATM   10  C   UNL     1      27.741  44.902  54.555  1.00  0.00     0.010 A 
HETATM   11  C   UNL     1      28.686  45.432  55.437  1.00  0.00     0.001 A 
HETATM   12  C   UNL     1      29.882  44.757  55.670  1.00  0.00     0.000 A 
HETATM   13  C   UNL     1      30.135  43.549  55.025  1.00  0.00     0.001 A 
HETATM   14  C   UNL     1      29.193  43.018  54.143  1.00  0.00     0.010 A 
ENDBRANCH   5   9
ENDBRANCH   1   5
BRANCH   3  15
HETATM   15  C   UNL     1      25.890  46.024  50.682  1.00  0.00     0.035 A 
HETATM   16  C   UNL     1      24.510  46.134  50.513  1.00  0.00     0.030 A 
HETATM   17  C   UNL     1      23.965  47.198  49.786  1.00  0.00     0.016 A 
HETATM   18  C   UNL     1      24.798  48.178  49.225  1.00  0.00    -0.008 A 
HETATM   19  C   UNL     1      24.306  49.267  48.499  1.00  0.00     0.128 A 
HETATM   20  C   UNL     1      26.191  48.084  49.389  1.00  0.00    -0.021 A 
HETATM   21  N   UNL     1      25.078  50.235  47.953  1.00  0.00    -0.272 NA
HETATM   22  C   UNL     1      26.409  50.118  48.135  1.00  0.00     0.117 A 
HETATM   23  C   UNL     1      27.005  49.078  48.831  1.00  0.00     0.031 A 
HETATM   24  C   UNL     1      26.723  46.997  50.109  1.00  0.00     0.042 A 
ENDBRANCH   3  15
TORSDOF 4
ENDMDL
MODEL 10
REMARK VINA RESULT:      -7.8      3.918      4.815
REMARK  4 active torsions:
REMARK  status: ('A' for Active; 'I' for Inactive)
REMARK    1  A    between atoms: N_1  and  C_2 
REMARK    2  A    between atoms: C_2  and  C_3 
REMARK    3  A    between atoms: C_2  and  C_16 
REMARK       I    between atoms: C_3  and  N_5 
REMARK    4  A    between atoms: N_5  and  C_6 
ROOT
HETATM    1  C   UNL     1      27.601  44.812  54.366  1.00  0.00     0.260 C 
HETATM    2  O   UNL     1      26.818  44.176  55.073  1.00  0.00    -0.270 OA
HETATM    3  N   UNL     1      27.670  44.763  52.980  1.00  0.00    -0.325 N 
HETATM    4  H   UNL     1      28.311  45.408  52.535  1.00  0.00     0.169 HD
ENDROOT
BRANCH   1   5
HETATM    5  C   UNL     1      28.616  45.816  54.989  1.00  0.00     0.342 C 
BRANCH   5   6
HETATM    6  N   UNL     1      27.894  46.857  55.749  1.00  0.00     0.096 N 
HETATM    7  H   UNL     1      26.944  46.897  55.372  1.00  0.00     0.314 HD
HETATM    8  H   UNL     1      28.291  47.763  55.498  1.00  0.00     0.314 HD
ENDBRANCH   5   6
BRANCH   5   9
HETATM    9  C   UNL     1      29.638  45.119  55.869  1.00  0.00    -0.016 A 
HETATM   10  C   UNL     1      29.920  45.619  57.150  1.00  0.00     0.010 A 
HETATM   11  C   UNL     1      30.847  44.978  57.976  1.00  0.00     0.001 A 
HETATM   12  C   UNL     1      31.497  43.826  57.537  1.00  0.00     0.000 A 
HETATM   13  C   UNL     1      31.217  43.310  56.274  1.00  0.00     0.001 A 
HETATM   14  C   UNL     1      30.291  43.948  55.447  1.00  0.00     0.010 A 
ENDBRANCH   5   9
ENDBRANCH   1   5
BRANCH   3  15
HETATM   15  C   UNL     1      26.916  43.943  52.114  1.00  0.00     0.035 A 
HETATM   16  C   UNL     1      27.348  42.702  51.647  1.00  0.00     0.030 A 
HETATM   17  C   UNL     1      26.547  41.949  50.783  1.00  0.00     0.016 A 
HETATM   18  C   UNL     1      25.289  42.426  50.380  1.00  0.00    -0.008 A 
HETATM   19  C   UNL     1      24.444  41.711  49.526  1.00  0.00     0.128 A 
HETATM   20  C   UNL     1      24.838  43.674  50.844  1.00  0.00    -0.021 A 
HETATM   21  N   UNL     1      23.223  42.134  49.126  1.00  0.00    -0.272 NA
HETATM   22  C   UNL     1      22.817  43.332  49.595  1.00  0.00     0.117 A 
HETATM   23  C   UNL     1      23.576  44.127  50.440  1.00  0.00     0.031 A 
HETATM   24  C   UNL     1      25.666  44.425  51.700  1.00  0.00     0.042 A 
ENDBRANCH   3  15
TORSDOF 4
ENDMDL
