MODEL 1
REMARK VINA RESULT:      -9.6      0.000      0.000
REMARK  9 active torsions:
REMARK  status: ('A' for Active; 'I' for Inactive)
REMARK    1  A    between atoms: O_2  and  C_3 
REMARK    2  A    between atoms: C_3  and  C_4 
REMARK    3  A    between atoms: C_6  and  C_7 
REMARK    4  A    between atoms: C_7  and  N_8 
REMARK       I    between atoms: N_8  and  C_9 
REMARK    5  A    between atoms: C_9  and  C_10 
REMARK    6  A    between atoms: C_10  and  S_11 
REMARK    7  A    between atoms: S_11  and  C_12 
REMARK    8  A    between atoms: C_12  and  C_13 
REMARK       I    between atoms: C_13  and  N_14 
REMARK    9  A    between atoms: N_14  and  C_15 
ROOT
HETATM    1  S   UNL     1      26.846  42.817  49.771  1.00  0.00    -0.150 SA
ENDROOT
BRANCH   1   2
HETATM    2  C   UNL     1      25.435  42.953  50.917  1.00  0.00     0.177 C 
BRANCH   2   3
HETATM    3  C   UNL     1      25.325  44.290  51.635  1.00  0.00     0.227 C 
HETATM    4  N   UNL     1      25.967  45.352  51.054  1.00  0.00    -0.354 N 
HETATM    5  H   UNL     1      26.405  45.228  50.146  1.00  0.00     0.162 HD
HETATM    6  O   UNL     1      24.645  44.405  52.652  1.00  0.00    -0.273 OA
BRANCH   4   7
HETATM    7  C   UNL     1      25.805  46.702  51.540  1.00  0.00     0.187 C 
BRANCH   7   8
HETATM    8  C   UNL     1      25.939  47.653  50.410  1.00  0.00     0.071 A 
HETATM    9  O   UNL     1      24.830  48.372  50.061  1.00  0.00    -0.307 OA
HETATM   10  C   UNL     1      25.178  49.183  49.012  1.00  0.00     0.150 A 
HETATM   11  C   UNL     1      26.511  48.983  48.705  1.00  0.00     0.046 A 
HETATM   12  C   UNL     1      26.998  47.999  49.597  1.00  0.00     0.037 A 
BRANCH  10  13
HETATM   13  C   UNL     1      24.205  50.069  48.414  1.00  0.00     0.316 C 
HETATM   14  O   UNL     1      23.993  50.173  47.211  1.00  0.00    -0.257 OA
BRANCH  13  15
HETATM   15  O   UNL     1      23.548  50.778  49.378  1.00  0.00    -0.321 OA
HETATM   16  C   UNL     1      22.134  50.589  49.375  1.00  0.00     0.213 C 
ENDBRANCH  13  15
ENDBRANCH  10  13
ENDBRANCH   7   8
ENDBRANCH   4   7
ENDBRANCH   2   3
ENDBRANCH   1   2
BRANCH   1  17
HETATM   17  C   UNL     1      27.815  41.540  50.656  1.00  0.00     0.177 C 
BRANCH  17  18
HETATM   18  C   UNL     1      28.024  41.890  52.129  1.00  0.00     0.231 C 
HETATM   19  N   UNL     1      28.689  43.086  52.329  1.00  0.00    -0.327 N 
HETATM   20  H   UNL     1      28.877  43.619  51.485  1.00  0.00     0.169 HD
HETATM   21  O   UNL     1      27.681  41.098  53.003  1.00  0.00    -0.272 OA
BRANCH  19  22
HETATM   22  C   UNL     1      29.041  43.701  53.547  1.00  0.00     0.035 A 
HETATM   23  C   UNL     1      30.051  43.239  54.393  1.00  0.00     0.042 A 
HETATM   24  C   UNL     1      30.330  43.888  55.611  1.00  0.00    -0.024 A 
HETATM   25  C   UNL     1      29.585  45.031  55.979  1.00  0.00    -0.026 A 
HETATM   26  C   UNL     1      31.332  43.420  56.476  1.00  0.00     0.012 A 
HETATM   27  C   UNL     1      28.581  45.495  55.119  1.00  0.00     0.014 A 
HETATM   28  C   UNL     1      29.862  45.675  57.197  1.00  0.00     0.012 A 
HETATM   29  C   UNL     1      28.311  44.835  53.918  1.00  0.00     0.030 A 
HETATM   30  C   UNL     1      30.862  45.193  58.045  1.00  0.00     0.001 A 
HETATM   31  C   UNL     1      31.595  44.067  57.684  1.00  0.00     0.001 A 
ENDBRANCH  19  22
ENDBRANCH  17  18
ENDBRANCH   1  17
TORSDOF 9
ENDMDL
MODEL 2
REMARK VINA RESULT:      -9.1      2.750      4.489
REMARK  9 active torsions:
REMARK  status: ('A' for Active; 'I' for Inactive)
REMARK    1  A    between atoms: O_2  and  C_3 
REMARK    2  A    between atoms: C_3  and  C_4 
REMARK    3  A    between atoms: C_6  and  C_7 
REMARK    4  A    between atoms: C_7  and  N_8 
REMARK       I    between atoms: N_8  and  C_9 
REMARK    5  A    between atoms: C_9  and  C_10 
REMARK    6  A    between atoms: C_10  and  S_11 
REMARK    7  A    between atoms: S_11  and  C_12 
REMARK    8  A    between atoms: C_12  and  C_13 
REMARK       I    between atoms: C_13  and  N_14 
REMARK    9  A    between atoms: N_14  and  C_15 
ROOT
HETATM    1  S   UNL     1      25.437  46.531  50.644  1.00  0.00    -0.150 SA
ENDROOT
BRANCH   1   2
HETATM    2  C   UNL     1      24.071  46.793  49.466  1.00  0.00     0.177 C 
BRANCH   2   3
HETATM    3  C   UNL     1      23.809  48.249  49.111  1.00  0.00     0.227 C 
HETATM    4  N   UNL     1      22.889  48.482  48.123  1.00  0.00    -0.354 N 
HETATM    5  H   UNL     1      22.368  47.700  47.738  1.00  0.00     0.162 HD
HETATM    6  O   UNL     1      24.361  49.158  49.727  1.00  0.00    -0.273 OA
BRANCH   4   7
HETATM    7  C   UNL     1      22.428  49.813  47.806  1.00  0.00     0.187 C 
BRANCH   7   8
HETATM    8  C   UNL     1      21.285  50.162  48.686  1.00  0.00     0.071 A 
HETATM    9  O   UNL     1      20.625  49.131  49.292  1.00  0.00    -0.307 OA
HETATM   10  C   UNL     1      19.623  49.676  50.055  1.00  0.00     0.150 A 
HETATM   11  C   UNL     1      19.659  51.053  49.936  1.00  0.00     0.046 A 
HETATM   12  C   UNL     1      20.721  51.365  49.055  1.00  0.00     0.037 A 
BRANCH  10  13
HETATM   13  C   UNL     1      18.739  48.827  50.822  1.00  0.00     0.316 C 
HETATM   14  O   UNL     1      18.502  48.956  52.018  1.00  0.00    -0.257 OA
BRANCH  13  15
HETATM   15  O   UNL     1      18.201  47.856  50.028  1.00  0.00    -0.321 OA
HETATM   16  C   UNL     1      17.313  48.353  49.027  1.00  0.00     0.213 C 
ENDBRANCH  13  15
ENDBRANCH  10  13
ENDBRANCH   7   8
ENDBRANCH   4   7
ENDBRANCH   2   3
ENDBRANCH   1   2
BRANCH   1  17
HETATM   17  C   UNL     1      24.734  45.135  51.597  1.00  0.00     0.177 C 
BRANCH  17  18
HETATM   18  C   UNL     1      25.469  44.909  52.919  1.00  0.00     0.231 C 
HETATM   19  N   UNL     1      26.779  45.351  52.912  1.00  0.00    -0.327 N 
HETATM   20  H   UNL     1      27.061  45.844  52.069  1.00  0.00     0.169 HD
HETATM   21  O   UNL     1      24.912  44.309  53.836  1.00  0.00    -0.272 OA
BRANCH  19  22
HETATM   22  C   UNL     1      27.728  45.300  53.951  1.00  0.00     0.035 A 
HETATM   23  C   UNL     1      28.657  44.270  54.111  1.00  0.00     0.042 A 
HETATM   24  C   UNL     1      29.559  44.268  55.192  1.00  0.00    -0.024 A 
HETATM   25  C   UNL     1      29.533  45.330  56.124  1.00  0.00    -0.026 A 
HETATM   26  C   UNL     1      30.486  43.228  55.370  1.00  0.00     0.012 A 
HETATM   27  C   UNL     1      28.605  46.365  55.951  1.00  0.00     0.014 A 
HETATM   28  C   UNL     1      30.431  45.324  57.204  1.00  0.00     0.012 A 
HETATM   29  C   UNL     1      27.711  46.348  54.877  1.00  0.00     0.030 A 
HETATM   30  C   UNL     1      31.344  44.280  57.365  1.00  0.00     0.001 A 
HETATM   31  C   UNL     1      31.371  43.234  56.449  1.00  0.00     0.001 A 
ENDBRANCH  19  22
ENDBRANCH  17  18
ENDBRANCH   1  17
TORSDOF 9
ENDMDL
MODEL 3
REMARK VINA RESULT:      -8.8      2.134      3.296
REMARK  9 active torsions:
REMARK  status: ('A' for Active; 'I' for Inactive)
REMARK    1  A    between atoms: O_2  and  C_3 
REMARK    2  A    between atoms: C_3  and  C_4 
REMARK    3  A    between atoms: C_6  and  C_7 
REMARK    4  A    between atoms: C_7  and  N_8 
REMARK       I    between atoms: N_8  and  C_9 
REMARK    5  A    between atoms: C_9  and  C_10 
REMARK    6  A    between atoms: C_10  and  S_11 
REMARK    7  A    between atoms: S_11  and  C_12 
REMARK    8  A    between atoms: C_12  and  C_13 
REMARK       I    between atoms: C_13  and  N_14 
REMARK    9  A    between atoms: N_14  and  C_15 
ROOT
HETATM    1  S   UNL     1      23.878  43.267  50.782  1.00  0.00    -0.150 SA
ENDROOT
BRANCH   1   2
HETATM    2  C   UNL     1      23.581  43.557  49.008  1.00  0.00     0.177 C 
BRANCH   2   3
HETATM    3  C   UNL     1      22.394  44.459  48.701  1.00  0.00     0.227 C 
HETATM    4  N   UNL     1      22.553  45.793  48.971  1.00  0.00    -0.354 N 
HETATM    5  H   UNL     1      23.461  46.131  49.274  1.00  0.00     0.162 HD
HETATM    6  O   UNL     1      21.374  44.006  48.186  1.00  0.00    -0.273 OA
BRANCH   4   7
HETATM    7  C   UNL     1      21.571  46.775  48.574  1.00  0.00     0.187 C 
BRANCH   7   8
HETATM    8  C   UNL     1      22.243  48.076  48.338  1.00  0.00     0.071 A 
HETATM    9  O   UNL     1      23.604  48.108  48.453  1.00  0.00    -0.307 OA
HETATM   10  C   UNL     1      24.010  49.392  48.189  1.00  0.00     0.150 A 
HETATM   11  C   UNL     1      22.903  50.168  47.898  1.00  0.00     0.046 A 
HETATM   12  C   UNL     1      21.770  49.326  47.998  1.00  0.00     0.037 A 
BRANCH  10  13
HETATM   13  C   UNL     1      25.411  49.744  48.237  1.00  0.00     0.316 C 
HETATM   14  O   UNL     1      26.002  50.396  47.384  1.00  0.00    -0.257 OA
BRANCH  13  15
HETATM   15  O   UNL     1      25.990  49.249  49.369  1.00  0.00    -0.321 OA
HETATM   16  C   UNL     1      27.295  48.710  49.165  1.00  0.00     0.213 C 
ENDBRANCH  13  15
ENDBRANCH  10  13
ENDBRANCH   7   8
ENDBRANCH   4   7
ENDBRANCH   2   3
ENDBRANCH   1   2
BRANCH   1  17
HETATM   17  C   UNL     1      25.187  44.516  51.064  1.00  0.00     0.177 C 
BRANCH  17  18
HETATM   18  C   UNL     1      25.879  44.334  52.416  1.00  0.00     0.231 C 
HETATM   19  N   UNL     1      27.260  44.360  52.344  1.00  0.00    -0.327 N 
HETATM   20  H   UNL     1      27.638  44.582  51.428  1.00  0.00     0.169 HD
HETATM   21  O   UNL     1      25.210  44.107  53.421  1.00  0.00    -0.272 OA
BRANCH  19  22
HETATM   22  C   UNL     1      28.195  44.225  53.389  1.00  0.00     0.035 A 
HETATM   23  C   UNL     1      28.255  45.070  54.499  1.00  0.00     0.042 A 
HETATM   24  C   UNL     1      29.237  44.894  55.493  1.00  0.00    -0.024 A 
HETATM   25  C   UNL     1      30.169  43.839  55.373  1.00  0.00    -0.026 A 
HETATM   26  C   UNL     1      29.315  45.749  56.603  1.00  0.00     0.012 A 
HETATM   27  C   UNL     1      30.095  42.988  54.262  1.00  0.00     0.014 A 
HETATM   28  C   UNL     1      31.149  43.666  56.364  1.00  0.00     0.012 A 
HETATM   29  C   UNL     1      29.119  43.182  53.280  1.00  0.00     0.030 A 
HETATM   30  C   UNL     1      31.213  44.529  57.460  1.00  0.00     0.001 A 
HETATM   31  C   UNL     1      30.296  45.569  57.579  1.00  0.00     0.001 A 
ENDBRANCH  19  22
ENDBRANCH  17  18
ENDBRANCH   1  17
TORSDOF 9
ENDMDL
MODEL 4
REMARK VINA RESULT:      -8.6      2.327      3.682
REMARK  9 active torsions:
REMARK  status: ('A' for Active; 'I' for Inactive)
REMARK    1  A    between atoms: O_2  and  C_3 
REMARK    2  A    between atoms: C_3  and  C_4 
REMARK    3  A    between atoms: C_6  and  C_7 
REMARK    4  A    between atoms: C_7  and  N_8 
REMARK       I    between atoms: N_8  and  C_9 
REMARK    5  A    between atoms: C_9  and  C_10 
REMARK    6  A    between atoms: C_10  and  S_11 
REMARK    7  A    between atoms: S_11  and  C_12 
REMARK    8  A    between atoms: C_12  and  C_13 
REMARK       I    between atoms: C_13  and  N_14 
REMARK    9  A    between atoms: N_14  and  C_15 
ROOT
HETATM    1  S   UNL     1      23.889  44.735  49.868  1.00  0.00    -0.150 SA
ENDROOT
BRANCH   1   2
HETATM    2  C   UNL     1      24.725  45.900  50.994  1.00  0.00     0.177 C 
BRANCH   2   3
HETATM    3  C   UNL     1      25.059  47.250  50.378  1.00  0.00     0.227 C 
HETATM    4  N   UNL     1      24.177  47.735  49.449  1.00  0.00    -0.354 N 
HETATM    5  H   UNL     1      23.313  47.228  49.276  1.00  0.00     0.162 HD
HETATM    6  O   UNL     1      26.044  47.886  50.748  1.00  0.00    -0.273 OA
BRANCH   4   7
HETATM    7  C   UNL     1      24.287  49.071  48.914  1.00  0.00     0.187 C 
BRANCH   7   8
HETATM    8  C   UNL     1      22.943  49.696  48.865  1.00  0.00     0.071 A 
HETATM    9  O   UNL     1      21.863  48.860  48.884  1.00  0.00    -0.307 OA
HETATM   10  C   UNL     1      20.736  49.640  48.840  1.00  0.00     0.150 A 
HETATM   11  C   UNL     1      21.107  50.972  48.803  1.00  0.00     0.046 A 
HETATM   12  C   UNL     1      22.521  51.008  48.815  1.00  0.00     0.037 A 
BRANCH  10  13
HETATM   13  C   UNL     1      19.423  49.036  48.844  1.00  0.00     0.316 C 
HETATM   14  O   UNL     1      18.583  49.173  47.961  1.00  0.00    -0.257 OA
BRANCH  13  15
HETATM   15  O   UNL     1      19.245  48.286  49.970  1.00  0.00    -0.321 OA
HETATM   16  C   UNL     1      18.701  49.014  51.070  1.00  0.00     0.213 C 
ENDBRANCH  13  15
ENDBRANCH  10  13
ENDBRANCH   7   8
ENDBRANCH   4   7
ENDBRANCH   2   3
ENDBRANCH   1   2
BRANCH   1  17
HETATM   17  C   UNL     1      24.394  43.160  50.655  1.00  0.00     0.177 C 
BRANCH  17  18
HETATM   18  C   UNL     1      25.841  43.197  51.146  1.00  0.00     0.231 C 
HETATM   19  N   UNL     1      25.962  43.273  52.521  1.00  0.00    -0.327 N 
HETATM   20  H   UNL     1      25.087  43.208  53.034  1.00  0.00     0.169 HD
HETATM   21  O   UNL     1      26.763  43.236  50.335  1.00  0.00    -0.272 OA
BRANCH  19  22
HETATM   22  C   UNL     1      27.137  43.323  53.298  1.00  0.00     0.035 A 
HETATM   23  C   UNL     1      27.524  44.427  54.059  1.00  0.00     0.042 A 
HETATM   24  C   UNL     1      28.728  44.418  54.790  1.00  0.00    -0.024 A 
HETATM   25  C   UNL     1      29.552  43.271  54.762  1.00  0.00    -0.026 A 
HETATM   26  C   UNL     1      29.134  45.530  55.545  1.00  0.00     0.012 A 
HETATM   27  C   UNL     1      29.151  42.163  54.004  1.00  0.00     0.014 A 
HETATM   28  C   UNL     1      30.755  43.265  55.488  1.00  0.00     0.012 A 
HETATM   29  C   UNL     1      27.957  42.191  53.278  1.00  0.00     0.030 A 
HETATM   30  C   UNL     1      31.143  44.381  56.231  1.00  0.00     0.001 A 
HETATM   31  C   UNL     1      30.333  45.512  56.259  1.00  0.00     0.001 A 
ENDBRANCH  19  22
ENDBRANCH  17  18
ENDBRANCH   1  17
TORSDOF 9
ENDMDL
MODEL 5
REMARK VINA RESULT:      -8.4      2.319      3.545
REMARK  9 active torsions:
REMARK  status: ('A' for Active; 'I' for Inactive)
REMARK    1  A    between atoms: O_2  and  C_3 
REMARK    2  A    between atoms: C_3  and  C_4 
REMARK    3  A    between atoms: C_6  and  C_7 
REMARK    4  A    between atoms: C_7  and  N_8 
REMARK       I    between atoms: N_8  and  C_9 
REMARK    5  A    between atoms: C_9  and  C_10 
REMARK    6  A    between atoms: C_10  and  S_11 
REMARK    7  A    between atoms: S_11  and  C_12 
REMARK    8  A    between atoms: C_12  and  C_13 
REMARK       I    between atoms: C_13  and  N_14 
REMARK    9  A    between atoms: N_14  and  C_15 
ROOT
HETATM    1  S   UNL     1      23.133  43.009  50.330  1.00  0.00    -0.150 SA
ENDROOT
BRANCH   1   2
HETATM    2  C   UNL     1      22.621  43.714  48.729  1.00  0.00     0.177 C 
BRANCH   2   3
HETATM    3  C   UNL     1      21.637  44.870  48.828  1.00  0.00     0.227 C 
HETATM    4  N   UNL     1      22.168  46.132  48.788  1.00  0.00    -0.354 N 
HETATM    5  H   UNL     1      23.162  46.245  48.611  1.00  0.00     0.162 HD
HETATM    6  O   UNL     1      20.426  44.664  48.884  1.00  0.00    -0.273 OA
BRANCH   4   7
HETATM    7  C   UNL     1      21.337  47.310  48.707  1.00  0.00     0.187 C 
BRANCH   7   8
HETATM    8  C   UNL     1      22.186  48.522  48.803  1.00  0.00     0.071 A 
HETATM    9  O   UNL     1      23.505  48.390  48.468  1.00  0.00    -0.307 OA
HETATM   10  C   UNL     1      24.093  49.620  48.620  1.00  0.00     0.150 A 
HETATM   11  C   UNL     1      23.141  50.530  49.043  1.00  0.00     0.046 A 
HETATM   12  C   UNL     1      21.921  49.825  49.165  1.00  0.00     0.037 A 
BRANCH  10  13
HETATM   13  C   UNL     1      25.500  49.801  48.342  1.00  0.00     0.316 C 
HETATM   14  O   UNL     1      25.963  50.169  47.268  1.00  0.00    -0.257 OA
BRANCH  13  15
HETATM   15  O   UNL     1      26.247  49.506  49.445  1.00  0.00    -0.321 OA
HETATM   16  C   UNL     1      26.752  48.172  49.463  1.00  0.00     0.213 C 
ENDBRANCH  13  15
ENDBRANCH  10  13
ENDBRANCH   7   8
ENDBRANCH   4   7
ENDBRANCH   2   3
ENDBRANCH   1   2
BRANCH   1  17
HETATM   17  C   UNL     1      24.827  42.475  49.883  1.00  0.00     0.177 C 
BRANCH  17  18
HETATM   18  C   UNL     1      25.896  43.204  50.698  1.00  0.00     0.231 C 
HETATM   19  N   UNL     1      26.460  42.432  51.696  1.00  0.00    -0.327 N 
HETATM   20  H   UNL     1      26.160  41.461  51.709  1.00  0.00     0.169 HD
HETATM   21  O   UNL     1      26.126  44.392  50.485  1.00  0.00    -0.272 OA
BRANCH  19  22
HETATM   22  C   UNL     1      27.462  42.787  52.620  1.00  0.00     0.035 A 
HETATM   23  C   UNL     1      27.362  43.858  53.510  1.00  0.00     0.042 A 
HETATM   24  C   UNL     1      28.417  44.174  54.387  1.00  0.00    -0.024 A 
HETATM   25  C   UNL     1      29.591  43.389  54.377  1.00  0.00    -0.026 A 
HETATM   26  C   UNL     1      28.330  45.259  55.274  1.00  0.00     0.012 A 
HETATM   27  C   UNL     1      29.680  42.309  53.489  1.00  0.00     0.014 A 
HETATM   28  C   UNL     1      30.644  43.708  55.250  1.00  0.00     0.012 A 
HETATM   29  C   UNL     1      28.628  42.014  52.618  1.00  0.00     0.030 A 
HETATM   30  C   UNL     1      30.541  44.793  56.123  1.00  0.00     0.001 A 
HETATM   31  C   UNL     1      29.385  45.567  56.134  1.00  0.00     0.001 A 
ENDBRANCH  19  22
ENDBRANCH  17  18
ENDBRANCH   1  17
TORSDOF 9
ENDMDL
MODEL 6
REMARK VINA RESULT:      -8.4      2.355      3.388
REMARK  9 active torsions:
REMARK  status: ('A' for Active; 'I' for Inactive)
REMARK    1  A    between atoms: O_2  and  C_3 
REMARK    2  A    between atoms: C_3  and  C_4 
REMARK    3  A    between atoms: C_6  and  C_7 
REMARK    4  A    between atoms: C_7  and  N_8 
REMARK       I    between atoms: N_8  and  C_9 
REMARK    5  A    between atoms: C_9  and  C_10 
REMARK    6  A    between atoms: C_10  and  S_11 
REMARK    7  A    between atoms: S_11  and  C_12 
REMARK    8  A    between atoms: C_12  and  C_13 
REMARK       I    between atoms: C_13  and  N_14 
REMARK    9  A    between atoms: N_14  and  C_15 
ROOT
HETATM    1  S   UNL     1      25.047  43.770  50.419  1.00  0.00    -0.150 SA
ENDROOT
BRANCH   1   2
HETATM    2  C   UNL     1      23.443  42.932  50.196  1.00  0.00     0.177 C 
BRANCH   2   3
HETATM    3  C   UNL     1      22.543  43.554  49.139  1.00  0.00     0.227 C 
HETATM    4  N   UNL     1      21.755  44.600  49.542  1.00  0.00    -0.354 N 
HETATM    5  H   UNL     1      21.864  44.966  50.483  1.00  0.00     0.162 HD
HETATM    6  O   UNL     1      22.574  43.162  47.974  1.00  0.00    -0.273 OA
BRANCH   4   7
HETATM    7  C   UNL     1      20.983  45.381  48.605  1.00  0.00     0.187 C 
BRANCH   7   8
HETATM    8  C   UNL     1      21.566  46.740  48.497  1.00  0.00     0.071 A 
HETATM    9  O   UNL     1      22.868  46.895  48.884  1.00  0.00    -0.307 OA
HETATM   10  C   UNL     1      23.200  48.213  48.695  1.00  0.00     0.150 A 
HETATM   11  C   UNL     1      22.108  48.887  48.180  1.00  0.00     0.046 A 
HETATM   12  C   UNL     1      21.060  47.945  48.057  1.00  0.00     0.037 A 
BRANCH  10  13
HETATM   13  C   UNL     1      24.524  48.691  49.021  1.00  0.00     0.316 C 
HETATM   14  O   UNL     1      24.860  49.869  49.048  1.00  0.00    -0.257 OA
BRANCH  13  15
HETATM   15  O   UNL     1      25.356  47.644  49.297  1.00  0.00    -0.321 OA
HETATM   16  C   UNL     1      26.337  47.930  50.293  1.00  0.00     0.213 C 
ENDBRANCH  13  15
ENDBRANCH  10  13
ENDBRANCH   7   8
ENDBRANCH   4   7
ENDBRANCH   2   3
ENDBRANCH   1   2
BRANCH   1  17
HETATM   17  C   UNL     1      24.558  44.996  51.688  1.00  0.00     0.177 C 
BRANCH  17  18
HETATM   18  C   UNL     1      25.328  44.811  52.996  1.00  0.00     0.231 C 
HETATM   19  N   UNL     1      26.639  45.249  52.939  1.00  0.00    -0.327 N 
HETATM   20  H   UNL     1      26.899  45.713  52.074  1.00  0.00     0.169 HD
HETATM   21  O   UNL     1      24.795  44.244  53.947  1.00  0.00    -0.272 OA
BRANCH  19  22
HETATM   22  C   UNL     1      27.615  45.228  53.954  1.00  0.00     0.035 A 
HETATM   23  C   UNL     1      28.561  44.212  54.108  1.00  0.00     0.042 A 
HETATM   24  C   UNL     1      29.492  44.241  55.165  1.00  0.00    -0.024 A 
HETATM   25  C   UNL     1      29.477  45.319  56.077  1.00  0.00    -0.026 A 
HETATM   26  C   UNL     1      30.435  43.215  55.337  1.00  0.00     0.012 A 
HETATM   27  C   UNL     1      28.532  46.340  55.910  1.00  0.00     0.014 A 
HETATM   28  C   UNL     1      30.403  45.345  57.133  1.00  0.00     0.012 A 
HETATM   29  C   UNL     1      27.610  46.292  54.860  1.00  0.00     0.030 A 
HETATM   30  C   UNL     1      31.333  44.315  57.289  1.00  0.00     0.001 A 
HETATM   31  C   UNL     1      31.348  43.252  56.392  1.00  0.00     0.001 A 
ENDBRANCH  19  22
ENDBRANCH  17  18
ENDBRANCH   1  17
TORSDOF 9
ENDMDL
MODEL 7
REMARK VINA RESULT:      -8.3      3.481      4.707
REMARK  9 active torsions:
REMARK  status: ('A' for Active; 'I' for Inactive)
REMARK    1  A    between atoms: O_2  and  C_3 
REMARK    2  A    between atoms: C_3  and  C_4 
REMARK    3  A    between atoms: C_6  and  C_7 
REMARK    4  A    between atoms: C_7  and  N_8 
REMARK       I    between atoms: N_8  and  C_9 
REMARK    5  A    between atoms: C_9  and  C_10 
REMARK    6  A    between atoms: C_10  and  S_11 
REMARK    7  A    between atoms: S_11  and  C_12 
REMARK    8  A    between atoms: C_12  and  C_13 
REMARK       I    between atoms: C_13  and  N_14 
REMARK    9  A    between atoms: N_14  and  C_15 
ROOT
HETATM    1  S   UNL     1      24.363  43.420  48.903  1.00  0.00    -0.150 SA
ENDROOT
BRANCH   1   2
HETATM    2  C   UNL     1      22.835  44.001  49.709  1.00  0.00     0.177 C 
BRANCH   2   3
HETATM    3  C   UNL     1      21.808  44.604  48.763  1.00  0.00     0.227 C 
HETATM    4  N   UNL     1      21.797  45.970  48.661  1.00  0.00    -0.354 N 
HETATM    5  H   UNL     1      22.514  46.507  49.140  1.00  0.00     0.162 HD
HETATM    6  O   UNL     1      21.070  43.886  48.091  1.00  0.00    -0.273 OA
BRANCH   4   7
HETATM    7  C   UNL     1      20.989  46.657  47.681  1.00  0.00     0.187 C 
BRANCH   7   8
HETATM    8  C   UNL     1      19.754  47.163  48.327  1.00  0.00     0.071 A 
HETATM    9  O   UNL     1      19.904  47.990  49.405  1.00  0.00    -0.307 OA
HETATM   10  C   UNL     1      18.650  48.340  49.834  1.00  0.00     0.150 A 
HETATM   11  C   UNL     1      17.707  47.740  49.020  1.00  0.00     0.046 A 
HETATM   12  C   UNL     1      18.414  46.983  48.057  1.00  0.00     0.037 A 
BRANCH  10  13
HETATM   13  C   UNL     1      18.480  49.214  50.973  1.00  0.00     0.316 C 
HETATM   14  O   UNL     1      18.605  48.875  52.145  1.00  0.00    -0.257 OA
BRANCH  13  15
HETATM   15  O   UNL     1      18.161  50.476  50.563  1.00  0.00    -0.321 OA
HETATM   16  C   UNL     1      19.258  51.199  50.006  1.00  0.00     0.213 C 
ENDBRANCH  13  15
ENDBRANCH  10  13
ENDBRANCH   7   8
ENDBRANCH   4   7
ENDBRANCH   2   3
ENDBRANCH   1   2
BRANCH   1  17
HETATM   17  C   UNL     1      24.949  42.261  50.194  1.00  0.00     0.177 C 
BRANCH  17  18
HETATM   18  C   UNL     1      26.282  42.699  50.803  1.00  0.00     0.231 C 
HETATM   19  N   UNL     1      26.329  42.591  52.180  1.00  0.00    -0.327 N 
HETATM   20  H   UNL     1      25.514  42.157  52.605  1.00  0.00     0.169 HD
HETATM   21  O   UNL     1      27.159  43.172  50.083  1.00  0.00    -0.272 OA
BRANCH  19  22
HETATM   22  C   UNL     1      27.393  42.904  53.049  1.00  0.00     0.035 A 
HETATM   23  C   UNL     1      27.466  44.076  53.805  1.00  0.00     0.042 A 
HETATM   24  C   UNL     1      28.574  44.338  54.632  1.00  0.00    -0.024 A 
HETATM   25  C   UNL     1      29.625  43.396  54.709  1.00  0.00    -0.026 A 
HETATM   26  C   UNL     1      28.664  45.521  55.383  1.00  0.00     0.012 A 
HETATM   27  C   UNL     1      29.539  42.218  53.957  1.00  0.00     0.014 A 
HETATM   28  C   UNL     1      30.732  43.661  55.532  1.00  0.00     0.012 A 
HETATM   29  C   UNL     1      28.435  41.976  53.134  1.00  0.00     0.030 A 
HETATM   30  C   UNL     1      30.804  44.845  56.269  1.00  0.00     0.001 A 
HETATM   31  C   UNL     1      29.771  45.773  56.194  1.00  0.00     0.001 A 
ENDBRANCH  19  22
ENDBRANCH  17  18
ENDBRANCH   1  17
TORSDOF 9
ENDMDL
MODEL 8
REMARK VINA RESULT:      -8.2      2.236      3.260
REMARK  9 active torsions:
REMARK  status: ('A' for Active; 'I' for Inactive)
REMARK    1  A    between atoms: O_2  and  C_3 
REMARK    2  A    between atoms: C_3  and  C_4 
REMARK    3  A    between atoms: C_6  and  C_7 
REMARK    4  A    between atoms: C_7  and  N_8 
REMARK       I    between atoms: N_8  and  C_9 
REMARK    5  A    between atoms: C_9  and  C_10 
REMARK    6  A    between atoms: C_10  and  S_11 
REMARK    7  A    between atoms: S_11  and  C_12 
REMARK    8  A    between atoms: C_12  and  C_13 
REMARK       I    between atoms: C_13  and  N_14 
REMARK    9  A    between atoms: N_14  and  C_15 
ROOT
HETATM    1  S   UNL     1      28.119  40.275  48.527  1.00  0.00    -0.150 SA
ENDROOT
BRANCH   1   2
HETATM    2  C   UNL     1      26.379  39.757  48.361  1.00  0.00     0.177 C 
BRANCH   2   3
HETATM    3  C   UNL     1      25.421  40.868  47.959  1.00  0.00     0.227 C 
HETATM    4  N   UNL     1      25.144  41.814  48.910  1.00  0.00    -0.354 N 
HETATM    5  H   UNL     1      25.644  41.787  49.794  1.00  0.00     0.162 HD
HETATM    6  O   UNL     1      24.971  40.930  46.816  1.00  0.00    -0.273 OA
BRANCH   4   7
HETATM    7  C   UNL     1      24.386  43.005  48.607  1.00  0.00     0.187 C 
BRANCH   7   8
HETATM    8  C   UNL     1      24.608  44.015  49.671  1.00  0.00     0.071 A 
HETATM    9  O   UNL     1      24.927  45.283  49.273  1.00  0.00    -0.307 OA
HETATM   10  C   UNL     1      25.078  46.044  50.404  1.00  0.00     0.150 A 
HETATM   11  C   UNL     1      24.843  45.256  51.517  1.00  0.00     0.046 A 
HETATM   12  C   UNL     1      24.546  43.955  51.047  1.00  0.00     0.037 A 
BRANCH  10  13
HETATM   13  C   UNL     1      25.424  47.444  50.308  1.00  0.00     0.316 C 
HETATM   14  O   UNL     1      26.566  47.881  50.212  1.00  0.00    -0.257 OA
BRANCH  13  15
HETATM   15  O   UNL     1      24.300  48.217  50.336  1.00  0.00    -0.321 OA
HETATM   16  C   UNL     1      23.978  48.816  49.082  1.00  0.00     0.213 C 
ENDBRANCH  13  15
ENDBRANCH  10  13
ENDBRANCH   7   8
ENDBRANCH   4   7
ENDBRANCH   2   3
ENDBRANCH   1   2
BRANCH   1  17
HETATM   17  C   UNL     1      28.380  39.851  50.289  1.00  0.00     0.177 C 
BRANCH  17  18
HETATM   18  C   UNL     1      27.995  40.999  51.223  1.00  0.00     0.231 C 
HETATM   19  N   UNL     1      29.058  41.512  51.944  1.00  0.00    -0.327 N 
HETATM   20  H   UNL     1      29.966  41.125  51.704  1.00  0.00     0.169 HD
HETATM   21  O   UNL     1      26.818  41.331  51.333  1.00  0.00    -0.272 OA
BRANCH  19  22
HETATM   22  C   UNL     1      29.055  42.562  52.883  1.00  0.00     0.035 A 
HETATM   23  C   UNL     1      29.965  42.671  53.937  1.00  0.00     0.042 A 
HETATM   24  C   UNL     1      29.886  43.734  54.856  1.00  0.00    -0.024 A 
HETATM   25  C   UNL     1      28.878  44.713  54.706  1.00  0.00    -0.026 A 
HETATM   26  C   UNL     1      30.787  43.843  55.928  1.00  0.00     0.012 A 
HETATM   27  C   UNL     1      27.976  44.603  53.640  1.00  0.00     0.014 A 
HETATM   28  C   UNL     1      28.799  45.771  55.627  1.00  0.00     0.012 A 
HETATM   29  C   UNL     1      28.063  43.537  52.740  1.00  0.00     0.030 A 
HETATM   30  C   UNL     1      29.702  45.860  56.688  1.00  0.00     0.001 A 
HETATM   31  C   UNL     1      30.694  44.897  56.838  1.00  0.00     0.001 A 
ENDBRANCH  19  22
ENDBRANCH  17  18
ENDBRANCH   1  17
TORSDOF 9
ENDMDL
MODEL 9
REMARK VINA RESULT:      -8.2      2.796      3.835
REMARK  9 active torsions:
REMARK  status: ('A' for Active; 'I' for Inactive)
REMARK    1  A    between atoms: O_2  and  C_3 
REMARK    2  A    between atoms: C_3  and  C_4 
REMARK    3  A    between atoms: C_6  and  C_7 
REMARK    4  A    between atoms: C_7  and  N_8 
REMARK       I    between atoms: N_8  and  C_9 
REMARK    5  A    between atoms: C_9  and  C_10 
REMARK    6  A    between atoms: C_10  and  S_11 
REMARK    7  A    between atoms: S_11  and  C_12 
REMARK    8  A    between atoms: C_12  and  C_13 
REMARK       I    between atoms: C_13  and  N_14 
REMARK    9  A    between atoms: N_14  and  C_15 
ROOT
HETATM    1  S   UNL     1      23.845  44.301  49.701  1.00  0.00    -0.150 SA
ENDROOT
BRANCH   1   2
HETATM    2  C   UNL     1      22.926  43.690  48.251  1.00  0.00     0.177 C 
BRANCH   2   3
HETATM    3  C   UNL     1      21.549  44.309  48.064  1.00  0.00     0.227 C 
HETATM    4  N   UNL     1      21.300  45.469  48.749  1.00  0.00    -0.354 N 
HETATM    5  H   UNL     1      22.054  45.905  49.272  1.00  0.00     0.162 HD
HETATM    6  O   UNL     1      20.733  43.811  47.290  1.00  0.00    -0.273 OA
BRANCH   4   7
HETATM    7  C   UNL     1      20.100  46.242  48.532  1.00  0.00     0.187 C 
BRANCH   7   8
HETATM    8  C   UNL     1      20.445  47.684  48.482  1.00  0.00     0.071 A 
HETATM    9  O   UNL     1      21.562  48.085  49.161  1.00  0.00    -0.307 OA
HETATM   10  C   UNL     1      21.694  49.437  48.975  1.00  0.00     0.150 A 
HETATM   11  C   UNL     1      20.664  49.888  48.170  1.00  0.00     0.046 A 
HETATM   12  C   UNL     1      19.861  48.766  47.858  1.00  0.00     0.037 A 
BRANCH  10  13
HETATM   13  C   UNL     1      22.792  50.158  49.579  1.00  0.00     0.316 C 
HETATM   14  O   UNL     1      22.699  51.250  50.128  1.00  0.00    -0.257 OA
BRANCH  13  15
HETATM   15  O   UNL     1      23.953  49.451  49.457  1.00  0.00    -0.321 OA
HETATM   16  C   UNL     1      24.655  49.698  48.240  1.00  0.00     0.213 C 
ENDBRANCH  13  15
ENDBRANCH  10  13
ENDBRANCH   7   8
ENDBRANCH   4   7
ENDBRANCH   2   3
ENDBRANCH   1   2
BRANCH   1  17
HETATM   17  C   UNL     1      25.512  43.675  49.272  1.00  0.00     0.177 C 
BRANCH  17  18
HETATM   18  C   UNL     1      26.597  44.245  50.187  1.00  0.00     0.231 C 
HETATM   19  N   UNL     1      26.440  43.904  51.518  1.00  0.00    -0.327 N 
HETATM   20  H   UNL     1      25.683  43.253  51.708  1.00  0.00     0.169 HD
HETATM   21  O   UNL     1      27.453  44.997  49.728  1.00  0.00    -0.272 OA
BRANCH  19  22
HETATM   22  C   UNL     1      27.251  44.255  52.615  1.00  0.00     0.035 A 
HETATM   23  C   UNL     1      28.362  43.521  53.033  1.00  0.00     0.042 A 
HETATM   24  C   UNL     1      29.111  43.916  54.158  1.00  0.00    -0.024 A 
HETATM   25  C   UNL     1      28.742  45.079  54.869  1.00  0.00    -0.026 A 
HETATM   26  C   UNL     1      30.221  43.174  54.595  1.00  0.00     0.012 A 
HETATM   27  C   UNL     1      27.632  45.817  54.436  1.00  0.00     0.014 A 
HETATM   28  C   UNL     1      29.488  45.469  55.993  1.00  0.00     0.012 A 
HETATM   29  C   UNL     1      26.894  45.407  53.322  1.00  0.00     0.030 A 
HETATM   30  C   UNL     1      30.586  44.717  56.414  1.00  0.00     0.001 A 
HETATM   31  C   UNL     1      30.951  43.571  55.715  1.00  0.00     0.001 A 
ENDBRANCH  19  22
ENDBRANCH  17  18
ENDBRANCH   1  17
TORSDOF 9
ENDMDL
MODEL 10
REMARK VINA RESULT:      -8.1      2.309      3.444
REMARK  9 active torsions:
REMARK  status: ('A' for Active; 'I' for Inactive)
REMARK    1  A    between atoms: O_2  and  C_3 
REMARK    2  A    between atoms: C_3  and  C_4 
REMARK    3  A    between atoms: C_6  and  C_7 
REMARK    4  A    between atoms: C_7  and  N_8 
REMARK       I    between atoms: N_8  and  C_9 
REMARK    5  A    between atoms: C_9  and  C_10 
REMARK    6  A    between atoms: C_10  and  S_11 
REMARK    7  A    between atoms: S_11  and  C_12 
REMARK    8  A    between atoms: C_12  and  C_13 
REMARK       I    between atoms: C_13  and  N_14 
REMARK    9  A    between atoms: N_14  and  C_15 
ROOT
HETATM    1  S   UNL     1      26.051  44.627  49.592  1.00  0.00    -0.150 SA
ENDROOT
BRANCH   1   2
HETATM    2  C   UNL     1      24.507  45.372  50.211  1.00  0.00     0.177 C 
BRANCH   2   3
HETATM    3  C   UNL     1      24.498  46.893  50.228  1.00  0.00     0.227 C 
HETATM    4  N   UNL     1      23.756  47.513  49.257  1.00  0.00    -0.354 N 
HETATM    5  H   UNL     1      23.187  46.947  48.634  1.00  0.00     0.162 HD
HETATM    6  O   UNL     1      25.085  47.518  51.110  1.00  0.00    -0.273 OA
BRANCH   4   7
HETATM    7  C   UNL     1      23.530  48.939  49.261  1.00  0.00     0.187 C 
BRANCH   7   8
HETATM    8  C   UNL     1      22.122  49.216  48.886  1.00  0.00     0.071 A 
HETATM    9  O   UNL     1      21.346  49.864  49.805  1.00  0.00    -0.307 OA
HETATM   10  C   UNL     1      20.100  50.022  49.255  1.00  0.00     0.150 A 
HETATM   11  C   UNL     1      20.093  49.480  47.982  1.00  0.00     0.046 A 
HETATM   12  C   UNL     1      21.387  48.960  47.748  1.00  0.00     0.037 A 
BRANCH  10  13
HETATM   13  C   UNL     1      19.046  50.677  49.996  1.00  0.00     0.316 C 
HETATM   14  O   UNL     1      18.288  50.121  50.783  1.00  0.00    -0.257 OA
BRANCH  13  15
HETATM   15  O   UNL     1      19.010  52.009  49.699  1.00  0.00    -0.321 OA
HETATM   16  C   UNL     1      17.693  52.530  49.530  1.00  0.00     0.213 C 
ENDBRANCH  13  15
ENDBRANCH  10  13
ENDBRANCH   7   8
ENDBRANCH   4   7
ENDBRANCH   2   3
ENDBRANCH   1   2
BRANCH   1  17
HETATM   17  C   UNL     1      26.086  43.124  50.638  1.00  0.00     0.177 C 
BRANCH  17  18
HETATM   18  C   UNL     1      27.222  43.159  51.661  1.00  0.00     0.231 C 
HETATM   19  N   UNL     1      27.072  44.136  52.628  1.00  0.00    -0.327 N 
HETATM   20  H   UNL     1      26.194  44.646  52.591  1.00  0.00     0.169 HD
HETATM   21  O   UNL     1      28.189  42.413  51.529  1.00  0.00    -0.272 OA
BRANCH  19  22
HETATM   22  C   UNL     1      27.924  44.439  53.708  1.00  0.00     0.035 A 
HETATM   23  C   UNL     1      28.937  43.594  54.166  1.00  0.00     0.042 A 
HETATM   24  C   UNL     1      29.734  43.949  55.272  1.00  0.00    -0.024 A 
HETATM   25  C   UNL     1      29.513  45.184  55.922  1.00  0.00    -0.026 A 
HETATM   26  C   UNL     1      30.744  43.098  55.749  1.00  0.00     0.012 A 
HETATM   27  C   UNL     1      28.502  46.031  55.450  1.00  0.00     0.014 A 
HETATM   28  C   UNL     1      30.306  45.535  57.027  1.00  0.00     0.012 A 
HETATM   29  C   UNL     1      27.715  45.660  54.356  1.00  0.00     0.030 A 
HETATM   30  C   UNL     1      31.304  44.674  57.489  1.00  0.00     0.001 A 
HETATM   31  C   UNL     1      31.522  43.458  56.850  1.00  0.00     0.001 A 
ENDBRANCH  19  22
ENDBRANCH  17  18
ENDBRANCH   1  17
TORSDOF 9
ENDMDL
