MODEL 1
REMARK VINA RESULT:      -8.4      0.000      0.000
REMARK  5 active torsions:
REMARK  status: ('A' for Active; 'I' for Inactive)
REMARK    1  A    between atoms: C_8  and  N_9 
REMARK       I    between atoms: N_9  and  C_10 
REMARK    2  A    between atoms: C_10  and  C_11 
REMARK    3  A    between atoms: C_11  and  N_12 
REMARK    4  A    between atoms: N_12  and  C_13 
REMARK    5  A    between atoms: C_13  and  C_14 
ROOT
HETATM    1  C   UNL     1      28.214  41.542  53.137  1.00  0.00     0.372 C 
ENDROOT
BRANCH   1   2
HETATM    2  C   UNL     1      27.856  40.741  51.875  1.00  0.00     0.250 C 
HETATM    3  N   UNL     1      28.921  40.002  51.406  1.00  0.00    -0.322 N 
HETATM    4  H   UNL     1      29.764  40.081  51.966  1.00  0.00     0.169 HD
HETATM    5  O   UNL     1      26.720  40.779  51.415  1.00  0.00    -0.271 OA
BRANCH   3   6
HETATM    6  C   UNL     1      28.979  39.206  50.277  1.00  0.00     0.085 A 
HETATM    7  C   UNL     1      29.419  37.896  50.340  1.00  0.00     0.052 A 
HETATM    8  C   UNL     1      29.892  37.050  51.460  1.00  0.00     0.072 C 
HETATM    9  N   UNL     1      29.357  37.420  49.061  1.00  0.00    -0.280 N 
HETATM   10  H   UNL     1      29.602  36.495  48.724  1.00  0.00     0.189 HD
HETATM   11  N   UNL     1      28.917  38.312  48.172  1.00  0.00    -0.177 NA
HETATM   12  C   UNL     1      28.676  39.416  48.899  1.00  0.00     0.079 A 
HETATM   13  C   UNL     1      28.173  40.619  48.191  1.00  0.00     0.075 C 
ENDBRANCH   3   6
ENDBRANCH   1   2
BRANCH   1  14
HETATM   14  N   UNL     1      29.095  42.687  52.796  1.00  0.00     0.100 N 
HETATM   15  H   UNL     1      29.150  42.733  51.775  1.00  0.00     0.317 HD
BRANCH  14  16
HETATM   16  C   UNL     1      28.580  43.989  53.267  1.00  0.00     0.250 C 
HETATM   17  C   UNL     1      27.049  44.067  53.191  1.00  0.00     0.048 C 
BRANCH  16  18
HETATM   18  C   UNL     1      29.197  44.426  54.590  1.00  0.00    -0.024 A 
HETATM   19  C   UNL     1      30.282  43.755  55.182  1.00  0.00     0.036 A 
HETATM   20  C   UNL     1      30.814  44.195  56.397  1.00  0.00     0.073 A 
HETATM   21 CL   UNL     1      32.139  43.346  57.096  1.00  0.00    -0.081 Cl
HETATM   22  C   UNL     1      30.273  45.310  57.030  1.00  0.00     0.138 A 
HETATM   23  F   UNL     1      30.767  45.744  58.198  1.00  0.00    -0.204 F 
HETATM   24  C   UNL     1      29.207  45.995  56.459  1.00  0.00     0.044 A 
HETATM   25  C   UNL     1      28.675  45.558  55.244  1.00  0.00     0.012 A 
ENDBRANCH  16  18
ENDBRANCH  14  16
ENDBRANCH   1  14
TORSDOF 5
ENDMDL
MODEL 2
REMARK VINA RESULT:      -8.4      5.037      7.168
REMARK  5 active torsions:
REMARK  status: ('A' for Active; 'I' for Inactive)
REMARK    1  A    between atoms: C_8  and  N_9 
REMARK       I    between atoms: N_9  and  C_10 
REMARK    2  A    between atoms: C_10  and  C_11 
REMARK    3  A    between atoms: C_11  and  N_12 
REMARK    4  A    between atoms: N_12  and  C_13 
REMARK    5  A    between atoms: C_13  and  C_14 
ROOT
HETATM    1  C   UNL     1      25.434  45.477  51.491  1.00  0.00     0.372 C 
ENDROOT
BRANCH   1   2
HETATM    2  C   UNL     1      25.611  46.239  50.168  1.00  0.00     0.250 C 
HETATM    3  N   UNL     1      25.188  47.548  50.258  1.00  0.00    -0.322 N 
HETATM    4  H   UNL     1      24.844  47.814  51.176  1.00  0.00     0.169 HD
HETATM    5  O   UNL     1      26.113  45.687  49.194  1.00  0.00    -0.271 OA
BRANCH   3   6
HETATM    6  C   UNL     1      25.154  48.507  49.262  1.00  0.00     0.085 A 
HETATM    7  C   UNL     1      26.308  49.132  48.824  1.00  0.00     0.052 A 
HETATM    8  C   UNL     1      27.730  48.996  49.212  1.00  0.00     0.072 C 
HETATM    9  N   UNL     1      25.911  50.013  47.860  1.00  0.00    -0.280 N 
HETATM   10  H   UNL     1      26.486  50.646  47.313  1.00  0.00     0.189 HD
HETATM   11  N   UNL     1      24.595  50.016  47.637  1.00  0.00    -0.177 NA
HETATM   12  C   UNL     1      24.112  49.095  48.487  1.00  0.00     0.079 A 
HETATM   13  C   UNL     1      22.647  48.857  48.494  1.00  0.00     0.075 C 
ENDBRANCH   3   6
ENDBRANCH   1   2
BRANCH   1  14
HETATM   14  N   UNL     1      26.543  45.790  52.426  1.00  0.00     0.100 N 
HETATM   15  H   UNL     1      26.136  46.281  53.226  1.00  0.00     0.317 HD
BRANCH  14  16
HETATM   16  C   UNL     1      27.230  44.591  52.950  1.00  0.00     0.250 C 
HETATM   17  C   UNL     1      27.861  43.752  51.830  1.00  0.00     0.048 C 
BRANCH  16  18
HETATM   18  C   UNL     1      28.137  44.899  54.133  1.00  0.00    -0.024 A 
HETATM   19  C   UNL     1      29.174  44.040  54.541  1.00  0.00     0.036 A 
HETATM   20  C   UNL     1      29.981  44.368  55.634  1.00  0.00     0.073 A 
HETATM   21 CL   UNL     1      31.238  43.289  56.108  1.00  0.00    -0.081 Cl
HETATM   22  C   UNL     1      29.766  45.554  56.327  1.00  0.00     0.138 A 
HETATM   23  F   UNL     1      30.528  45.883  57.381  1.00  0.00    -0.204 F 
HETATM   24  C   UNL     1      28.754  46.424  55.937  1.00  0.00     0.044 A 
HETATM   25  C   UNL     1      27.948  46.100  54.844  1.00  0.00     0.012 A 
ENDBRANCH  16  18
ENDBRANCH  14  16
ENDBRANCH   1  14
TORSDOF 5
ENDMDL
MODEL 3
REMARK VINA RESULT:      -8.4      5.014      7.328
REMARK  5 active torsions:
REMARK  status: ('A' for Active; 'I' for Inactive)
REMARK    1  A    between atoms: C_8  and  N_9 
REMARK       I    between atoms: N_9  and  C_10 
REMARK    2  A    between atoms: C_10  and  C_11 
REMARK    3  A    between atoms: C_11  and  N_12 
REMARK    4  A    between atoms: N_12  and  C_13 
REMARK    5  A    between atoms: C_13  and  C_14 
ROOT
HETATM    1  C   UNL     1      25.206  45.326  51.976  1.00  0.00     0.372 C 
ENDROOT
BRANCH   1   2
HETATM    2  C   UNL     1      25.262  46.801  51.545  1.00  0.00     0.250 C 
HETATM    3  N   UNL     1      25.140  46.950  50.179  1.00  0.00    -0.322 N 
HETATM    4  H   UNL     1      25.016  46.079  49.673  1.00  0.00     0.169 HD
HETATM    5  O   UNL     1      25.369  47.690  52.382  1.00  0.00    -0.271 OA
BRANCH   3   6
HETATM    6  C   UNL     1      25.192  48.116  49.439  1.00  0.00     0.085 A 
HETATM    7  C   UNL     1      24.043  48.721  48.963  1.00  0.00     0.052 A 
HETATM    8  C   UNL     1      22.607  48.375  49.078  1.00  0.00     0.072 C 
HETATM    9  N   UNL     1      24.458  49.826  48.277  1.00  0.00    -0.280 N 
HETATM   10  H   UNL     1      23.892  50.512  47.791  1.00  0.00     0.189 HD
HETATM   11  N   UNL     1      25.783  49.988  48.264  1.00  0.00    -0.177 NA
HETATM   12  C   UNL     1      26.252  48.949  48.974  1.00  0.00     0.079 A 
HETATM   13  C   UNL     1      27.722  48.832  49.144  1.00  0.00     0.075 C 
ENDBRANCH   3   6
ENDBRANCH   1   2
BRANCH   1  14
HETATM   14  N   UNL     1      26.173  45.066  53.071  1.00  0.00     0.100 N 
HETATM   15  H   UNL     1      25.643  44.691  53.862  1.00  0.00     0.317 HD
BRANCH  14  16
HETATM   16  C   UNL     1      27.206  44.068  52.723  1.00  0.00     0.250 C 
HETATM   17  C   UNL     1      27.591  44.130  51.238  1.00  0.00     0.048 C 
BRANCH  16  18
HETATM   18  C   UNL     1      28.370  44.054  53.704  1.00  0.00    -0.024 A 
HETATM   19  C   UNL     1      28.467  44.950  54.784  1.00  0.00     0.036 A 
HETATM   20  C   UNL     1      29.555  44.896  55.659  1.00  0.00     0.073 A 
HETATM   21 CL   UNL     1      29.643  46.013  56.967  1.00  0.00    -0.081 Cl
HETATM   22  C   UNL     1      30.554  43.946  55.470  1.00  0.00     0.138 A 
HETATM   23  F   UNL     1      31.607  43.882  56.297  1.00  0.00    -0.204 F 
HETATM   24  C   UNL     1      30.475  43.043  54.416  1.00  0.00     0.044 A 
HETATM   25  C   UNL     1      29.388  43.094  53.541  1.00  0.00     0.012 A 
ENDBRANCH  16  18
ENDBRANCH  14  16
ENDBRANCH   1  14
TORSDOF 5
ENDMDL
MODEL 4
REMARK VINA RESULT:      -8.3      5.144      7.340
REMARK  5 active torsions:
REMARK  status: ('A' for Active; 'I' for Inactive)
REMARK    1  A    between atoms: C_8  and  N_9 
REMARK       I    between atoms: N_9  and  C_10 
REMARK    2  A    between atoms: C_10  and  C_11 
REMARK    3  A    between atoms: C_11  and  N_12 
REMARK    4  A    between atoms: N_12  and  C_13 
REMARK    5  A    between atoms: C_13  and  C_14 
ROOT
HETATM    1  C   UNL     1      25.392  45.503  51.304  1.00  0.00     0.372 C 
ENDROOT
BRANCH   1   2
HETATM    2  C   UNL     1      25.785  46.385  50.108  1.00  0.00     0.250 C 
HETATM    3  N   UNL     1      25.131  47.599  50.117  1.00  0.00    -0.322 N 
HETATM    4  H   UNL     1      24.512  47.734  50.911  1.00  0.00     0.169 HD
HETATM    5  O   UNL     1      26.618  45.998  49.296  1.00  0.00    -0.271 OA
BRANCH   3   6
HETATM    6  C   UNL     1      25.201  48.616  49.183  1.00  0.00     0.085 A 
HETATM    7  C   UNL     1      24.071  49.073  48.530  1.00  0.00     0.052 A 
HETATM    8  C   UNL     1      22.643  48.689  48.608  1.00  0.00     0.072 C 
HETATM    9  N   UNL     1      24.501  50.056  47.685  1.00  0.00    -0.280 N 
HETATM   10  H   UNL     1      23.950  50.619  47.045  1.00  0.00     0.189 HD
HETATM   11  N   UNL     1      25.817  50.273  47.732  1.00  0.00    -0.177 NA
HETATM   12  C   UNL     1      26.265  49.400  48.649  1.00  0.00     0.079 A 
HETATM   13  C   UNL     1      27.721  49.381  48.936  1.00  0.00     0.075 C 
ENDBRANCH   3   6
ENDBRANCH   1   2
BRANCH   1  14
HETATM   14  N   UNL     1      26.285  45.765  52.461  1.00  0.00     0.100 N 
HETATM   15  H   UNL     1      25.697  46.107  53.226  1.00  0.00     0.317 HD
BRANCH  14  16
HETATM   16  C   UNL     1      26.987  44.561  52.950  1.00  0.00     0.250 C 
HETATM   17  C   UNL     1      27.536  43.705  51.800  1.00  0.00     0.048 C 
BRANCH  16  18
HETATM   18  C   UNL     1      27.970  44.864  54.073  1.00  0.00    -0.024 A 
HETATM   19  C   UNL     1      28.997  43.979  54.445  1.00  0.00     0.036 A 
HETATM   20  C   UNL     1      29.876  44.304  55.482  1.00  0.00     0.073 A 
HETATM   21 CL   UNL     1      31.120  43.193  55.913  1.00  0.00    -0.081 Cl
HETATM   22  C   UNL     1      29.742  45.514  56.155  1.00  0.00     0.138 A 
HETATM   23  F   UNL     1      30.573  45.840  57.155  1.00  0.00    -0.204 F 
HETATM   24  C   UNL     1      28.740  46.410  55.799  1.00  0.00     0.044 A 
HETATM   25  C   UNL     1      27.862  46.088  54.761  1.00  0.00     0.012 A 
ENDBRANCH  16  18
ENDBRANCH  14  16
ENDBRANCH   1  14
TORSDOF 5
ENDMDL
MODEL 5
REMARK VINA RESULT:      -8.2      2.135      2.863
REMARK  5 active torsions:
REMARK  status: ('A' for Active; 'I' for Inactive)
REMARK    1  A    between atoms: C_8  and  N_9 
REMARK       I    between atoms: N_9  and  C_10 
REMARK    2  A    between atoms: C_10  and  C_11 
REMARK    3  A    between atoms: C_11  and  N_12 
REMARK    4  A    between atoms: N_12  and  C_13 
REMARK    5  A    between atoms: C_13  and  C_14 
ROOT
HETATM    1  C   UNL     1      25.595  44.389  52.552  1.00  0.00     0.372 C 
ENDROOT
BRANCH   1   2
HETATM    2  C   UNL     1      26.607  43.754  51.584  1.00  0.00     0.250 C 
HETATM    3  N   UNL     1      26.565  42.376  51.614  1.00  0.00    -0.322 N 
HETATM    4  H   UNL     1      25.870  41.993  52.248  1.00  0.00     0.169 HD
HETATM    5  O   UNL     1      27.315  44.459  50.872  1.00  0.00    -0.271 OA
BRANCH   3   6
HETATM    6  C   UNL     1      27.356  41.480  50.919  1.00  0.00     0.085 A 
HETATM    7  C   UNL     1      28.340  40.744  51.554  1.00  0.00     0.052 A 
HETATM    8  C   UNL     1      28.793  40.680  52.962  1.00  0.00     0.072 C 
HETATM    9  N   UNL     1      28.922  39.983  50.581  1.00  0.00    -0.280 N 
HETATM   10  H   UNL     1      29.682  39.318  50.676  1.00  0.00     0.189 HD
HETATM   11  N   UNL     1      28.401  40.166  49.366  1.00  0.00    -0.177 NA
HETATM   12  C   UNL     1      27.436  41.081  49.553  1.00  0.00     0.079 A 
HETATM   13  C   UNL     1      26.654  41.517  48.369  1.00  0.00     0.075 C 
ENDBRANCH   3   6
ENDBRANCH   1   2
BRANCH   1  14
HETATM   14  N   UNL     1      26.172  44.491  53.916  1.00  0.00     0.100 N 
HETATM   15  H   UNL     1      26.658  43.611  54.106  1.00  0.00     0.317 HD
BRANCH  14  16
HETATM   16  C   UNL     1      27.160  45.580  54.059  1.00  0.00     0.250 C 
HETATM   17  C   UNL     1      26.515  46.887  54.539  1.00  0.00     0.048 C 
BRANCH  16  18
HETATM   18  C   UNL     1      28.411  45.148  54.812  1.00  0.00    -0.024 A 
HETATM   19  C   UNL     1      28.860  45.795  55.977  1.00  0.00     0.036 A 
HETATM   20  C   UNL     1      30.015  45.360  56.634  1.00  0.00     0.073 A 
HETATM   21 CL   UNL     1      30.537  46.180  58.055  1.00  0.00    -0.081 Cl
HETATM   22  C   UNL     1      30.729  44.274  56.138  1.00  0.00     0.138 A 
HETATM   23  F   UNL     1      31.841  43.845  56.753  1.00  0.00    -0.204 F 
HETATM   24  C   UNL     1      30.300  43.611  54.994  1.00  0.00     0.044 A 
HETATM   25  C   UNL     1      29.146  44.043  54.338  1.00  0.00     0.012 A 
ENDBRANCH  16  18
ENDBRANCH  14  16
ENDBRANCH   1  14
TORSDOF 5
ENDMDL
MODEL 6
REMARK VINA RESULT:      -8.2      3.557      5.880
REMARK  5 active torsions:
REMARK  status: ('A' for Active; 'I' for Inactive)
REMARK    1  A    between atoms: C_8  and  N_9 
REMARK       I    between atoms: N_9  and  C_10 
REMARK    2  A    between atoms: C_10  and  C_11 
REMARK    3  A    between atoms: C_11  and  N_12 
REMARK    4  A    between atoms: N_12  and  C_13 
REMARK    5  A    between atoms: C_13  and  C_14 
ROOT
HETATM    1  C   UNL     1      27.115  42.225  51.228  1.00  0.00     0.372 C 
ENDROOT
BRANCH   1   2
HETATM    2  C   UNL     1      26.689  43.517  50.511  1.00  0.00     0.250 C 
HETATM    3  N   UNL     1      25.799  44.260  51.257  1.00  0.00    -0.322 N 
HETATM    4  H   UNL     1      25.576  43.858  52.163  1.00  0.00     0.169 HD
HETATM    5  O   UNL     1      27.158  43.803  49.415  1.00  0.00    -0.271 OA
BRANCH   3   6
HETATM    6  C   UNL     1      25.174  45.444  50.914  1.00  0.00     0.085 A 
HETATM    7  C   UNL     1      24.218  45.491  49.915  1.00  0.00     0.052 A 
HETATM    8  C   UNL     1      23.640  44.453  49.031  1.00  0.00     0.072 C 
HETATM    9  N   UNL     1      23.826  46.796  49.835  1.00  0.00    -0.280 N 
HETATM   10  H   UNL     1      23.138  47.208  49.214  1.00  0.00     0.189 HD
HETATM   11  N   UNL     1      24.450  47.602  50.697  1.00  0.00    -0.177 NA
HETATM   12  C   UNL     1      25.281  46.790  51.370  1.00  0.00     0.079 A 
HETATM   13  C   UNL     1      26.142  47.392  52.419  1.00  0.00     0.075 C 
ENDBRANCH   3   6
ENDBRANCH   1   2
BRANCH   1  14
HETATM   14  N   UNL     1      26.865  42.332  52.687  1.00  0.00     0.100 N 
HETATM   15  H   UNL     1      26.060  41.738  52.902  1.00  0.00     0.317 HD
BRANCH  14  16
HETATM   16  C   UNL     1      27.993  41.859  53.516  1.00  0.00     0.250 C 
HETATM   17  C   UNL     1      28.927  40.920  52.739  1.00  0.00     0.048 C 
BRANCH  16  18
HETATM   18  C   UNL     1      28.678  42.984  54.280  1.00  0.00    -0.024 A 
HETATM   19  C   UNL     1      28.072  44.234  54.502  1.00  0.00     0.036 A 
HETATM   20  C   UNL     1      28.742  45.234  55.211  1.00  0.00     0.073 A 
HETATM   21 CL   UNL     1      27.970  46.754  55.459  1.00  0.00    -0.081 Cl
HETATM   22  C   UNL     1      30.019  44.998  55.710  1.00  0.00     0.138 A 
HETATM   23  F   UNL     1      30.678  45.947  56.389  1.00  0.00    -0.204 F 
HETATM   24  C   UNL     1      30.635  43.767  55.513  1.00  0.00     0.044 A 
HETATM   25  C   UNL     1      29.966  42.765  54.806  1.00  0.00     0.012 A 
ENDBRANCH  16  18
ENDBRANCH  14  16
ENDBRANCH   1  14
TORSDOF 5
ENDMDL
MODEL 7
REMARK VINA RESULT:      -8.1      3.858      5.960
REMARK  5 active torsions:
REMARK  status: ('A' for Active; 'I' for Inactive)
REMARK    1  A    between atoms: C_8  and  N_9 
REMARK       I    between atoms: N_9  and  C_10 
REMARK    2  A    between atoms: C_10  and  C_11 
REMARK    3  A    between atoms: C_11  and  N_12 
REMARK    4  A    between atoms: N_12  and  C_13 
REMARK    5  A    between atoms: C_13  and  C_14 
ROOT
HETATM    1  C   UNL     1      27.020  42.526  51.067  1.00  0.00     0.372 C 
ENDROOT
BRANCH   1   2
HETATM    2  C   UNL     1      26.651  43.876  50.430  1.00  0.00     0.250 C 
HETATM    3  N   UNL     1      25.397  44.307  50.809  1.00  0.00    -0.322 N 
HETATM    4  H   UNL     1      24.919  43.687  51.456  1.00  0.00     0.169 HD
HETATM    5  O   UNL     1      27.448  44.460  49.705  1.00  0.00    -0.271 OA
BRANCH   3   6
HETATM    6  C   UNL     1      24.723  45.443  50.400  1.00  0.00     0.085 A 
HETATM    7  C   UNL     1      24.875  46.649  51.060  1.00  0.00     0.052 A 
HETATM    8  C   UNL     1      25.685  47.054  52.232  1.00  0.00     0.072 C 
HETATM    9  N   UNL     1      24.070  47.536  50.407  1.00  0.00    -0.280 N 
HETATM   10  H   UNL     1      23.925  48.519  50.610  1.00  0.00     0.189 HD
HETATM   11  N   UNL     1      23.404  47.007  49.378  1.00  0.00    -0.177 NA
HETATM   12  C   UNL     1      23.793  45.722  49.356  1.00  0.00     0.079 A 
HETATM   13  C   UNL     1      23.216  44.839  48.311  1.00  0.00     0.075 C 
ENDBRANCH   3   6
ENDBRANCH   1   2
BRANCH   1  14
HETATM   14  N   UNL     1      26.759  42.550  52.528  1.00  0.00     0.100 N 
HETATM   15  H   UNL     1      25.965  41.929  52.705  1.00  0.00     0.317 HD
BRANCH  14  16
HETATM   16  C   UNL     1      27.892  42.057  53.338  1.00  0.00     0.250 C 
HETATM   17  C   UNL     1      28.824  41.142  52.532  1.00  0.00     0.048 C 
BRANCH  16  18
HETATM   18  C   UNL     1      28.577  43.162  54.131  1.00  0.00    -0.024 A 
HETATM   19  C   UNL     1      28.032  44.451  54.268  1.00  0.00     0.036 A 
HETATM   20  C   UNL     1      28.700  45.431  55.008  1.00  0.00     0.073 A 
HETATM   21 CL   UNL     1      28.005  47.001  55.150  1.00  0.00    -0.081 Cl
HETATM   22  C   UNL     1      29.913  45.135  55.621  1.00  0.00     0.138 A 
HETATM   23  F   UNL     1      30.570  46.064  56.331  1.00  0.00    -0.204 F 
HETATM   24  C   UNL     1      30.467  43.865  55.508  1.00  0.00     0.044 A 
HETATM   25  C   UNL     1      29.801  42.883  54.771  1.00  0.00     0.012 A 
ENDBRANCH  16  18
ENDBRANCH  14  16
ENDBRANCH   1  14
TORSDOF 5
ENDMDL
MODEL 8
REMARK VINA RESULT:      -8.1      3.839      6.003
REMARK  5 active torsions:
REMARK  status: ('A' for Active; 'I' for Inactive)
REMARK    1  A    between atoms: C_8  and  N_9 
REMARK       I    between atoms: N_9  and  C_10 
REMARK    2  A    between atoms: C_10  and  C_11 
REMARK    3  A    between atoms: C_11  and  N_12 
REMARK    4  A    between atoms: N_12  and  C_13 
REMARK    5  A    between atoms: C_13  and  C_14 
ROOT
HETATM    1  C   UNL     1      27.584  43.607  51.118  1.00  0.00     0.372 C 
ENDROOT
BRANCH   1   2
HETATM    2  C   UNL     1      26.658  44.829  51.231  1.00  0.00     0.250 C 
HETATM    3  N   UNL     1      26.483  45.465  50.019  1.00  0.00    -0.322 N 
HETATM    4  H   UNL     1      26.970  45.026  49.243  1.00  0.00     0.169 HD
HETATM    5  O   UNL     1      26.143  45.123  52.303  1.00  0.00    -0.271 OA
BRANCH   3   6
HETATM    6  C   UNL     1      25.761  46.613  49.752  1.00  0.00     0.085 A 
HETATM    7  C   UNL     1      24.387  46.582  49.600  1.00  0.00     0.052 A 
HETATM    8  C   UNL     1      23.396  45.484  49.667  1.00  0.00     0.072 C 
HETATM    9  N   UNL     1      24.011  47.868  49.339  1.00  0.00    -0.280 N 
HETATM   10  H   UNL     1      23.078  48.227  49.171  1.00  0.00     0.189 HD
HETATM   11  N   UNL     1      25.028  48.733  49.305  1.00  0.00    -0.177 NA
HETATM   12  C   UNL     1      26.111  47.982  49.559  1.00  0.00     0.079 A 
HETATM   13  C   UNL     1      27.434  48.656  49.586  1.00  0.00     0.075 C 
ENDBRANCH   3   6
ENDBRANCH   1   2
BRANCH   1  14
HETATM   14  N   UNL     1      28.746  43.748  52.031  1.00  0.00     0.100 N 
HETATM   15  H   UNL     1      28.870  44.747  52.213  1.00  0.00     0.317 HD
BRANCH  14  16
HETATM   16  C   UNL     1      28.554  43.085  53.338  1.00  0.00     0.250 C 
HETATM   17  C   UNL     1      28.888  41.587  53.280  1.00  0.00     0.048 C 
BRANCH  16  18
HETATM   18  C   UNL     1      29.182  43.856  54.491  1.00  0.00    -0.024 A 
HETATM   19  C   UNL     1      30.261  43.357  55.242  1.00  0.00     0.036 A 
HETATM   20  C   UNL     1      30.804  44.104  56.291  1.00  0.00     0.073 A 
HETATM   21 CL   UNL     1      32.122  43.459  57.193  1.00  0.00    -0.081 Cl
HETATM   22  C   UNL     1      30.281  45.356  56.598  1.00  0.00     0.138 A 
HETATM   23  F   UNL     1      30.786  46.085  57.603  1.00  0.00    -0.204 F 
HETATM   24  C   UNL     1      29.221  45.874  55.863  1.00  0.00     0.044 A 
HETATM   25  C   UNL     1      28.678  45.131  54.813  1.00  0.00     0.012 A 
ENDBRANCH  16  18
ENDBRANCH  14  16
ENDBRANCH   1  14
TORSDOF 5
ENDMDL
MODEL 9
REMARK VINA RESULT:      -7.9      3.784      5.753
REMARK  5 active torsions:
REMARK  status: ('A' for Active; 'I' for Inactive)
REMARK    1  A    between atoms: C_8  and  N_9 
REMARK       I    between atoms: N_9  and  C_10 
REMARK    2  A    between atoms: C_10  and  C_11 
REMARK    3  A    between atoms: C_11  and  N_12 
REMARK    4  A    between atoms: N_12  and  C_13 
REMARK    5  A    between atoms: C_13  and  C_14 
ROOT
HETATM    1  C   UNL     1      26.498  42.865  51.962  1.00  0.00     0.372 C 
ENDROOT
BRANCH   1   2
HETATM    2  C   UNL     1      25.469  43.996  51.799  1.00  0.00     0.250 C 
HETATM    3  N   UNL     1      25.423  44.478  50.508  1.00  0.00    -0.322 N 
HETATM    4  H   UNL     1      26.053  44.009  49.864  1.00  0.00     0.169 HD
HETATM    5  O   UNL     1      24.780  44.351  52.748  1.00  0.00    -0.271 OA
BRANCH   3   6
HETATM    6  C   UNL     1      24.658  45.515  50.009  1.00  0.00     0.085 A 
HETATM    7  C   UNL     1      25.002  46.837  50.230  1.00  0.00     0.052 A 
HETATM    8  C   UNL     1      26.127  47.472  50.955  1.00  0.00     0.072 C 
HETATM    9  N   UNL     1      24.037  47.582  49.615  1.00  0.00    -0.280 N 
HETATM   10  H   UNL     1      23.960  48.592  49.566  1.00  0.00     0.189 HD
HETATM   11  N   UNL     1      23.093  46.854  49.015  1.00  0.00    -0.177 NA
HETATM   12  C   UNL     1      23.457  45.582  49.243  1.00  0.00     0.079 A 
HETATM   13  C   UNL     1      22.592  44.504  48.702  1.00  0.00     0.075 C 
ENDBRANCH   3   6
ENDBRANCH   1   2
BRANCH   1  14
HETATM   14  N   UNL     1      26.904  42.730  53.383  1.00  0.00     0.100 N 
HETATM   15  H   UNL     1      26.388  41.936  53.772  1.00  0.00     0.317 HD
BRANCH  14  16
HETATM   16  C   UNL     1      28.343  42.448  53.562  1.00  0.00     0.250 C 
HETATM   17  C   UNL     1      29.060  42.229  52.222  1.00  0.00     0.048 C 
BRANCH  16  18
HETATM   18  C   UNL     1      29.022  43.418  54.520  1.00  0.00    -0.024 A 
HETATM   19  C   UNL     1      30.139  43.065  55.298  1.00  0.00     0.036 A 
HETATM   20  C   UNL     1      30.727  43.992  56.162  1.00  0.00     0.073 A 
HETATM   21 CL   UNL     1      32.091  43.521  57.103  1.00  0.00    -0.081 Cl
HETATM   22  C   UNL     1      30.211  45.280  56.256  1.00  0.00     0.138 A 
HETATM   23  F   UNL     1      30.760  46.182  57.084  1.00  0.00    -0.204 F 
HETATM   24  C   UNL     1      29.114  45.657  55.490  1.00  0.00     0.044 A 
HETATM   25  C   UNL     1      28.526  44.733  54.624  1.00  0.00     0.012 A 
ENDBRANCH  16  18
ENDBRANCH  14  16
ENDBRANCH   1  14
TORSDOF 5
ENDMDL
MODEL 10
REMARK VINA RESULT:      -7.5      3.484      4.292
REMARK  5 active torsions:
REMARK  status: ('A' for Active; 'I' for Inactive)
REMARK    1  A    between atoms: C_8  and  N_9 
REMARK       I    between atoms: N_9  and  C_10 
REMARK    2  A    between atoms: C_10  and  C_11 
REMARK    3  A    between atoms: C_11  and  N_12 
REMARK    4  A    between atoms: N_12  and  C_13 
REMARK    5  A    between atoms: C_13  and  C_14 
ROOT
HETATM    1  C   UNL     1      27.488  43.644  51.651  1.00  0.00     0.372 C 
ENDROOT
BRANCH   1   2
HETATM    2  C   UNL     1      26.654  43.361  50.390  1.00  0.00     0.250 C 
HETATM    3  N   UNL     1      25.517  42.633  50.668  1.00  0.00    -0.322 N 
HETATM    4  H   UNL     1      25.392  42.412  51.651  1.00  0.00     0.169 HD
HETATM    5  O   UNL     1      27.008  43.796  49.300  1.00  0.00    -0.271 OA
BRANCH   3   6
HETATM    6  C   UNL     1      24.565  42.161  49.783  1.00  0.00     0.085 A 
HETATM    7  C   UNL     1      24.803  41.050  48.994  1.00  0.00     0.052 A 
HETATM    8  C   UNL     1      25.967  40.144  48.863  1.00  0.00     0.072 C 
HETATM    9  N   UNL     1      23.674  40.876  48.245  1.00  0.00    -0.280 N 
HETATM   10  H   UNL     1      23.485  40.159  47.554  1.00  0.00     0.189 HD
HETATM   11  N   UNL     1      22.724  41.783  48.480  1.00  0.00    -0.177 NA
HETATM   12  C   UNL     1      23.251  42.581  49.423  1.00  0.00     0.079 A 
HETATM   13  C   UNL     1      22.431  43.719  49.908  1.00  0.00     0.075 C 
ENDBRANCH   3   6
ENDBRANCH   1   2
BRANCH   1  14
HETATM   14  N   UNL     1      27.023  42.803  52.782  1.00  0.00     0.100 N 
HETATM   15  H   UNL     1      26.526  42.003  52.382  1.00  0.00     0.317 HD
BRANCH  14  16
HETATM   16  C   UNL     1      28.122  42.268  53.611  1.00  0.00     0.250 C 
HETATM   17  C   UNL     1      29.077  41.380  52.800  1.00  0.00     0.048 C 
BRANCH  16  18
HETATM   18  C   UNL     1      28.786  43.333  54.474  1.00  0.00    -0.024 A 
HETATM   19  C   UNL     1      28.144  44.533  54.830  1.00  0.00     0.036 A 
HETATM   20  C   UNL     1      28.796  45.479  55.626  1.00  0.00     0.073 A 
HETATM   21 CL   UNL     1      27.981  46.939  56.038  1.00  0.00    -0.081 Cl
HETATM   22  C   UNL     1      30.089  45.237  56.077  1.00  0.00     0.138 A 
HETATM   23  F   UNL     1      30.731  46.136  56.837  1.00  0.00    -0.204 F 
HETATM   24  C   UNL     1      30.740  44.055  55.746  1.00  0.00     0.044 A 
HETATM   25  C   UNL     1      30.091  43.107  54.953  1.00  0.00     0.012 A 
ENDBRANCH  16  18
ENDBRANCH  14  16
ENDBRANCH   1  14
TORSDOF 5
ENDMDL
