MODEL 1
REMARK VINA RESULT:     -11.8      0.000      0.000
REMARK  8 active torsions:
REMARK  status: ('A' for Active; 'I' for Inactive)
REMARK    1  A    between atoms: C_4  and  N_5 
REMARK       I    between atoms: N_5  and  C_6 
REMARK    2  A    between atoms: C_6  and  C_7 
REMARK    3  A    between atoms: C_7  and  N_8 
REMARK    4  A    between atoms: N_11  and  C_12 
REMARK    5  A    between atoms: C_12  and  C_13 
REMARK    6  A    between atoms: C_16  and  C_17 
REMARK       I    between atoms: C_17  and  N_18 
REMARK    7  A    between atoms: N_18  and  C_19 
REMARK    8  A    between atoms: C_19  and  C_20 
ROOT
HETATM    1  N   UNL     1      20.534  48.393  48.334  1.00  0.00    -0.290 N 
HETATM    2  C   UNL     1      21.895  48.613  48.092  1.00  0.00     0.332 C 
HETATM    3  O   UNL     1      22.473  48.015  47.184  1.00  0.00    -0.246 OA
HETATM    4  N   UNL     1      22.540  49.519  48.927  1.00  0.00    -0.261 N 
HETATM    5  C   UNL     1      21.882  50.442  49.720  1.00  0.00     0.264 C 
HETATM    6  O   UNL     1      22.445  51.254  50.449  1.00  0.00    -0.267 OA
HETATM    7  C   UNL     1      20.418  50.467  49.616  1.00  0.00     0.059 A 
HETATM    8  C   UNL     1      19.761  49.439  48.937  1.00  0.00     0.055 A 
HETATM    9  C   UNL     1      19.718  51.561  50.154  1.00  0.00     0.019 A 
HETATM   10  C   UNL     1      18.340  51.647  50.006  1.00  0.00     0.001 A 
HETATM   11  C   UNL     1      17.664  50.631  49.341  1.00  0.00     0.002 A 
HETATM   12  C   UNL     1      18.365  49.534  48.820  1.00  0.00     0.031 A 
ENDROOT
BRANCH   4  13
HETATM   13  C   UNL     1      23.988  49.676  48.789  1.00  0.00     0.175 C 
BRANCH  13  14
HETATM   14  C   UNL     1      24.764  48.536  49.407  1.00  0.00    -0.040 A 
HETATM   15  C   UNL     1      26.150  48.456  49.199  1.00  0.00     0.010 A 
HETATM   16  C   UNL     1      26.854  47.323  49.586  1.00  0.00     0.017 A 
HETATM   17  C   UNL     1      26.175  46.259  50.187  1.00  0.00     0.032 A 
HETATM   18  C   UNL     1      24.815  46.369  50.493  1.00  0.00     0.017 A 
HETATM   19  C   UNL     1      24.109  47.508  50.102  1.00  0.00     0.010 A 
BRANCH  17  20
HETATM   20  C   UNL     1      26.859  44.960  50.396  1.00  0.00     0.251 C 
HETATM   21  N   UNL     1      27.027  44.624  51.725  1.00  0.00    -0.353 N 
HETATM   22  H   UNL     1      26.814  45.327  52.419  1.00  0.00     0.163 HD
HETATM   23  O   UNL     1      27.293  44.320  49.448  1.00  0.00    -0.268 OA
BRANCH  21  24
HETATM   24  C   UNL     1      27.950  43.593  52.129  1.00  0.00     0.161 C 
BRANCH  24  25
HETATM   25  C   UNL     1      28.604  43.902  53.477  1.00  0.00    -0.038 A 
HETATM   26  C   UNL     1      27.993  44.896  54.329  1.00  0.00     0.048 A 
HETATM   27  C   UNL     1      28.751  45.074  55.456  1.00  0.00     0.105 A 
HETATM   28  C   UNL     1      30.244  44.112  55.716  1.00  0.00     0.105 A 
HETATM   29  O   UNL     1      28.661  46.363  57.003  1.00  0.00    -0.323 OA
HETATM   30  O   UNL     1      31.110  44.612  57.203  1.00  0.00    -0.323 OA
HETATM   31  C   UNL     1      30.730  43.175  54.879  1.00  0.00     0.040 A 
HETATM   32  C   UNL     1      30.220  46.017  58.111  1.00  0.00     0.352 A 
HETATM   33  C   UNL     1      29.869  43.100  53.762  1.00  0.00     0.012 A 
ENDBRANCH  24  25
ENDBRANCH  21  24
ENDBRANCH  17  20
ENDBRANCH  13  14
ENDBRANCH   4  13
BRANCH   1  34
HETATM   34  C   UNL     1      19.891  47.413  47.452  1.00  0.00     0.237 C 
BRANCH  34  35
HETATM   35  C   UNL     1      20.024  45.901  47.751  1.00  0.00     0.240 C 
HETATM   36  N   UNL     1      21.041  45.250  47.072  1.00  0.00    -0.326 N 
HETATM   37  H   UNL     1      21.436  45.712  46.264  1.00  0.00     0.169 HD
HETATM   38  O   UNL     1      19.384  45.433  48.693  1.00  0.00    -0.271 OA
BRANCH  36  39
HETATM   39  C   UNL     1      21.668  44.031  47.462  1.00  0.00     0.035 A 
HETATM   40  C   UNL     1      22.498  43.910  48.976  1.00  0.00     0.036 A 
HETATM   41  C   UNL     1      23.452  42.596  49.478  1.00  0.00    -0.060 A 
HETATM   42  C   UNL     1      24.205  42.623  50.761  1.00  0.00     0.048 C 
HETATM   43  C   UNL     1      23.618  41.268  48.378  1.00  0.00     0.007 A 
HETATM   44  C   UNL     1      22.613  41.380  46.580  1.00  0.00     0.003 A 
HETATM   45  C   UNL     1      21.670  42.813  46.272  1.00  0.00     0.029 A 
ENDBRANCH  36  39
ENDBRANCH  34  35
ENDBRANCH   1  34
TORSDOF 8
ENDMDL
MODEL 2
REMARK VINA RESULT:     -11.6      0.763      1.730
REMARK  8 active torsions:
REMARK  status: ('A' for Active; 'I' for Inactive)
REMARK    1  A    between atoms: C_4  and  N_5 
REMARK       I    between atoms: N_5  and  C_6 
REMARK    2  A    between atoms: C_6  and  C_7 
REMARK    3  A    between atoms: C_7  and  N_8 
REMARK    4  A    between atoms: N_11  and  C_12 
REMARK    5  A    between atoms: C_12  and  C_13 
REMARK    6  A    between atoms: C_16  and  C_17 
REMARK       I    between atoms: C_17  and  N_18 
REMARK    7  A    between atoms: N_18  and  C_19 
REMARK    8  A    between atoms: C_19  and  C_20 
ROOT
HETATM    1  N   UNL     1      20.527  48.074  48.351  1.00  0.00    -0.290 N 
HETATM    2  C   UNL     1      21.881  48.304  48.082  1.00  0.00     0.332 C 
HETATM    3  O   UNL     1      22.457  47.676  47.193  1.00  0.00    -0.246 OA
HETATM    4  N   UNL     1      22.522  49.256  48.868  1.00  0.00    -0.261 N 
HETATM    5  C   UNL     1      21.859  50.202  49.629  1.00  0.00     0.264 C 
HETATM    6  O   UNL     1      22.418  51.054  50.315  1.00  0.00    -0.267 OA
HETATM    7  C   UNL     1      20.393  50.199  49.543  1.00  0.00     0.059 A 
HETATM    8  C   UNL     1      19.745  49.133  48.918  1.00  0.00     0.055 A 
HETATM    9  C   UNL     1      19.683  51.305  50.042  1.00  0.00     0.019 A 
HETATM   10  C   UNL     1      18.301  51.362  49.909  1.00  0.00     0.001 A 
HETATM   11  C   UNL     1      17.633  50.308  49.297  1.00  0.00     0.002 A 
HETATM   12  C   UNL     1      18.346  49.200  48.815  1.00  0.00     0.031 A 
ENDROOT
BRANCH   4  13
HETATM   13  C   UNL     1      23.965  49.430  48.704  1.00  0.00     0.175 C 
BRANCH  13  14
HETATM   14  C   UNL     1      24.769  48.365  49.415  1.00  0.00    -0.040 A 
HETATM   15  C   UNL     1      26.151  48.281  49.185  1.00  0.00     0.010 A 
HETATM   16  C   UNL     1      26.878  47.200  49.667  1.00  0.00     0.017 A 
HETATM   17  C   UNL     1      26.227  46.193  50.385  1.00  0.00     0.032 A 
HETATM   18  C   UNL     1      24.872  46.318  50.708  1.00  0.00     0.017 A 
HETATM   19  C   UNL     1      24.143  47.404  50.222  1.00  0.00     0.010 A 
BRANCH  17  20
HETATM   20  C   UNL     1      26.932  44.929  50.707  1.00  0.00     0.251 C 
HETATM   21  N   UNL     1      26.983  44.645  52.057  1.00  0.00    -0.353 N 
HETATM   22  H   UNL     1      26.680  45.363  52.701  1.00  0.00     0.163 HD
HETATM   23  O   UNL     1      27.477  44.274  49.829  1.00  0.00    -0.268 OA
BRANCH  21  24
HETATM   24  C   UNL     1      27.899  43.664  52.585  1.00  0.00     0.161 C 
BRANCH  24  25
HETATM   25  C   UNL     1      28.623  44.169  53.835  1.00  0.00    -0.038 A 
HETATM   26  C   UNL     1      29.722  43.390  54.358  1.00  0.00     0.048 A 
HETATM   27  C   UNL     1      30.199  43.968  55.504  1.00  0.00     0.105 A 
HETATM   28  C   UNL     1      29.485  45.494  56.125  1.00  0.00     0.105 A 
HETATM   29  O   UNL     1      31.570  43.415  56.873  1.00  0.00    -0.323 OA
HETATM   30  O   UNL     1      30.208  45.979  57.692  1.00  0.00    -0.323 OA
HETATM   31  C   UNL     1      28.476  46.177  55.554  1.00  0.00     0.040 A 
HETATM   32  C   UNL     1      31.536  44.760  58.275  1.00  0.00     0.352 A 
HETATM   33  C   UNL     1      28.071  45.474  54.398  1.00  0.00     0.012 A 
ENDBRANCH  24  25
ENDBRANCH  21  24
ENDBRANCH  17  20
ENDBRANCH  13  14
ENDBRANCH   4  13
BRANCH   1  34
HETATM   34  C   UNL     1      19.889  47.046  47.521  1.00  0.00     0.237 C 
BRANCH  34  35
HETATM   35  C   UNL     1      20.256  45.556  47.718  1.00  0.00     0.240 C 
HETATM   36  N   UNL     1      21.267  45.081  46.901  1.00  0.00    -0.326 N 
HETATM   37  H   UNL     1      21.504  45.626  46.082  1.00  0.00     0.169 HD
HETATM   38  O   UNL     1      19.795  44.966  48.696  1.00  0.00    -0.271 OA
BRANCH  36  39
HETATM   39  C   UNL     1      22.092  43.946  47.153  1.00  0.00     0.035 A 
HETATM   40  C   UNL     1      21.552  42.354  46.744  1.00  0.00     0.036 A 
HETATM   41  C   UNL     1      22.337  40.906  47.164  1.00  0.00    -0.060 A 
HETATM   42  C   UNL     1      21.745  39.577  46.847  1.00  0.00     0.048 C 
HETATM   43  C   UNL     1      23.796  41.031  48.089  1.00  0.00     0.007 A 
HETATM   44  C   UNL     1      24.472  42.922  48.562  1.00  0.00     0.003 A 
HETATM   45  C   UNL     1      23.524  44.278  48.014  1.00  0.00     0.029 A 
ENDBRANCH  36  39
ENDBRANCH  34  35
ENDBRANCH   1  34
TORSDOF 8
ENDMDL
MODEL 3
REMARK VINA RESULT:     -10.3      2.937      4.519
REMARK  8 active torsions:
REMARK  status: ('A' for Active; 'I' for Inactive)
REMARK    1  A    between atoms: C_4  and  N_5 
REMARK       I    between atoms: N_5  and  C_6 
REMARK    2  A    between atoms: C_6  and  C_7 
REMARK    3  A    between atoms: C_7  and  N_8 
REMARK    4  A    between atoms: N_11  and  C_12 
REMARK    5  A    between atoms: C_12  and  C_13 
REMARK    6  A    between atoms: C_16  and  C_17 
REMARK       I    between atoms: C_17  and  N_18 
REMARK    7  A    between atoms: N_18  and  C_19 
REMARK    8  A    between atoms: C_19  and  C_20 
ROOT
HETATM    1  N   UNL     1      18.980  48.109  48.908  1.00  0.00    -0.290 N 
HETATM    2  C   UNL     1      20.099  47.473  48.358  1.00  0.00     0.332 C 
HETATM    3  O   UNL     1      19.998  46.352  47.859  1.00  0.00    -0.246 OA
HETATM    4  N   UNL     1      21.304  48.164  48.419  1.00  0.00    -0.261 N 
HETATM    5  C   UNL     1      21.403  49.523  48.657  1.00  0.00     0.264 C 
HETATM    6  O   UNL     1      22.463  50.144  48.698  1.00  0.00    -0.267 OA
HETATM    7  C   UNL     1      20.139  50.255  48.806  1.00  0.00     0.059 A 
HETATM    8  C   UNL     1      18.947  49.542  48.942  1.00  0.00     0.055 A 
HETATM    9  C   UNL     1      20.157  51.659  48.748  1.00  0.00     0.019 A 
HETATM   10  C   UNL     1      18.968  52.374  48.814  1.00  0.00     0.001 A 
HETATM   11  C   UNL     1      17.769  51.686  48.957  1.00  0.00     0.002 A 
HETATM   12  C   UNL     1      17.758  50.285  49.030  1.00  0.00     0.031 A 
ENDROOT
BRANCH   4  13
HETATM   13  C   UNL     1      22.517  47.479  47.974  1.00  0.00     0.175 C 
BRANCH  13  14
HETATM   14  C   UNL     1      23.162  46.658  49.067  1.00  0.00    -0.040 A 
HETATM   15  C   UNL     1      24.155  47.240  49.869  1.00  0.00     0.010 A 
HETATM   16  C   UNL     1      24.899  46.459  50.745  1.00  0.00     0.017 A 
HETATM   17  C   UNL     1      24.652  45.086  50.825  1.00  0.00     0.032 A 
HETATM   18  C   UNL     1      23.597  44.513  50.108  1.00  0.00     0.017 A 
HETATM   19  C   UNL     1      22.853  45.299  49.228  1.00  0.00     0.010 A 
BRANCH  17  20
HETATM   20  C   UNL     1      25.579  44.203  51.575  1.00  0.00     0.251 C 
HETATM   21  N   UNL     1      26.910  44.533  51.422  1.00  0.00    -0.353 N 
HETATM   22  H   UNL     1      27.147  45.224  50.725  1.00  0.00     0.163 HD
HETATM   23  O   UNL     1      25.160  43.233  52.192  1.00  0.00    -0.268 OA
BRANCH  21  24
HETATM   24  C   UNL     1      27.959  43.611  51.784  1.00  0.00     0.161 C 
BRANCH  24  25
HETATM   25  C   UNL     1      28.541  43.915  53.166  1.00  0.00    -0.038 A 
HETATM   26  C   UNL     1      27.876  44.894  53.995  1.00  0.00     0.048 A 
HETATM   27  C   UNL     1      28.575  45.069  55.160  1.00  0.00     0.105 A 
HETATM   28  C   UNL     1      30.064  44.121  55.486  1.00  0.00     0.105 A 
HETATM   29  O   UNL     1      28.392  46.342  56.712  1.00  0.00    -0.323 OA
HETATM   30  O   UNL     1      30.848  44.618  57.019  1.00  0.00    -0.323 OA
HETATM   31  C   UNL     1      30.602  43.199  54.666  1.00  0.00     0.040 A 
HETATM   32  C   UNL     1      29.897  46.004  57.893  1.00  0.00     0.352 A 
HETATM   33  C   UNL     1      29.800  43.124  53.506  1.00  0.00     0.012 A 
ENDBRANCH  24  25
ENDBRANCH  21  24
ENDBRANCH  17  20
ENDBRANCH  13  14
ENDBRANCH   4  13
BRANCH   1  34
HETATM   34  C   UNL     1      17.731  47.341  48.850  1.00  0.00     0.237 C 
BRANCH  34  35
HETATM   35  C   UNL     1      16.777  47.510  47.644  1.00  0.00     0.240 C 
HETATM   36  N   UNL     1      17.274  47.072  46.428  1.00  0.00    -0.326 N 
HETATM   37  H   UNL     1      18.272  46.929  46.354  1.00  0.00     0.169 HD
HETATM   38  O   UNL     1      15.604  47.814  47.866  1.00  0.00    -0.271 OA
BRANCH  36  39
HETATM   39  C   UNL     1      16.504  46.693  45.290  1.00  0.00     0.035 A 
HETATM   40  C   UNL     1      15.409  47.813  44.553  1.00  0.00     0.036 A 
HETATM   41  C   UNL     1      14.293  47.441  43.326  1.00  0.00    -0.060 A 
HETATM   42  C   UNL     1      13.325  48.452  42.819  1.00  0.00     0.048 C 
HETATM   43  C   UNL     1      14.237  45.801  42.772  1.00  0.00     0.007 A 
HETATM   44  C   UNL     1      15.554  44.457  43.618  1.00  0.00     0.003 A 
HETATM   45  C   UNL     1      16.633  45.053  44.851  1.00  0.00     0.029 A 
ENDBRANCH  36  39
ENDBRANCH  34  35
ENDBRANCH   1  34
TORSDOF 8
ENDMDL
MODEL 4
REMARK VINA RESULT:     -10.3      2.575      5.211
REMARK  8 active torsions:
REMARK  status: ('A' for Active; 'I' for Inactive)
REMARK    1  A    between atoms: C_4  and  N_5 
REMARK       I    between atoms: N_5  and  C_6 
REMARK    2  A    between atoms: C_6  and  C_7 
REMARK    3  A    between atoms: C_7  and  N_8 
REMARK    4  A    between atoms: N_11  and  C_12 
REMARK    5  A    between atoms: C_12  and  C_13 
REMARK    6  A    between atoms: C_16  and  C_17 
REMARK       I    between atoms: C_17  and  N_18 
REMARK    7  A    between atoms: N_18  and  C_19 
REMARK    8  A    between atoms: C_19  and  C_20 
ROOT
HETATM    1  N   UNL     1      19.875  48.290  48.292  1.00  0.00    -0.290 N 
HETATM    2  C   UNL     1      21.221  48.241  47.913  1.00  0.00     0.332 C 
HETATM    3  O   UNL     1      21.582  47.525  46.978  1.00  0.00    -0.246 OA
HETATM    4  N   UNL     1      22.107  49.023  48.647  1.00  0.00    -0.261 N 
HETATM    5  C   UNL     1      21.718  50.070  49.463  1.00  0.00     0.264 C 
HETATM    6  O   UNL     1      22.494  50.774  50.104  1.00  0.00    -0.267 OA
HETATM    7  C   UNL     1      20.282  50.373  49.498  1.00  0.00     0.059 A 
HETATM    8  C   UNL     1      19.378  49.476  48.925  1.00  0.00     0.055 A 
HETATM    9  C   UNL     1      19.859  51.591  50.057  1.00  0.00     0.019 A 
HETATM   10  C   UNL     1      18.513  51.936  50.038  1.00  0.00     0.001 A 
HETATM   11  C   UNL     1      17.594  51.056  49.480  1.00  0.00     0.002 A 
HETATM   12  C   UNL     1      18.020  49.835  48.937  1.00  0.00     0.031 A 
ENDROOT
BRANCH   4  13
HETATM   13  C   UNL     1      23.537  48.897  48.367  1.00  0.00     0.175 C 
BRANCH  13  14
HETATM   14  C   UNL     1      24.190  47.773  49.137  1.00  0.00    -0.040 A 
HETATM   15  C   UNL     1      23.541  46.532  49.223  1.00  0.00     0.010 A 
HETATM   16  C   UNL     1      24.018  45.548  50.081  1.00  0.00     0.017 A 
HETATM   17  C   UNL     1      25.152  45.799  50.858  1.00  0.00     0.032 A 
HETATM   18  C   UNL     1      25.866  46.992  50.704  1.00  0.00     0.017 A 
HETATM   19  C   UNL     1      25.385  47.979  49.844  1.00  0.00     0.010 A 
BRANCH  17  20
HETATM   20  C   UNL     1      25.540  44.860  51.938  1.00  0.00     0.251 C 
HETATM   21  N   UNL     1      26.901  44.792  52.157  1.00  0.00    -0.353 N 
HETATM   22  H   UNL     1      27.509  45.254  51.495  1.00  0.00     0.163 HD
HETATM   23  O   UNL     1      24.702  44.167  52.498  1.00  0.00    -0.268 OA
BRANCH  21  24
HETATM   24  C   UNL     1      27.489  43.710  52.909  1.00  0.00     0.161 C 
BRANCH  24  25
HETATM   25  C   UNL     1      28.350  44.217  54.068  1.00  0.00    -0.038 A 
HETATM   26  C   UNL     1      29.423  43.378  54.550  1.00  0.00     0.048 A 
HETATM   27  C   UNL     1      30.036  43.974  55.620  1.00  0.00     0.105 A 
HETATM   28  C   UNL     1      29.498  45.584  56.203  1.00  0.00     0.105 A 
HETATM   29  O   UNL     1      31.466  43.380  56.910  1.00  0.00    -0.323 OA
HETATM   30  O   UNL     1      30.382  46.089  57.678  1.00  0.00    -0.323 OA
HETATM   31  C   UNL     1      28.503  46.319  55.672  1.00  0.00     0.040 A 
HETATM   32  C   UNL     1      31.653  44.796  58.228  1.00  0.00     0.352 A 
HETATM   33  C   UNL     1      27.951  45.592  54.594  1.00  0.00     0.012 A 
ENDBRANCH  24  25
ENDBRANCH  21  24
ENDBRANCH  17  20
ENDBRANCH  13  14
ENDBRANCH   4  13
BRANCH   1  34
HETATM   34  C   UNL     1      18.973  47.434  47.513  1.00  0.00     0.237 C 
BRANCH  34  35
HETATM   35  C   UNL     1      18.173  48.030  46.331  1.00  0.00     0.240 C 
HETATM   36  N   UNL     1      16.796  48.024  46.484  1.00  0.00    -0.326 N 
HETATM   37  H   UNL     1      16.406  47.418  47.194  1.00  0.00     0.169 HD
HETATM   38  O   UNL     1      18.789  48.642  45.458  1.00  0.00    -0.271 OA
BRANCH  36  39
HETATM   39  C   UNL     1      15.869  48.872  45.812  1.00  0.00     0.035 A 
HETATM   40  C   UNL     1      15.860  50.578  46.105  1.00  0.00     0.036 A 
HETATM   41  C   UNL     1      14.693  51.673  45.532  1.00  0.00    -0.060 A 
HETATM   42  C   UNL     1      14.717  53.111  45.916  1.00  0.00     0.048 C 
HETATM   43  C   UNL     1      13.397  51.028  44.581  1.00  0.00     0.007 A 
HETATM   44  C   UNL     1      13.406  49.001  44.195  1.00  0.00     0.003 A 
HETATM   45  C   UNL     1      14.711  48.059  44.864  1.00  0.00     0.029 A 
ENDBRANCH  36  39
ENDBRANCH  34  35
ENDBRANCH   1  34
TORSDOF 8
ENDMDL
MODEL 5
REMARK VINA RESULT:     -10.2      2.854      5.209
REMARK  8 active torsions:
REMARK  status: ('A' for Active; 'I' for Inactive)
REMARK    1  A    between atoms: C_4  and  N_5 
REMARK       I    between atoms: N_5  and  C_6 
REMARK    2  A    between atoms: C_6  and  C_7 
REMARK    3  A    between atoms: C_7  and  N_8 
REMARK    4  A    between atoms: N_11  and  C_12 
REMARK    5  A    between atoms: C_12  and  C_13 
REMARK    6  A    between atoms: C_16  and  C_17 
REMARK       I    between atoms: C_17  and  N_18 
REMARK    7  A    between atoms: N_18  and  C_19 
REMARK    8  A    between atoms: C_19  and  C_20 
ROOT
HETATM    1  N   UNL     1      19.465  47.972  48.838  1.00  0.00    -0.290 N 
HETATM    2  C   UNL     1      20.721  47.749  48.262  1.00  0.00     0.332 C 
HETATM    3  O   UNL     1      20.879  46.847  47.438  1.00  0.00    -0.246 OA
HETATM    4  N   UNL     1      21.756  48.581  48.675  1.00  0.00    -0.261 N 
HETATM    5  C   UNL     1      21.563  49.788  49.323  1.00  0.00     0.264 C 
HETATM    6  O   UNL     1      22.471  50.535  49.679  1.00  0.00    -0.267 OA
HETATM    7  C   UNL     1      20.170  50.203  49.532  1.00  0.00     0.059 A 
HETATM    8  C   UNL     1      19.141  49.290  49.299  1.00  0.00     0.055 A 
HETATM    9  C   UNL     1      19.908  51.533  49.904  1.00  0.00     0.019 A 
HETATM   10  C   UNL     1      18.597  51.973  50.037  1.00  0.00     0.001 A 
HETATM   11  C   UNL     1      17.555  51.079  49.819  1.00  0.00     0.002 A 
HETATM   12  C   UNL     1      17.824  49.749  49.462  1.00  0.00     0.031 A 
ENDROOT
BRANCH   4  13
HETATM   13  C   UNL     1      23.107  48.295  48.195  1.00  0.00     0.175 C 
BRANCH  13  14
HETATM   14  C   UNL     1      23.872  47.368  49.112  1.00  0.00    -0.040 A 
HETATM   15  C   UNL     1      23.592  45.993  49.088  1.00  0.00     0.010 A 
HETATM   16  C   UNL     1      24.134  45.149  50.050  1.00  0.00     0.017 A 
HETATM   17  C   UNL     1      24.964  45.676  51.043  1.00  0.00     0.032 A 
HETATM   18  C   UNL     1      25.332  47.025  51.016  1.00  0.00     0.017 A 
HETATM   19  C   UNL     1      24.785  47.871  50.051  1.00  0.00     0.010 A 
BRANCH  17  20
HETATM   20  C   UNL     1      25.363  44.842  52.203  1.00  0.00     0.251 C 
HETATM   21  N   UNL     1      26.697  44.488  52.203  1.00  0.00    -0.353 N 
HETATM   22  H   UNL     1      27.239  44.690  51.375  1.00  0.00     0.163 HD
HETATM   23  O   UNL     1      24.532  44.456  53.014  1.00  0.00    -0.268 OA
BRANCH  21  24
HETATM   24  C   UNL     1      27.192  43.422  53.039  1.00  0.00     0.161 C 
BRANCH  24  25
HETATM   25  C   UNL     1      28.170  43.930  54.100  1.00  0.00    -0.038 A 
HETATM   26  C   UNL     1      29.212  43.041  54.562  1.00  0.00     0.048 A 
HETATM   27  C   UNL     1      29.942  43.652  55.547  1.00  0.00     0.105 A 
HETATM   28  C   UNL     1      29.566  45.331  56.058  1.00  0.00     0.105 A 
HETATM   29  O   UNL     1      31.416  43.029  56.772  1.00  0.00    -0.323 OA
HETATM   30  O   UNL     1      30.589  45.854  57.433  1.00  0.00    -0.323 OA
HETATM   31  C   UNL     1      28.591  46.107  55.549  1.00  0.00     0.040 A 
HETATM   32  C   UNL     1      31.800  44.503  57.979  1.00  0.00     0.352 A 
HETATM   33  C   UNL     1      27.911  45.361  54.561  1.00  0.00     0.012 A 
ENDBRANCH  24  25
ENDBRANCH  21  24
ENDBRANCH  17  20
ENDBRANCH  13  14
ENDBRANCH   4  13
BRANCH   1  34
HETATM   34  C   UNL     1      18.403  47.060  48.398  1.00  0.00     0.237 C 
BRANCH  34  35
HETATM   35  C   UNL     1      17.569  47.396  47.139  1.00  0.00     0.240 C 
HETATM   36  N   UNL     1      16.226  47.644  47.366  1.00  0.00    -0.326 N 
HETATM   37  H   UNL     1      15.835  47.339  48.248  1.00  0.00     0.169 HD
HETATM   38  O   UNL     1      18.167  47.625  46.087  1.00  0.00    -0.271 OA
BRANCH  36  39
HETATM   39  C   UNL     1      15.350  48.387  46.522  1.00  0.00     0.035 A 
HETATM   40  C   UNL     1      14.461  47.601  45.262  1.00  0.00     0.036 A 
HETATM   41  C   UNL     1      13.543  48.383  44.064  1.00  0.00    -0.060 A 
HETATM   42  C   UNL     1      12.889  47.625  42.963  1.00  0.00     0.048 C 
HETATM   43  C   UNL     1      13.501  50.114  44.098  1.00  0.00     0.007 A 
HETATM   44  C   UNL     1      14.531  51.070  45.609  1.00  0.00     0.003 A 
HETATM   45  C   UNL     1      15.395  50.074  46.750  1.00  0.00     0.029 A 
ENDBRANCH  36  39
ENDBRANCH  34  35
ENDBRANCH   1  34
TORSDOF 8
ENDMDL
MODEL 6
REMARK VINA RESULT:      -9.8      3.402      5.680
REMARK  8 active torsions:
REMARK  status: ('A' for Active; 'I' for Inactive)
REMARK    1  A    between atoms: C_4  and  N_5 
REMARK       I    between atoms: N_5  and  C_6 
REMARK    2  A    between atoms: C_6  and  C_7 
REMARK    3  A    between atoms: C_7  and  N_8 
REMARK    4  A    between atoms: N_11  and  C_12 
REMARK    5  A    between atoms: C_12  and  C_13 
REMARK    6  A    between atoms: C_16  and  C_17 
REMARK       I    between atoms: C_17  and  N_18 
REMARK    7  A    between atoms: N_18  and  C_19 
REMARK    8  A    between atoms: C_19  and  C_20 
ROOT
HETATM    1  N   UNL     1      18.281  49.031  47.654  1.00  0.00    -0.290 N 
HETATM    2  C   UNL     1      19.619  48.915  47.263  1.00  0.00     0.332 C 
HETATM    3  O   UNL     1      19.918  48.330  46.221  1.00  0.00    -0.246 OA
HETATM    4  N   UNL     1      20.569  49.477  48.109  1.00  0.00    -0.261 N 
HETATM    5  C   UNL     1      20.274  50.410  49.088  1.00  0.00     0.264 C 
HETATM    6  O   UNL     1      21.109  50.922  49.830  1.00  0.00    -0.267 OA
HETATM    7  C   UNL     1      18.873  50.839  49.182  1.00  0.00     0.059 A 
HETATM    8  C   UNL     1      17.893  50.140  48.475  1.00  0.00     0.055 A 
HETATM    9  C   UNL     1      18.564  51.985  49.935  1.00  0.00     0.019 A 
HETATM   10  C   UNL     1      17.258  52.456  49.982  1.00  0.00     0.001 A 
HETATM   11  C   UNL     1      16.264  51.771  49.293  1.00  0.00     0.002 A 
HETATM   12  C   UNL     1      16.576  50.620  48.555  1.00  0.00     0.031 A 
ENDROOT
BRANCH   4  13
HETATM   13  C   UNL     1      21.982  49.263  47.803  1.00  0.00     0.175 C 
BRANCH  13  14
HETATM   14  C   UNL     1      22.565  48.070  48.525  1.00  0.00    -0.040 A 
HETATM   15  C   UNL     1      23.607  48.266  49.445  1.00  0.00     0.010 A 
HETATM   16  C   UNL     1      24.290  47.178  49.974  1.00  0.00     0.017 A 
HETATM   17  C   UNL     1      23.935  45.883  49.586  1.00  0.00     0.032 A 
HETATM   18  C   UNL     1      22.833  45.671  48.751  1.00  0.00     0.017 A 
HETATM   19  C   UNL     1      22.149  46.765  48.220  1.00  0.00     0.010 A 
BRANCH  17  20
HETATM   20  C   UNL     1      24.792  44.731  49.956  1.00  0.00     0.251 C 
HETATM   21  N   UNL     1      24.800  44.452  51.308  1.00  0.00    -0.353 N 
HETATM   22  H   UNL     1      24.360  45.116  51.929  1.00  0.00     0.163 HD
HETATM   23  O   UNL     1      25.477  44.163  49.116  1.00  0.00    -0.268 OA
BRANCH  21  24
HETATM   24  C   UNL     1      25.812  43.609  51.896  1.00  0.00     0.161 C 
BRANCH  24  25
HETATM   25  C   UNL     1      26.610  44.339  52.979  1.00  0.00    -0.038 A 
HETATM   26  C   UNL     1      27.864  43.768  53.415  1.00  0.00     0.048 A 
HETATM   27  C   UNL     1      28.395  44.528  54.423  1.00  0.00     0.105 A 
HETATM   28  C   UNL     1      27.559  46.012  54.989  1.00  0.00     0.105 A 
HETATM   29  O   UNL     1      29.991  44.310  55.634  1.00  0.00    -0.323 OA
HETATM   30  O   UNL     1      28.397  46.758  56.386  1.00  0.00    -0.323 OA
HETATM   31  C   UNL     1      26.400  46.494  54.502  1.00  0.00     0.040 A 
HETATM   32  C   UNL     1      29.945  45.790  56.892  1.00  0.00     0.352 A 
HETATM   33  C   UNL     1      25.956  45.619  53.486  1.00  0.00     0.012 A 
ENDBRANCH  24  25
ENDBRANCH  21  24
ENDBRANCH  17  20
ENDBRANCH  13  14
ENDBRANCH   4  13
BRANCH   1  34
HETATM   34  C   UNL     1      17.308  48.404  46.751  1.00  0.00     0.237 C 
BRANCH  34  35
HETATM   35  C   UNL     1      16.805  49.171  45.505  1.00  0.00     0.240 C 
HETATM   36  N   UNL     1      17.449  50.370  45.248  1.00  0.00    -0.326 N 
HETATM   37  H   UNL     1      17.988  50.783  45.997  1.00  0.00     0.169 HD
HETATM   38  O   UNL     1      16.043  48.592  44.731  1.00  0.00    -0.271 OA
BRANCH  36  39
HETATM   39  C   UNL     1      17.520  51.035  43.989  1.00  0.00     0.035 A 
HETATM   40  C   UNL     1      18.810  50.701  42.885  1.00  0.00     0.036 A 
HETATM   41  C   UNL     1      19.128  51.555  41.450  1.00  0.00    -0.060 A 
HETATM   42  C   UNL     1      20.320  51.253  40.611  1.00  0.00     0.048 C 
HETATM   43  C   UNL     1      18.081  52.879  41.063  1.00  0.00     0.007 A 
HETATM   44  C   UNL     1      16.520  53.276  42.352  1.00  0.00     0.003 A 
HETATM   45  C   UNL     1      16.360  52.262  43.761  1.00  0.00     0.029 A 
ENDBRANCH  36  39
ENDBRANCH  34  35
ENDBRANCH   1  34
TORSDOF 8
ENDMDL
MODEL 7
REMARK VINA RESULT:      -9.5      4.892     11.997
REMARK  8 active torsions:
REMARK  status: ('A' for Active; 'I' for Inactive)
REMARK    1  A    between atoms: C_4  and  N_5 
REMARK       I    between atoms: N_5  and  C_6 
REMARK    2  A    between atoms: C_6  and  C_7 
REMARK    3  A    between atoms: C_7  and  N_8 
REMARK    4  A    between atoms: N_11  and  C_12 
REMARK    5  A    between atoms: C_12  and  C_13 
REMARK    6  A    between atoms: C_16  and  C_17 
REMARK       I    between atoms: C_17  and  N_18 
REMARK    7  A    between atoms: N_18  and  C_19 
REMARK    8  A    between atoms: C_19  and  C_20 
ROOT
HETATM    1  N   UNL     1      22.153  48.228  49.105  1.00  0.00    -0.290 N 
HETATM    2  C   UNL     1      21.475  49.374  49.534  1.00  0.00     0.332 C 
HETATM    3  O   UNL     1      22.063  50.452  49.624  1.00  0.00    -0.246 OA
HETATM    4  N   UNL     1      20.130  49.222  49.855  1.00  0.00    -0.261 N 
HETATM    5  C   UNL     1      19.360  48.141  49.461  1.00  0.00     0.264 C 
HETATM    6  O   UNL     1      18.169  48.006  49.728  1.00  0.00    -0.267 OA
HETATM    7  C   UNL     1      20.024  47.137  48.620  1.00  0.00     0.059 A 
HETATM    8  C   UNL     1      21.410  47.184  48.462  1.00  0.00     0.055 A 
HETATM    9  C   UNL     1      19.235  46.189  47.946  1.00  0.00     0.019 A 
HETATM   10  C   UNL     1      19.830  45.274  47.087  1.00  0.00     0.001 A 
HETATM   11  C   UNL     1      21.209  45.296  46.919  1.00  0.00     0.002 A 
HETATM   12  C   UNL     1      21.993  46.235  47.606  1.00  0.00     0.031 A 
ENDROOT
BRANCH   4  13
HETATM   13  C   UNL     1      19.422  50.364  50.430  1.00  0.00     0.175 C 
BRANCH  13  14
HETATM   14  C   UNL     1      18.594  51.116  49.413  1.00  0.00    -0.040 A 
HETATM   15  C   UNL     1      17.194  51.102  49.522  1.00  0.00     0.010 A 
HETATM   16  C   UNL     1      16.406  51.615  48.499  1.00  0.00     0.017 A 
HETATM   17  C   UNL     1      17.014  52.148  47.359  1.00  0.00     0.032 A 
HETATM   18  C   UNL     1      18.405  52.260  47.285  1.00  0.00     0.017 A 
HETATM   19  C   UNL     1      19.196  51.743  48.312  1.00  0.00     0.010 A 
BRANCH  17  20
HETATM   20  C   UNL     1      16.198  52.486  46.167  1.00  0.00     0.251 C 
HETATM   21  N   UNL     1      16.934  52.972  45.106  1.00  0.00    -0.353 N 
HETATM   22  H   UNL     1      17.907  53.190  45.268  1.00  0.00     0.163 HD
HETATM   23  O   UNL     1      14.977  52.406  46.199  1.00  0.00    -0.268 OA
BRANCH  21  24
HETATM   24  C   UNL     1      16.304  53.663  44.007  1.00  0.00     0.161 C 
BRANCH  24  25
HETATM   25  C   UNL     1      16.903  53.263  42.657  1.00  0.00    -0.038 A 
HETATM   26  C   UNL     1      16.444  53.944  41.469  1.00  0.00     0.048 A 
HETATM   27  C   UNL     1      17.048  53.409  40.362  1.00  0.00     0.105 A 
HETATM   28  C   UNL     1      18.245  52.081  40.525  1.00  0.00     0.105 A 
HETATM   29  O   UNL     1      16.819  53.693  38.380  1.00  0.00    -0.323 OA
HETATM   30  O   UNL     1      18.800  51.485  38.929  1.00  0.00    -0.323 OA
HETATM   31  C   UNL     1      18.643  51.520  41.682  1.00  0.00     0.040 A 
HETATM   32  C   UNL     1      17.985  52.416  37.494  1.00  0.00     0.352 A 
HETATM   33  C   UNL     1      17.942  52.149  42.735  1.00  0.00     0.012 A 
ENDBRANCH  24  25
ENDBRANCH  21  24
ENDBRANCH  17  20
ENDBRANCH  13  14
ENDBRANCH   4  13
BRANCH   1  34
HETATM   34  C   UNL     1      23.576  48.419  48.800  1.00  0.00     0.237 C 
BRANCH  34  35
HETATM   35  C   UNL     1      24.644  48.115  49.876  1.00  0.00     0.240 C 
HETATM   36  N   UNL     1      24.261  47.211  50.852  1.00  0.00    -0.326 N 
HETATM   37  H   UNL     1      23.272  47.023  50.956  1.00  0.00     0.169 HD
HETATM   38  O   UNL     1      25.794  48.514  49.687  1.00  0.00    -0.271 OA
BRANCH  36  39
HETATM   39  C   UNL     1      25.132  46.427  51.664  1.00  0.00     0.035 A 
HETATM   40  C   UNL     1      25.831  47.088  53.102  1.00  0.00     0.036 A 
HETATM   41  C   UNL     1      27.031  46.345  54.050  1.00  0.00    -0.060 A 
HETATM   42  C   UNL     1      27.640  47.035  55.220  1.00  0.00     0.048 C 
HETATM   43  C   UNL     1      27.612  44.799  53.528  1.00  0.00     0.007 A 
HETATM   44  C   UNL     1      26.770  43.980  51.832  1.00  0.00     0.003 A 
HETATM   45  C   UNL     1      25.536  44.904  51.019  1.00  0.00     0.029 A 
ENDBRANCH  36  39
ENDBRANCH  34  35
ENDBRANCH   1  34
TORSDOF 8
ENDMDL
MODEL 8
REMARK VINA RESULT:      -9.4      4.359      8.759
REMARK  8 active torsions:
REMARK  status: ('A' for Active; 'I' for Inactive)
REMARK    1  A    between atoms: C_4  and  N_5 
REMARK       I    between atoms: N_5  and  C_6 
REMARK    2  A    between atoms: C_6  and  C_7 
REMARK    3  A    between atoms: C_7  and  N_8 
REMARK    4  A    between atoms: N_11  and  C_12 
REMARK    5  A    between atoms: C_12  and  C_13 
REMARK    6  A    between atoms: C_16  and  C_17 
REMARK       I    between atoms: C_17  and  N_18 
REMARK    7  A    between atoms: N_18  and  C_19 
REMARK    8  A    between atoms: C_19  and  C_20 
ROOT
HETATM    1  N   UNL     1      16.307  51.555  46.735  1.00  0.00    -0.290 N 
HETATM    2  C   UNL     1      17.091  51.445  47.889  1.00  0.00     0.332 C 
HETATM    3  O   UNL     1      17.395  52.447  48.536  1.00  0.00    -0.246 OA
HETATM    4  N   UNL     1      17.505  50.166  48.244  1.00  0.00    -0.261 N 
HETATM    5  C   UNL     1      16.929  49.006  47.758  1.00  0.00     0.264 C 
HETATM    6  O   UNL     1      17.279  47.872  48.077  1.00  0.00    -0.267 OA
HETATM    7  C   UNL     1      15.788  49.174  46.849  1.00  0.00     0.059 A 
HETATM    8  C   UNL     1      15.498  50.440  46.339  1.00  0.00     0.055 A 
HETATM    9  C   UNL     1      14.979  48.060  46.563  1.00  0.00     0.019 A 
HETATM   10  C   UNL     1      13.852  48.205  45.764  1.00  0.00     0.001 A 
HETATM   11  C   UNL     1      13.547  49.455  45.240  1.00  0.00     0.002 A 
HETATM   12  C   UNL     1      14.367  50.560  45.516  1.00  0.00     0.031 A 
ENDROOT
BRANCH   4  13
HETATM   13  C   UNL     1      18.432  50.025  49.366  1.00  0.00     0.175 C 
BRANCH  13  14
HETATM   14  C   UNL     1      19.872  49.897  48.926  1.00  0.00    -0.040 A 
HETATM   15  C   UNL     1      20.443  48.620  48.808  1.00  0.00     0.010 A 
HETATM   16  C   UNL     1      21.809  48.479  48.598  1.00  0.00     0.017 A 
HETATM   17  C   UNL     1      22.615  49.617  48.501  1.00  0.00     0.032 A 
HETATM   18  C   UNL     1      22.043  50.893  48.514  1.00  0.00     0.017 A 
HETATM   19  C   UNL     1      20.671  51.033  48.727  1.00  0.00     0.010 A 
BRANCH  17  20
HETATM   20  C   UNL     1      24.092  49.488  48.507  1.00  0.00     0.251 C 
HETATM   21  N   UNL     1      24.549  48.323  49.089  1.00  0.00    -0.353 N 
HETATM   22  H   UNL     1      23.879  47.746  49.577  1.00  0.00     0.163 HD
HETATM   23  O   UNL     1      24.803  50.397  48.098  1.00  0.00    -0.268 OA
BRANCH  21  24
HETATM   24  C   UNL     1      25.927  48.173  49.491  1.00  0.00     0.161 C 
BRANCH  24  25
HETATM   25  C   UNL     1      26.125  46.983  50.432  1.00  0.00    -0.038 A 
HETATM   26  C   UNL     1      25.599  47.068  51.774  1.00  0.00     0.048 A 
HETATM   27  C   UNL     1      25.926  45.937  52.475  1.00  0.00     0.105 A 
HETATM   28  C   UNL     1      26.848  44.610  51.693  1.00  0.00     0.105 A 
HETATM   29  O   UNL     1      25.707  45.384  54.401  1.00  0.00    -0.323 OA
HETATM   30  O   UNL     1      27.245  43.301  52.852  1.00  0.00    -0.323 OA
HETATM   31  C   UNL     1      27.276  44.598  50.417  1.00  0.00     0.040 A 
HETATM   32  C   UNL     1      26.582  43.659  54.591  1.00  0.00     0.352 A 
HETATM   33  C   UNL     1      26.888  45.815  49.815  1.00  0.00     0.012 A 
ENDBRANCH  24  25
ENDBRANCH  21  24
ENDBRANCH  17  20
ENDBRANCH  13  14
ENDBRANCH   4  13
BRANCH   1  34
HETATM   34  C   UNL     1      15.910  52.922  46.376  1.00  0.00     0.237 C 
BRANCH  34  35
HETATM   35  C   UNL     1      14.715  53.592  47.093  1.00  0.00     0.240 C 
HETATM   36  N   UNL     1      14.878  53.795  48.453  1.00  0.00    -0.326 N 
HETATM   37  H   UNL     1      15.610  53.277  48.920  1.00  0.00     0.169 HD
HETATM   38  O   UNL     1      13.817  54.078  46.404  1.00  0.00    -0.271 OA
BRANCH  36  39
HETATM   39  C   UNL     1      14.183  54.750  49.253  1.00  0.00     0.035 A 
HETATM   40  C   UNL     1      15.013  56.117  49.915  1.00  0.00     0.036 A 
HETATM   41  C   UNL     1      14.366  57.217  51.037  1.00  0.00    -0.060 A 
HETATM   42  C   UNL     1      15.189  58.310  51.623  1.00  0.00     0.048 C 
HETATM   43  C   UNL     1      12.742  56.942  51.574  1.00  0.00     0.007 A 
HETATM   44  C   UNL     1      11.726  55.334  50.775  1.00  0.00     0.003 A 
HETATM   45  C   UNL     1      12.571  54.341  49.619  1.00  0.00     0.029 A 
ENDBRANCH  36  39
ENDBRANCH  34  35
ENDBRANCH   1  34
TORSDOF 8
ENDMDL
MODEL 9
REMARK VINA RESULT:      -9.4      2.404      4.114
REMARK  8 active torsions:
REMARK  status: ('A' for Active; 'I' for Inactive)
REMARK    1  A    between atoms: C_4  and  N_5 
REMARK       I    between atoms: N_5  and  C_6 
REMARK    2  A    between atoms: C_6  and  C_7 
REMARK    3  A    between atoms: C_7  and  N_8 
REMARK    4  A    between atoms: N_11  and  C_12 
REMARK    5  A    between atoms: C_12  and  C_13 
REMARK    6  A    between atoms: C_16  and  C_17 
REMARK       I    between atoms: C_17  and  N_18 
REMARK    7  A    between atoms: N_18  and  C_19 
REMARK    8  A    between atoms: C_19  and  C_20 
ROOT
HETATM    1  N   UNL     1      19.709  48.019  48.843  1.00  0.00    -0.290 N 
HETATM    2  C   UNL     1      20.993  47.860  48.308  1.00  0.00     0.332 C 
HETATM    3  O   UNL     1      21.212  47.001  47.455  1.00  0.00    -0.246 OA
HETATM    4  N   UNL     1      21.982  48.707  48.797  1.00  0.00    -0.261 N 
HETATM    5  C   UNL     1      21.725  49.878  49.487  1.00  0.00     0.264 C 
HETATM    6  O   UNL     1      22.593  50.638  49.909  1.00  0.00    -0.267 OA
HETATM    7  C   UNL     1      20.312  50.239  49.657  1.00  0.00     0.059 A 
HETATM    8  C   UNL     1      19.323  49.304  49.346  1.00  0.00     0.055 A 
HETATM    9  C   UNL     1      19.991  51.542  50.074  1.00  0.00     0.019 A 
HETATM   10  C   UNL     1      18.661  51.933  50.174  1.00  0.00     0.001 A 
HETATM   11  C   UNL     1      17.660  51.017  49.877  1.00  0.00     0.002 A 
HETATM   12  C   UNL     1      17.986  49.713  49.476  1.00  0.00     0.031 A 
ENDROOT
BRANCH   4  13
HETATM   13  C   UNL     1      23.360  48.485  48.359  1.00  0.00     0.175 C 
BRANCH  13  14
HETATM   14  C   UNL     1      24.052  47.386  49.132  1.00  0.00    -0.040 A 
HETATM   15  C   UNL     1      25.256  47.667  49.797  1.00  0.00     0.010 A 
HETATM   16  C   UNL     1      26.010  46.639  50.348  1.00  0.00     0.017 A 
HETATM   17  C   UNL     1      25.564  45.319  50.239  1.00  0.00     0.032 A 
HETATM   18  C   UNL     1      24.318  45.037  49.670  1.00  0.00     0.017 A 
HETATM   19  C   UNL     1      23.562  46.071  49.116  1.00  0.00     0.010 A 
BRANCH  17  20
HETATM   20  C   UNL     1      26.457  44.195  50.612  1.00  0.00     0.251 C 
HETATM   21  N   UNL     1      26.286  43.752  51.908  1.00  0.00    -0.353 N 
HETATM   22  H   UNL     1      25.698  44.301  52.520  1.00  0.00     0.163 HD
HETATM   23  O   UNL     1      27.311  43.787  49.836  1.00  0.00    -0.268 OA
BRANCH  21  24
HETATM   24  C   UNL     1      27.270  42.919  52.555  1.00  0.00     0.161 C 
BRANCH  24  25
HETATM   25  C   UNL     1      28.001  43.659  53.677  1.00  0.00    -0.038 A 
HETATM   26  C   UNL     1      29.162  43.037  54.272  1.00  0.00     0.048 A 
HETATM   27  C   UNL     1      29.638  43.820  55.291  1.00  0.00     0.105 A 
HETATM   28  C   UNL     1      28.851  45.383  55.689  1.00  0.00     0.105 A 
HETATM   29  O   UNL     1      31.083  43.572  56.673  1.00  0.00    -0.323 OA
HETATM   30  O   UNL     1      29.591  46.155  57.127  1.00  0.00    -0.323 OA
HETATM   31  C   UNL     1      27.784  45.908  55.058  1.00  0.00     0.040 A 
HETATM   32  C   UNL     1      31.010  45.123  57.843  1.00  0.00     0.352 A 
HETATM   33  C   UNL     1      27.388  45.005  54.047  1.00  0.00     0.012 A 
ENDBRANCH  24  25
ENDBRANCH  21  24
ENDBRANCH  17  20
ENDBRANCH  13  14
ENDBRANCH   4  13
BRANCH   1  34
HETATM   34  C   UNL     1      18.696  47.093  48.324  1.00  0.00     0.237 C 
BRANCH  34  35
HETATM   35  C   UNL     1      18.034  47.363  46.952  1.00  0.00     0.240 C 
HETATM   36  N   UNL     1      18.712  48.248  46.131  1.00  0.00    -0.326 N 
HETATM   37  H   UNL     1      19.411  48.842  46.558  1.00  0.00     0.169 HD
HETATM   38  O   UNL     1      17.098  46.642  46.603  1.00  0.00    -0.271 OA
BRANCH  36  39
HETATM   39  C   UNL     1      18.601  48.337  44.713  1.00  0.00     0.035 A 
HETATM   40  C   UNL     1      19.063  47.007  43.706  1.00  0.00     0.036 A 
HETATM   41  C   UNL     1      19.172  47.042  42.010  1.00  0.00    -0.060 A 
HETATM   42  C   UNL     1      19.671  45.873  41.236  1.00  0.00     0.048 C 
HETATM   43  C   UNL     1      18.798  48.538  41.220  1.00  0.00     0.007 A 
HETATM   44  C   UNL     1      18.217  50.127  42.400  1.00  0.00     0.003 A 
HETATM   45  C   UNL     1      18.152  49.870  44.123  1.00  0.00     0.029 A 
ENDBRANCH  36  39
ENDBRANCH  34  35
ENDBRANCH   1  34
TORSDOF 8
ENDMDL
MODEL 10
REMARK VINA RESULT:      -9.4      5.758     10.377
REMARK  8 active torsions:
REMARK  status: ('A' for Active; 'I' for Inactive)
REMARK    1  A    between atoms: C_4  and  N_5 
REMARK       I    between atoms: N_5  and  C_6 
REMARK    2  A    between atoms: C_6  and  C_7 
REMARK    3  A    between atoms: C_7  and  N_8 
REMARK    4  A    between atoms: N_11  and  C_12 
REMARK    5  A    between atoms: C_12  and  C_13 
REMARK    6  A    between atoms: C_16  and  C_17 
REMARK       I    between atoms: C_17  and  N_18 
REMARK    7  A    between atoms: N_18  and  C_19 
REMARK    8  A    between atoms: C_19  and  C_20 
ROOT
HETATM    1  N   UNL     1      19.456  49.282  47.037  1.00  0.00    -0.290 N 
HETATM    2  C   UNL     1      18.689  48.979  45.907  1.00  0.00     0.332 C 
HETATM    3  O   UNL     1      18.624  47.823  45.487  1.00  0.00    -0.246 OA
HETATM    4  N   UNL     1      18.029  50.040  45.296  1.00  0.00    -0.261 N 
HETATM    5  C   UNL     1      17.803  51.261  45.905  1.00  0.00     0.264 C 
HETATM    6  O   UNL     1      17.209  52.198  45.377  1.00  0.00    -0.267 OA
HETATM    7  C   UNL     1      18.262  51.395  47.293  1.00  0.00     0.059 A 
HETATM    8  C   UNL     1      19.091  50.413  47.838  1.00  0.00     0.055 A 
HETATM    9  C   UNL     1      17.803  52.481  48.057  1.00  0.00     0.019 A 
HETATM   10  C   UNL     1      18.163  52.593  49.395  1.00  0.00     0.001 A 
HETATM   11  C   UNL     1      18.993  51.632  49.957  1.00  0.00     0.002 A 
HETATM   12  C   UNL     1      19.461  50.558  49.185  1.00  0.00     0.031 A 
ENDROOT
BRANCH   4  13
HETATM   13  C   UNL     1      17.326  49.786  44.039  1.00  0.00     0.175 C 
BRANCH  13  14
HETATM   14  C   UNL     1      18.168  50.092  42.822  1.00  0.00    -0.040 A 
HETATM   15  C   UNL     1      18.892  49.057  42.209  1.00  0.00     0.010 A 
HETATM   16  C   UNL     1      19.821  49.342  41.217  1.00  0.00     0.017 A 
HETATM   17  C   UNL     1      20.032  50.668  40.828  1.00  0.00     0.032 A 
HETATM   18  C   UNL     1      19.244  51.695  41.357  1.00  0.00     0.017 A 
HETATM   19  C   UNL     1      18.313  51.407  42.355  1.00  0.00     0.010 A 
BRANCH  17  20
HETATM   20  C   UNL     1      21.171  51.014  39.944  1.00  0.00     0.251 C 
HETATM   21  N   UNL     1      21.458  50.050  38.999  1.00  0.00    -0.353 N 
HETATM   22  H   UNL     1      20.988  49.159  39.076  1.00  0.00     0.163 HD
HETATM   23  O   UNL     1      21.821  52.035  40.127  1.00  0.00    -0.268 OA
BRANCH  21  24
HETATM   24  C   UNL     1      22.713  50.044  38.288  1.00  0.00     0.161 C 
BRANCH  24  25
HETATM   25  C   UNL     1      23.799  49.275  39.043  1.00  0.00    -0.038 A 
HETATM   26  C   UNL     1      25.179  49.653  38.844  1.00  0.00     0.048 A 
HETATM   27  C   UNL     1      25.998  48.816  39.555  1.00  0.00     0.105 A 
HETATM   28  C   UNL     1      25.310  47.507  40.571  1.00  0.00     0.105 A 
HETATM   29  O   UNL     1      27.998  48.593  39.664  1.00  0.00    -0.323 OA
HETATM   30  O   UNL     1      26.589  46.487  41.303  1.00  0.00    -0.323 OA
HETATM   31  C   UNL     1      23.999  47.241  40.728  1.00  0.00     0.040 A 
HETATM   32  C   UNL     1      28.328  47.064  40.817  1.00  0.00     0.352 A 
HETATM   33  C   UNL     1      23.271  48.159  39.939  1.00  0.00     0.012 A 
ENDBRANCH  24  25
ENDBRANCH  21  24
ENDBRANCH  17  20
ENDBRANCH  13  14
ENDBRANCH   4  13
BRANCH   1  34
HETATM   34  C   UNL     1      20.159  48.143  47.641  1.00  0.00     0.237 C 
BRANCH  34  35
HETATM   35  C   UNL     1      21.687  47.995  47.458  1.00  0.00     0.240 C 
HETATM   36  N   UNL     1      22.461  48.899  48.166  1.00  0.00    -0.326 N 
HETATM   37  H   UNL     1      22.004  49.727  48.524  1.00  0.00     0.169 HD
HETATM   38  O   UNL     1      22.112  46.989  46.886  1.00  0.00    -0.271 OA
BRANCH  36  39
HETATM   39  C   UNL     1      23.825  48.729  48.541  1.00  0.00     0.035 A 
HETATM   40  C   UNL     1      24.279  47.533  49.706  1.00  0.00     0.036 A 
HETATM   41  C   UNL     1      25.826  47.355  50.388  1.00  0.00    -0.060 A 
HETATM   42  C   UNL     1      26.097  46.353  51.456  1.00  0.00     0.048 C 
HETATM   43  C   UNL     1      27.051  48.471  49.885  1.00  0.00     0.007 A 
HETATM   44  C   UNL     1      26.537  49.888  48.475  1.00  0.00     0.003 A 
HETATM   45  C   UNL     1      24.896  49.883  47.889  1.00  0.00     0.029 A 
ENDBRANCH  36  39
ENDBRANCH  34  35
ENDBRANCH   1  34
TORSDOF 8
ENDMDL
