MODEL 1
REMARK VINA RESULT:      -8.6      0.000      0.000
REMARK  9 active torsions:
REMARK  status: ('A' for Active; 'I' for Inactive)
REMARK       I    between atoms: C_2  and  N_3 
REMARK    1  A    between atoms: N_3  and  C_4 
REMARK    2  A    between atoms: C_6  and  O_7 
REMARK    3  A    between atoms: O_7  and  C_8 
REMARK    4  A    between atoms: C_8  and  C_9 
REMARK    5  A    between atoms: C_9  and  C_10 
REMARK    6  A    between atoms: C_10  and  C_11 
REMARK    7  A    between atoms: C_11  and  N_12 
REMARK       I    between atoms: N_12  and  C_13 
REMARK    8  A    between atoms: C_13  and  C_14 
REMARK    9  A    between atoms: C_18  and  C_19 
ROOT
HETATM    1  N   UNL     1      24.365  44.238  49.428  1.00  0.00    -0.345 N 
HETATM    2  C   UNL     1      24.299  43.751  50.707  1.00  0.00     0.270 C 
HETATM    3  O   UNL     1      23.431  42.966  51.073  1.00  0.00    -0.266 OA
HETATM    4  H   UNL     1      25.030  44.960  49.198  1.00  0.00     0.163 HD
ENDROOT
BRANCH   1   5
HETATM    5  C   UNL     1      23.390  43.883  48.430  1.00  0.00     0.217 C 
BRANCH   5   6
HETATM    6  C   UNL     1      22.315  44.957  48.417  1.00  0.00    -0.085 C 
BRANCH   6   7
HETATM    7  C   UNL     1      21.393  45.879  48.405  1.00  0.00    -0.078 C 
BRANCH   7   8
HETATM    8  C   UNL     1      20.386  46.949  48.361  1.00  0.00     0.269 C 
BRANCH   8   9
HETATM    9  O   UNL     1      20.803  47.948  47.431  1.00  0.00    -0.339 OA
BRANCH   9  10
HETATM   10  C   UNL     1      21.697  48.880  47.888  1.00  0.00     0.072 A 
HETATM   11  C   UNL     1      23.090  48.745  47.902  1.00  0.00     0.066 A 
HETATM   12  C   UNL     1      23.902  49.774  48.392  1.00  0.00     0.037 A 
HETATM   13  C   UNL     1      23.302  50.942  48.876  1.00  0.00     0.029 A 
HETATM   14  C   UNL     1      21.914  51.083  48.867  1.00  0.00     0.005 A 
HETATM   15  C   UNL     1      21.117  50.052  48.374  1.00  0.00     0.037 A 
BRANCH  12  16
HETATM   16  N   UNL     1      25.312  49.711  48.434  1.00  0.00    -0.327 N 
HETATM   17  C   UNL     1      26.099  48.942  49.274  1.00  0.00     0.218 C 
HETATM   18  C   UNL     1      27.574  49.135  49.023  1.00  0.00     0.117 C 
HETATM   19  O   UNL     1      25.711  48.151  50.128  1.00  0.00    -0.274 OA
HETATM   20  H   UNL     1      25.798  50.289  47.760  1.00  0.00     0.169 HD
ENDBRANCH  12  16
ENDBRANCH   9  10
ENDBRANCH   8   9
ENDBRANCH   7   8
ENDBRANCH   6   7
ENDBRANCH   5   6
ENDBRANCH   1   5
BRANCH   2  21
HETATM   21  C   UNL     1      25.323  44.232  51.594  1.00  0.00     0.120 A 
HETATM   22  N   UNL     1      25.535  45.567  51.791  1.00  0.00    -0.272 N 
HETATM   23  H   UNL     1      25.022  46.333  51.364  1.00  0.00     0.189 HD
HETATM   24  N   UNL     1      26.533  45.848  52.641  1.00  0.00    -0.174 NA
HETATM   25  C   UNL     1      26.994  44.651  53.036  1.00  0.00     0.089 A 
HETATM   26  C   UNL     1      26.258  43.611  52.400  1.00  0.00     0.071 A 
BRANCH  25  27
HETATM   27  C   UNL     1      28.108  44.527  53.985  1.00  0.00    -0.003 A 
HETATM   28  C   UNL     1      28.196  45.395  55.087  1.00  0.00     0.053 A 
HETATM   29  C   UNL     1      29.264  45.259  55.949  1.00  0.00     0.106 A 
HETATM   30  C   UNL     1      30.232  44.301  55.759  1.00  0.00     0.105 A 
HETATM   31  O   UNL     1      29.499  46.020  57.053  1.00  0.00    -0.323 OA
HETATM   32  O   UNL     1      31.195  44.338  56.718  1.00  0.00    -0.323 OA
HETATM   33  C   UNL     1      30.183  43.425  54.699  1.00  0.00     0.040 A 
HETATM   34  C   UNL     1      30.724  45.430  57.534  1.00  0.00     0.352 A 
HETATM   35  C   UNL     1      29.109  43.542  53.806  1.00  0.00     0.017 A 
ENDBRANCH  25  27
ENDBRANCH   2  21
TORSDOF 9
ENDMDL
MODEL 2
REMARK VINA RESULT:      -8.6      3.403     11.459
REMARK  9 active torsions:
REMARK  status: ('A' for Active; 'I' for Inactive)
REMARK       I    between atoms: C_2  and  N_3 
REMARK    1  A    between atoms: N_3  and  C_4 
REMARK    2  A    between atoms: C_6  and  O_7 
REMARK    3  A    between atoms: O_7  and  C_8 
REMARK    4  A    between atoms: C_8  and  C_9 
REMARK    5  A    between atoms: C_9  and  C_10 
REMARK    6  A    between atoms: C_10  and  C_11 
REMARK    7  A    between atoms: C_11  and  N_12 
REMARK       I    between atoms: N_12  and  C_13 
REMARK    8  A    between atoms: C_13  and  C_14 
REMARK    9  A    between atoms: C_18  and  C_19 
ROOT
HETATM    1  N   UNL     1      24.264  48.205  49.629  1.00  0.00    -0.345 N 
HETATM    2  C   UNL     1      23.822  49.325  48.974  1.00  0.00     0.270 C 
HETATM    3  O   UNL     1      24.579  50.097  48.397  1.00  0.00    -0.266 OA
HETATM    4  H   UNL     1      23.620  47.657  50.178  1.00  0.00     0.163 HD
ENDROOT
BRANCH   1   5
HETATM    5  C   UNL     1      25.663  47.880  49.712  1.00  0.00     0.217 C 
BRANCH   5   6
HETATM    6  C   UNL     1      25.922  47.250  51.071  1.00  0.00    -0.085 C 
BRANCH   6   7
HETATM    7  C   UNL     1      26.144  46.710  52.237  1.00  0.00    -0.078 C 
BRANCH   7   8
HETATM    8  C   UNL     1      26.386  46.149  53.574  1.00  0.00     0.269 C 
BRANCH   8   9
HETATM    9  O   UNL     1      26.355  44.724  53.499  1.00  0.00    -0.339 OA
BRANCH   9  10
HETATM   10  C   UNL     1      27.563  44.081  53.491  1.00  0.00     0.072 A 
HETATM   11  C   UNL     1      28.425  43.937  54.584  1.00  0.00     0.066 A 
HETATM   12  C   UNL     1      29.637  43.251  54.453  1.00  0.00     0.037 A 
HETATM   13  C   UNL     1      29.984  42.714  53.207  1.00  0.00     0.029 A 
HETATM   14  C   UNL     1      29.131  42.856  52.112  1.00  0.00     0.005 A 
HETATM   15  C   UNL     1      27.925  43.539  52.257  1.00  0.00     0.037 A 
BRANCH  12  16
HETATM   16  N   UNL     1      30.554  43.063  55.511  1.00  0.00    -0.327 N 
HETATM   17  C   UNL     1      31.107  44.030  56.331  1.00  0.00     0.218 C 
HETATM   18  C   UNL     1      32.047  43.449  57.359  1.00  0.00     0.117 C 
HETATM   19  O   UNL     1      30.883  45.236  56.304  1.00  0.00    -0.274 OA
HETATM   20  H   UNL     1      30.824  42.105  55.692  1.00  0.00     0.169 HD
ENDBRANCH  12  16
ENDBRANCH   9  10
ENDBRANCH   8   9
ENDBRANCH   7   8
ENDBRANCH   6   7
ENDBRANCH   5   6
ENDBRANCH   1   5
BRANCH   2  21
HETATM   21  C   UNL     1      22.399  49.531  49.015  1.00  0.00     0.120 A 
HETATM   22  N   UNL     1      21.538  48.531  49.368  1.00  0.00    -0.272 N 
HETATM   23  H   UNL     1      21.784  47.582  49.631  1.00  0.00     0.189 HD
HETATM   24  N   UNL     1      20.244  48.884  49.347  1.00  0.00    -0.174 NA
HETATM   25  C   UNL     1      20.247  50.175  48.981  1.00  0.00     0.089 A 
HETATM   26  C   UNL     1      21.583  50.617  48.763  1.00  0.00     0.071 A 
BRANCH  25  27
HETATM   27  C   UNL     1      19.002  50.941  48.839  1.00  0.00    -0.003 A 
HETATM   28  C   UNL     1      18.252  50.855  47.653  1.00  0.00     0.053 A 
HETATM   29  C   UNL     1      17.095  51.599  47.551  1.00  0.00     0.106 A 
HETATM   30  C   UNL     1      16.662  52.412  48.571  1.00  0.00     0.105 A 
HETATM   31  O   UNL     1      16.263  51.633  46.474  1.00  0.00    -0.323 OA
HETATM   32  O   UNL     1      15.506  53.059  48.266  1.00  0.00    -0.323 OA
HETATM   33  C   UNL     1      17.361  52.523  49.752  1.00  0.00     0.040 A 
HETATM   34  C   UNL     1      15.260  52.560  46.935  1.00  0.00     0.352 A 
HETATM   35  C   UNL     1      18.541  51.779  49.884  1.00  0.00     0.017 A 
ENDBRANCH  25  27
ENDBRANCH   2  21
TORSDOF 9
ENDMDL
MODEL 3
REMARK VINA RESULT:      -8.5      2.330      3.397
REMARK  9 active torsions:
REMARK  status: ('A' for Active; 'I' for Inactive)
REMARK       I    between atoms: C_2  and  N_3 
REMARK    1  A    between atoms: N_3  and  C_4 
REMARK    2  A    between atoms: C_6  and  O_7 
REMARK    3  A    between atoms: O_7  and  C_8 
REMARK    4  A    between atoms: C_8  and  C_9 
REMARK    5  A    between atoms: C_9  and  C_10 
REMARK    6  A    between atoms: C_10  and  C_11 
REMARK    7  A    between atoms: C_11  and  N_12 
REMARK       I    between atoms: N_12  and  C_13 
REMARK    8  A    between atoms: C_13  and  C_14 
REMARK    9  A    between atoms: C_18  and  C_19 
ROOT
HETATM    1  N   UNL     1      25.467  42.208  50.227  1.00  0.00    -0.345 N 
HETATM    2  C   UNL     1      26.793  42.421  49.958  1.00  0.00     0.270 C 
HETATM    3  O   UNL     1      27.228  42.533  48.817  1.00  0.00    -0.266 OA
HETATM    4  H   UNL     1      25.170  42.018  51.172  1.00  0.00     0.163 HD
ENDROOT
BRANCH   1   5
HETATM    5  C   UNL     1      24.494  42.064  49.176  1.00  0.00     0.217 C 
BRANCH   5   6
HETATM    6  C   UNL     1      23.826  43.413  48.963  1.00  0.00    -0.085 C 
BRANCH   6   7
HETATM    7  C   UNL     1      23.253  44.570  48.780  1.00  0.00    -0.078 C 
BRANCH   7   8
HETATM    8  C   UNL     1      22.656  45.895  48.560  1.00  0.00     0.269 C 
BRANCH   8   9
HETATM    9  O   UNL     1      23.320  46.852  49.386  1.00  0.00    -0.339 OA
BRANCH   9  10
HETATM   10  C   UNL     1      23.252  48.161  48.990  1.00  0.00     0.072 A 
HETATM   11  C   UNL     1      22.080  48.890  48.760  1.00  0.00     0.066 A 
HETATM   12  C   UNL     1      22.139  50.229  48.360  1.00  0.00     0.037 A 
HETATM   13  C   UNL     1      23.390  50.833  48.186  1.00  0.00     0.029 A 
HETATM   14  C   UNL     1      24.563  50.111  48.411  1.00  0.00     0.005 A 
HETATM   15  C   UNL     1      24.490  48.778  48.812  1.00  0.00     0.037 A 
BRANCH  12  16
HETATM   16  N   UNL     1      21.001  51.028  48.113  1.00  0.00    -0.327 N 
HETATM   17  C   UNL     1      20.092  51.513  49.038  1.00  0.00     0.218 C 
HETATM   18  C   UNL     1      19.002  52.339  48.400  1.00  0.00     0.117 C 
HETATM   19  O   UNL     1      20.122  51.353  50.254  1.00  0.00    -0.274 OA
HETATM   20  H   UNL     1      20.844  51.283  47.146  1.00  0.00     0.169 HD
ENDBRANCH  12  16
ENDBRANCH   9  10
ENDBRANCH   8   9
ENDBRANCH   7   8
ENDBRANCH   6   7
ENDBRANCH   5   6
ENDBRANCH   1   5
BRANCH   2  21
HETATM   21  C   UNL     1      27.643  42.502  51.115  1.00  0.00     0.120 A 
HETATM   22  N   UNL     1      28.546  41.521  51.414  1.00  0.00    -0.272 N 
HETATM   23  H   UNL     1      28.718  40.672  50.885  1.00  0.00     0.189 HD
HETATM   24  N   UNL     1      29.254  41.745  52.531  1.00  0.00    -0.174 NA
HETATM   25  C   UNL     1      28.814  42.929  52.984  1.00  0.00     0.089 A 
HETATM   26  C   UNL     1      27.802  43.436  52.121  1.00  0.00     0.071 A 
BRANCH  25  27
HETATM   27  C   UNL     1      29.350  43.534  54.210  1.00  0.00    -0.003 A 
HETATM   28  C   UNL     1      28.650  44.573  54.848  1.00  0.00     0.053 A 
HETATM   29  C   UNL     1      29.191  45.127  55.990  1.00  0.00     0.106 A 
HETATM   30  C   UNL     1      30.385  44.690  56.513  1.00  0.00     0.105 A 
HETATM   31  O   UNL     1      28.646  46.138  56.719  1.00  0.00    -0.323 OA
HETATM   32  O   UNL     1      30.741  45.369  57.636  1.00  0.00    -0.323 OA
HETATM   33  C   UNL     1      31.101  43.672  55.926  1.00  0.00     0.040 A 
HETATM   34  C   UNL     1      29.634  46.286  57.760  1.00  0.00     0.352 A 
HETATM   35  C   UNL     1      30.576  43.091  54.764  1.00  0.00     0.017 A 
ENDBRANCH  25  27
ENDBRANCH   2  21
TORSDOF 9
ENDMDL
MODEL 4
REMARK VINA RESULT:      -8.4      2.194      3.532
REMARK  9 active torsions:
REMARK  status: ('A' for Active; 'I' for Inactive)
REMARK       I    between atoms: C_2  and  N_3 
REMARK    1  A    between atoms: N_3  and  C_4 
REMARK    2  A    between atoms: C_6  and  O_7 
REMARK    3  A    between atoms: O_7  and  C_8 
REMARK    4  A    between atoms: C_8  and  C_9 
REMARK    5  A    between atoms: C_9  and  C_10 
REMARK    6  A    between atoms: C_10  and  C_11 
REMARK    7  A    between atoms: C_11  and  N_12 
REMARK       I    between atoms: N_12  and  C_13 
REMARK    8  A    between atoms: C_13  and  C_14 
REMARK    9  A    between atoms: C_18  and  C_19 
ROOT
HETATM    1  N   UNL     1      24.940  43.608  50.088  1.00  0.00    -0.345 N 
HETATM    2  C   UNL     1      26.308  43.653  50.139  1.00  0.00     0.270 C 
HETATM    3  O   UNL     1      27.017  43.370  49.181  1.00  0.00    -0.266 OA
HETATM    4  H   UNL     1      24.400  43.746  50.928  1.00  0.00     0.163 HD
ENDROOT
BRANCH   1   5
HETATM    5  C   UNL     1      24.240  43.187  48.902  1.00  0.00     0.217 C 
BRANCH   5   6
HETATM    6  C   UNL     1      23.423  44.362  48.393  1.00  0.00    -0.085 C 
BRANCH   6   7
HETATM    7  C   UNL     1      22.722  45.372  47.956  1.00  0.00    -0.078 C 
BRANCH   7   8
HETATM    8  C   UNL     1      21.920  46.522  47.516  1.00  0.00     0.269 C 
BRANCH   8   9
HETATM    9  O   UNL     1      22.673  47.720  47.705  1.00  0.00    -0.339 OA
BRANCH   9  10
HETATM   10  C   UNL     1      21.960  48.864  47.942  1.00  0.00     0.072 A 
HETATM   11  C   UNL     1      20.570  49.002  47.847  1.00  0.00     0.066 A 
HETATM   12  C   UNL     1      19.953  50.228  48.119  1.00  0.00     0.037 A 
HETATM   13  C   UNL     1      20.746  51.322  48.485  1.00  0.00     0.029 A 
HETATM   14  C   UNL     1      22.133  51.193  48.579  1.00  0.00     0.005 A 
HETATM   15  C   UNL     1      22.734  49.966  48.308  1.00  0.00     0.037 A 
BRANCH  12  16
HETATM   16  N   UNL     1      18.559  50.441  48.048  1.00  0.00    -0.327 N 
HETATM   17  C   UNL     1      17.682  50.654  49.097  1.00  0.00     0.218 C 
HETATM   18  C   UNL     1      16.260  50.848  48.632  1.00  0.00     0.117 C 
HETATM   19  O   UNL     1      17.961  50.718  50.290  1.00  0.00    -0.274 OA
HETATM   20  H   UNL     1      18.164  50.450  47.116  1.00  0.00     0.169 HD
ENDBRANCH  12  16
ENDBRANCH   9  10
ENDBRANCH   8   9
ENDBRANCH   7   8
ENDBRANCH   6   7
ENDBRANCH   5   6
ENDBRANCH   1   5
BRANCH   2  21
HETATM   21  C   UNL     1      26.855  44.056  51.407  1.00  0.00     0.120 A 
HETATM   22  N   UNL     1      26.310  45.076  52.134  1.00  0.00    -0.272 N 
HETATM   23  H   UNL     1      25.500  45.635  51.883  1.00  0.00     0.189 HD
HETATM   24  N   UNL     1      26.943  45.332  53.288  1.00  0.00    -0.174 NA
HETATM   25  C   UNL     1      27.941  44.435  53.337  1.00  0.00     0.089 A 
HETATM   26  C   UNL     1      27.918  43.616  52.173  1.00  0.00     0.071 A 
BRANCH  25  27
HETATM   27  C   UNL     1      28.881  44.386  54.464  1.00  0.00    -0.003 A 
HETATM   28  C   UNL     1      28.812  45.353  55.482  1.00  0.00     0.053 A 
HETATM   29  C   UNL     1      29.720  45.284  56.518  1.00  0.00     0.106 A 
HETATM   30  C   UNL     1      30.679  44.301  56.579  1.00  0.00     0.105 A 
HETATM   31  O   UNL     1      29.792  46.142  57.572  1.00  0.00    -0.323 OA
HETATM   32  O   UNL     1      31.473  44.415  57.676  1.00  0.00    -0.323 OA
HETATM   33  C   UNL     1      30.780  43.330  55.608  1.00  0.00     0.040 A 
HETATM   34  C   UNL     1      30.905  45.585  58.301  1.00  0.00     0.352 A 
HETATM   35  C   UNL     1      29.871  43.376  54.543  1.00  0.00     0.017 A 
ENDBRANCH  25  27
ENDBRANCH   2  21
TORSDOF 9
ENDMDL
MODEL 5
REMARK VINA RESULT:      -8.4      2.951      4.617
REMARK  9 active torsions:
REMARK  status: ('A' for Active; 'I' for Inactive)
REMARK       I    between atoms: C_2  and  N_3 
REMARK    1  A    between atoms: N_3  and  C_4 
REMARK    2  A    between atoms: C_6  and  O_7 
REMARK    3  A    between atoms: O_7  and  C_8 
REMARK    4  A    between atoms: C_8  and  C_9 
REMARK    5  A    between atoms: C_9  and  C_10 
REMARK    6  A    between atoms: C_10  and  C_11 
REMARK    7  A    between atoms: C_11  and  N_12 
REMARK       I    between atoms: N_12  and  C_13 
REMARK    8  A    between atoms: C_13  and  C_14 
REMARK    9  A    between atoms: C_18  and  C_19 
ROOT
HETATM    1  N   UNL     1      24.755  45.594  50.020  1.00  0.00    -0.345 N 
HETATM    2  C   UNL     1      24.726  44.680  51.041  1.00  0.00     0.270 C 
HETATM    3  O   UNL     1      23.734  44.011  51.303  1.00  0.00    -0.266 OA
HETATM    4  H   UNL     1      25.555  46.197  49.906  1.00  0.00     0.163 HD
ENDROOT
BRANCH   1   5
HETATM    5  C   UNL     1      23.598  45.855  49.204  1.00  0.00     0.217 C 
BRANCH   5   6
HETATM    6  C   UNL     1      23.368  47.357  49.176  1.00  0.00    -0.085 C 
BRANCH   6   7
HETATM    7  C   UNL     1      23.172  48.646  49.152  1.00  0.00    -0.078 C 
BRANCH   7   8
HETATM    8  C   UNL     1      22.996  50.105  49.153  1.00  0.00     0.269 C 
BRANCH   8   9
HETATM    9  O   UNL     1      21.896  50.445  49.996  1.00  0.00    -0.339 OA
BRANCH   9  10
HETATM   10  C   UNL     1      20.771  50.923  49.379  1.00  0.00     0.072 A 
HETATM   11  C   UNL     1      19.704  51.576  50.006  1.00  0.00     0.066 A 
HETATM   12  C   UNL     1      18.606  52.025  49.264  1.00  0.00     0.037 A 
HETATM   13  C   UNL     1      18.585  51.808  47.881  1.00  0.00     0.029 A 
HETATM   14  C   UNL     1      19.645  51.155  47.249  1.00  0.00     0.005 A 
HETATM   15  C   UNL     1      20.733  50.715  48.000  1.00  0.00     0.037 A 
BRANCH  12  16
HETATM   16  N   UNL     1      17.497  52.694  49.825  1.00  0.00    -0.327 N 
HETATM   17  C   UNL     1      16.162  52.337  49.737  1.00  0.00     0.218 C 
HETATM   18  C   UNL     1      15.258  53.295  50.473  1.00  0.00     0.117 C 
HETATM   19  O   UNL     1      15.698  51.355  49.169  1.00  0.00    -0.274 OA
HETATM   20  H   UNL     1      17.710  53.523  50.364  1.00  0.00     0.169 HD
ENDBRANCH  12  16
ENDBRANCH   9  10
ENDBRANCH   8   9
ENDBRANCH   7   8
ENDBRANCH   6   7
ENDBRANCH   5   6
ENDBRANCH   1   5
BRANCH   2  21
HETATM   21  C   UNL     1      25.950  44.565  51.787  1.00  0.00     0.120 A 
HETATM   22  N   UNL     1      27.065  43.982  51.254  1.00  0.00    -0.272 N 
HETATM   23  H   UNL     1      27.158  43.588  50.323  1.00  0.00     0.189 HD
HETATM   24  N   UNL     1      28.118  43.946  52.083  1.00  0.00    -0.174 NA
HETATM   25  C   UNL     1      27.691  44.543  53.207  1.00  0.00     0.089 A 
HETATM   26  C   UNL     1      26.333  44.946  53.059  1.00  0.00     0.071 A 
BRANCH  25  27
HETATM   27  C   UNL     1      28.565  44.705  54.376  1.00  0.00    -0.003 A 
HETATM   28  C   UNL     1      29.551  43.743  54.658  1.00  0.00     0.053 A 
HETATM   29  C   UNL     1      30.344  43.921  55.773  1.00  0.00     0.106 A 
HETATM   30  C   UNL     1      30.195  45.005  56.604  1.00  0.00     0.105 A 
HETATM   31  O   UNL     1      31.333  43.083  56.187  1.00  0.00    -0.323 OA
HETATM   32  O   UNL     1      31.071  44.989  57.643  1.00  0.00    -0.323 OA
HETATM   33  C   UNL     1      29.248  45.975  56.363  1.00  0.00     0.040 A 
HETATM   34  C   UNL     1      31.789  43.767  57.373  1.00  0.00     0.352 A 
HETATM   35  C   UNL     1      28.427  45.820  55.238  1.00  0.00     0.017 A 
ENDBRANCH  25  27
ENDBRANCH   2  21
TORSDOF 9
ENDMDL
MODEL 6
REMARK VINA RESULT:      -8.3      4.121      7.492
REMARK  9 active torsions:
REMARK  status: ('A' for Active; 'I' for Inactive)
REMARK       I    between atoms: C_2  and  N_3 
REMARK    1  A    between atoms: N_3  and  C_4 
REMARK    2  A    between atoms: C_6  and  O_7 
REMARK    3  A    between atoms: O_7  and  C_8 
REMARK    4  A    between atoms: C_8  and  C_9 
REMARK    5  A    between atoms: C_9  and  C_10 
REMARK    6  A    between atoms: C_10  and  C_11 
REMARK    7  A    between atoms: C_11  and  N_12 
REMARK       I    between atoms: N_12  and  C_13 
REMARK    8  A    between atoms: C_13  and  C_14 
REMARK    9  A    between atoms: C_18  and  C_19 
ROOT
HETATM    1  N   UNL     1      25.233  45.743  50.636  1.00  0.00    -0.345 N 
HETATM    2  C   UNL     1      25.008  45.185  51.867  1.00  0.00     0.270 C 
HETATM    3  O   UNL     1      24.050  44.457  52.100  1.00  0.00    -0.266 OA
HETATM    4  H   UNL     1      25.972  46.418  50.517  1.00  0.00     0.163 HD
ENDROOT
BRANCH   1   5
HETATM    5  C   UNL     1      24.329  45.537  49.535  1.00  0.00     0.217 C 
BRANCH   5   6
HETATM    6  C   UNL     1      24.555  44.136  48.994  1.00  0.00    -0.085 C 
BRANCH   6   7
HETATM    7  C   UNL     1      24.748  42.932  48.529  1.00  0.00    -0.078 C 
BRANCH   7   8
HETATM    8  C   UNL     1      24.994  41.564  48.052  1.00  0.00     0.269 C 
BRANCH   8   9
HETATM    9  O   UNL     1      25.383  40.745  49.154  1.00  0.00    -0.339 OA
BRANCH   9  10
HETATM   10  C   UNL     1      26.339  39.796  48.909  1.00  0.00     0.072 A 
HETATM   11  C   UNL     1      26.857  38.891  49.843  1.00  0.00     0.066 A 
HETATM   12  C   UNL     1      27.833  37.961  49.471  1.00  0.00     0.037 A 
HETATM   13  C   UNL     1      28.293  37.949  48.148  1.00  0.00     0.029 A 
HETATM   14  C   UNL     1      27.783  38.850  47.213  1.00  0.00     0.005 A 
HETATM   15  C   UNL     1      26.809  39.770  47.596  1.00  0.00     0.037 A 
BRANCH  12  16
HETATM   16  N   UNL     1      28.399  37.016  50.355  1.00  0.00    -0.327 N 
HETATM   17  C   UNL     1      29.659  37.043  50.926  1.00  0.00     0.218 C 
HETATM   18  C   UNL     1      29.911  35.860  51.828  1.00  0.00     0.117 C 
HETATM   19  O   UNL     1      30.514  37.911  50.785  1.00  0.00    -0.274 OA
HETATM   20  H   UNL     1      27.803  36.238  50.606  1.00  0.00     0.169 HD
ENDBRANCH  12  16
ENDBRANCH   9  10
ENDBRANCH   8   9
ENDBRANCH   7   8
ENDBRANCH   6   7
ENDBRANCH   5   6
ENDBRANCH   1   5
BRANCH   2  21
HETATM   21  C   UNL     1      25.981  45.518  52.872  1.00  0.00     0.120 A 
HETATM   22  N   UNL     1      26.201  46.810  53.260  1.00  0.00    -0.272 N 
HETATM   23  H   UNL     1      25.730  47.638  52.908  1.00  0.00     0.189 HD
HETATM   24  N   UNL     1      27.147  46.950  54.199  1.00  0.00    -0.174 NA
HETATM   25  C   UNL     1      27.562  45.700  54.458  1.00  0.00     0.089 A 
HETATM   26  C   UNL     1      26.852  44.773  53.644  1.00  0.00     0.071 A 
BRANCH  25  27
HETATM   27  C   UNL     1      28.610  45.424  55.448  1.00  0.00    -0.003 A 
HETATM   28  C   UNL     1      29.537  44.391  55.225  1.00  0.00     0.053 A 
HETATM   29  C   UNL     1      30.499  44.150  56.183  1.00  0.00     0.106 A 
HETATM   30  C   UNL     1      30.574  44.892  57.338  1.00  0.00     0.105 A 
HETATM   31  O   UNL     1      31.460  43.189  56.123  1.00  0.00    -0.323 OA
HETATM   32  O   UNL     1      31.589  44.492  58.149  1.00  0.00    -0.323 OA
HETATM   33  C   UNL     1      29.693  45.917  57.597  1.00  0.00     0.040 A 
HETATM   34  C   UNL     1      32.146  43.411  57.372  1.00  0.00     0.352 A 
HETATM   35  C   UNL     1      28.703  46.183  56.641  1.00  0.00     0.017 A 
ENDBRANCH  25  27
ENDBRANCH   2  21
TORSDOF 9
ENDMDL
MODEL 7
REMARK VINA RESULT:      -8.3      2.410      8.895
REMARK  9 active torsions:
REMARK  status: ('A' for Active; 'I' for Inactive)
REMARK       I    between atoms: C_2  and  N_3 
REMARK    1  A    between atoms: N_3  and  C_4 
REMARK    2  A    between atoms: C_6  and  O_7 
REMARK    3  A    between atoms: O_7  and  C_8 
REMARK    4  A    between atoms: C_8  and  C_9 
REMARK    5  A    between atoms: C_9  and  C_10 
REMARK    6  A    between atoms: C_10  and  C_11 
REMARK    7  A    between atoms: C_11  and  N_12 
REMARK       I    between atoms: N_12  and  C_13 
REMARK    8  A    between atoms: C_13  and  C_14 
REMARK    9  A    between atoms: C_18  and  C_19 
ROOT
HETATM    1  N   UNL     1      28.244  42.646  52.257  1.00  0.00    -0.345 N 
HETATM    2  C   UNL     1      27.149  43.153  52.907  1.00  0.00     0.270 C 
HETATM    3  O   UNL     1      26.808  42.777  54.023  1.00  0.00    -0.266 OA
HETATM    4  H   UNL     1      28.427  42.907  51.301  1.00  0.00     0.163 HD
ENDROOT
BRANCH   1   5
HETATM    5  C   UNL     1      29.052  41.605  52.835  1.00  0.00     0.217 C 
BRANCH   5   6
HETATM    6  C   UNL     1      29.849  42.206  53.981  1.00  0.00    -0.085 C 
BRANCH   6   7
HETATM    7  C   UNL     1      30.534  42.721  54.964  1.00  0.00    -0.078 C 
BRANCH   7   8
HETATM    8  C   UNL     1      31.267  43.283  56.107  1.00  0.00     0.269 C 
BRANCH   8   9
HETATM    9  O   UNL     1      31.344  44.701  55.963  1.00  0.00    -0.339 OA
BRANCH   9  10
HETATM   10  C   UNL     1      30.226  45.416  56.300  1.00  0.00     0.072 A 
HETATM   11  C   UNL     1      29.369  46.071  55.408  1.00  0.00     0.066 A 
HETATM   12  C   UNL     1      28.250  46.769  55.874  1.00  0.00     0.037 A 
HETATM   13  C   UNL     1      27.998  46.810  57.251  1.00  0.00     0.029 A 
HETATM   14  C   UNL     1      28.850  46.162  58.147  1.00  0.00     0.005 A 
HETATM   15  C   UNL     1      29.960  45.468  57.669  1.00  0.00     0.037 A 
BRANCH  12  16
HETATM   16  N   UNL     1      27.341  47.450  55.035  1.00  0.00    -0.327 N 
HETATM   17  C   UNL     1      26.124  46.991  54.560  1.00  0.00     0.218 C 
HETATM   18  C   UNL     1      25.424  48.005  53.689  1.00  0.00     0.117 C 
HETATM   19  O   UNL     1      25.599  45.910  54.801  1.00  0.00    -0.274 OA
HETATM   20  H   UNL     1      27.611  48.386  54.763  1.00  0.00     0.169 HD
ENDBRANCH  12  16
ENDBRANCH   9  10
ENDBRANCH   8   9
ENDBRANCH   7   8
ENDBRANCH   6   7
ENDBRANCH   5   6
ENDBRANCH   1   5
BRANCH   2  21
HETATM   21  C   UNL     1      26.424  44.159  52.180  1.00  0.00     0.120 A 
HETATM   22  N   UNL     1      25.059  44.155  52.113  1.00  0.00    -0.272 N 
HETATM   23  H   UNL     1      24.432  43.483  52.546  1.00  0.00     0.189 HD
HETATM   24  N   UNL     1      24.539  45.156  51.389  1.00  0.00    -0.174 NA
HETATM   25  C   UNL     1      25.600  45.864  50.971  1.00  0.00     0.089 A 
HETATM   26  C   UNL     1      26.802  45.269  51.448  1.00  0.00     0.071 A 
BRANCH  25  27
HETATM   27  C   UNL     1      25.448  47.062  50.135  1.00  0.00    -0.003 A 
HETATM   28  C   UNL     1      24.166  47.521  49.786  1.00  0.00     0.053 A 
HETATM   29  C   UNL     1      24.062  48.641  48.987  1.00  0.00     0.106 A 
HETATM   30  C   UNL     1      25.172  49.313  48.532  1.00  0.00     0.105 A 
HETATM   31  O   UNL     1      22.902  49.207  48.557  1.00  0.00    -0.323 OA
HETATM   32  O   UNL     1      24.851  50.384  47.760  1.00  0.00    -0.323 OA
HETATM   33  C   UNL     1      26.446  48.903  48.853  1.00  0.00     0.040 A 
HETATM   34  C   UNL     1      23.410  50.310  47.779  1.00  0.00     0.352 A 
HETATM   35  C   UNL     1      26.582  47.767  49.662  1.00  0.00     0.017 A 
ENDBRANCH  25  27
ENDBRANCH   2  21
TORSDOF 9
ENDMDL
MODEL 8
REMARK VINA RESULT:      -8.3      3.373     10.960
REMARK  9 active torsions:
REMARK  status: ('A' for Active; 'I' for Inactive)
REMARK       I    between atoms: C_2  and  N_3 
REMARK    1  A    between atoms: N_3  and  C_4 
REMARK    2  A    between atoms: C_6  and  O_7 
REMARK    3  A    between atoms: O_7  and  C_8 
REMARK    4  A    between atoms: C_8  and  C_9 
REMARK    5  A    between atoms: C_9  and  C_10 
REMARK    6  A    between atoms: C_10  and  C_11 
REMARK    7  A    between atoms: C_11  and  N_12 
REMARK       I    between atoms: N_12  and  C_13 
REMARK    8  A    between atoms: C_13  and  C_14 
REMARK    9  A    between atoms: C_18  and  C_19 
ROOT
HETATM    1  N   UNL     1      24.259  47.463  49.791  1.00  0.00    -0.345 N 
HETATM    2  C   UNL     1      23.938  48.726  49.366  1.00  0.00     0.270 C 
HETATM    3  O   UNL     1      24.786  49.568  49.091  1.00  0.00    -0.266 OA
HETATM    4  H   UNL     1      23.533  46.839  50.107  1.00  0.00     0.163 HD
ENDROOT
BRANCH   1   5
HETATM    5  C   UNL     1      25.626  47.051  49.977  1.00  0.00     0.217 C 
BRANCH   5   6
HETATM    6  C   UNL     1      25.939  47.108  51.463  1.00  0.00    -0.085 C 
BRANCH   6   7
HETATM    7  C   UNL     1      26.206  47.158  52.738  1.00  0.00    -0.078 C 
BRANCH   7   8
HETATM    8  C   UNL     1      26.459  47.237  54.184  1.00  0.00     0.269 C 
BRANCH   8   9
HETATM    9  O   UNL     1      26.177  45.971  54.780  1.00  0.00    -0.339 OA
BRANCH   9  10
HETATM   10  C   UNL     1      26.969  44.921  54.401  1.00  0.00     0.072 A 
HETATM   11  C   UNL     1      26.573  43.836  53.611  1.00  0.00     0.066 A 
HETATM   12  C   UNL     1      27.479  42.821  53.285  1.00  0.00     0.037 A 
HETATM   13  C   UNL     1      28.792  42.901  53.765  1.00  0.00     0.029 A 
HETATM   14  C   UNL     1      29.194  43.979  54.555  1.00  0.00     0.005 A 
HETATM   15  C   UNL     1      28.281  44.984  54.870  1.00  0.00     0.037 A 
BRANCH  12  16
HETATM   16  N   UNL     1      27.153  41.699  52.491  1.00  0.00    -0.327 N 
HETATM   17  C   UNL     1      27.012  41.651  51.115  1.00  0.00     0.218 C 
HETATM   18  C   UNL     1      26.662  40.270  50.618  1.00  0.00     0.117 C 
HETATM   19  O   UNL     1      27.166  42.576  50.325  1.00  0.00    -0.274 OA
HETATM   20  H   UNL     1      27.022  40.830  52.992  1.00  0.00     0.169 HD
ENDBRANCH  12  16
ENDBRANCH   9  10
ENDBRANCH   8   9
ENDBRANCH   7   8
ENDBRANCH   6   7
ENDBRANCH   5   6
ENDBRANCH   1   5
BRANCH   2  21
HETATM   21  C   UNL     1      22.529  48.994  49.269  1.00  0.00     0.120 A 
HETATM   22  N   UNL     1      21.602  47.991  49.303  1.00  0.00    -0.272 N 
HETATM   23  H   UNL     1      21.786  46.996  49.398  1.00  0.00     0.189 HD
HETATM   24  N   UNL     1      20.333  48.408  49.191  1.00  0.00    -0.174 NA
HETATM   25  C   UNL     1      20.418  49.744  49.096  1.00  0.00     0.089 A 
HETATM   26  C   UNL     1      21.783  50.150  49.141  1.00  0.00     0.071 A 
BRANCH  25  27
HETATM   27  C   UNL     1      19.224  50.587  48.957  1.00  0.00    -0.003 A 
HETATM   28  C   UNL     1      18.321  50.362  47.902  1.00  0.00     0.053 A 
HETATM   29  C   UNL     1      17.217  51.183  47.795  1.00  0.00     0.106 A 
HETATM   30  C   UNL     1      16.981  52.202  48.686  1.00  0.00     0.105 A 
HETATM   31  O   UNL     1      16.257  51.103  46.834  1.00  0.00    -0.323 OA
HETATM   32  O   UNL     1      15.845  52.891  48.400  1.00  0.00    -0.323 OA
HETATM   33  C   UNL     1      17.833  52.455  49.737  1.00  0.00     0.040 A 
HETATM   34  C   UNL     1      15.392  52.188  47.224  1.00  0.00     0.352 A 
HETATM   35  C   UNL     1      18.964  51.638  49.870  1.00  0.00     0.017 A 
ENDBRANCH  25  27
ENDBRANCH   2  21
TORSDOF 9
ENDMDL
MODEL 9
REMARK VINA RESULT:      -8.2      2.317      4.012
REMARK  9 active torsions:
REMARK  status: ('A' for Active; 'I' for Inactive)
REMARK       I    between atoms: C_2  and  N_3 
REMARK    1  A    between atoms: N_3  and  C_4 
REMARK    2  A    between atoms: C_6  and  O_7 
REMARK    3  A    between atoms: O_7  and  C_8 
REMARK    4  A    between atoms: C_8  and  C_9 
REMARK    5  A    between atoms: C_9  and  C_10 
REMARK    6  A    between atoms: C_10  and  C_11 
REMARK    7  A    between atoms: C_11  and  N_12 
REMARK       I    between atoms: N_12  and  C_13 
REMARK    8  A    between atoms: C_13  and  C_14 
REMARK    9  A    between atoms: C_18  and  C_19 
ROOT
HETATM    1  N   UNL     1      24.786  45.552  50.434  1.00  0.00    -0.345 N 
HETATM    2  C   UNL     1      24.900  44.377  51.129  1.00  0.00     0.270 C 
HETATM    3  O   UNL     1      24.011  43.533  51.155  1.00  0.00    -0.266 OA
HETATM    4  H   UNL     1      25.496  46.262  50.526  1.00  0.00     0.163 HD
ENDROOT
BRANCH   1   5
HETATM    5  C   UNL     1      23.588  45.891  49.711  1.00  0.00     0.217 C 
BRANCH   5   6
HETATM    6  C   UNL     1      23.715  47.328  49.233  1.00  0.00    -0.085 C 
BRANCH   6   7
HETATM    7  C   UNL     1      23.823  48.561  48.824  1.00  0.00    -0.078 C 
BRANCH   7   8
HETATM    8  C   UNL     1      23.894  49.961  48.379  1.00  0.00     0.269 C 
BRANCH   8   9
HETATM    9  O   UNL     1      22.920  50.179  47.359  1.00  0.00    -0.339 OA
BRANCH   9  10
HETATM   10  C   UNL     1      21.618  50.299  47.767  1.00  0.00     0.072 A 
HETATM   11  C   UNL     1      20.587  49.389  47.504  1.00  0.00     0.066 A 
HETATM   12  C   UNL     1      19.292  49.619  47.980  1.00  0.00     0.037 A 
HETATM   13  C   UNL     1      19.036  50.780  48.720  1.00  0.00     0.029 A 
HETATM   14  C   UNL     1      20.058  51.693  48.984  1.00  0.00     0.005 A 
HETATM   15  C   UNL     1      21.344  51.449  48.506  1.00  0.00     0.037 A 
BRANCH  12  16
HETATM   16  N   UNL     1      18.205  48.746  47.758  1.00  0.00    -0.327 N 
HETATM   17  C   UNL     1      17.052  49.000  47.036  1.00  0.00     0.218 C 
HETATM   18  C   UNL     1      16.112  47.820  47.013  1.00  0.00     0.117 C 
HETATM   19  O   UNL     1      16.771  50.030  46.433  1.00  0.00    -0.274 OA
HETATM   20  H   UNL     1      18.291  47.825  48.168  1.00  0.00     0.169 HD
ENDBRANCH  12  16
ENDBRANCH   9  10
ENDBRANCH   8   9
ENDBRANCH   7   8
ENDBRANCH   6   7
ENDBRANCH   5   6
ENDBRANCH   1   5
BRANCH   2  21
HETATM   21  C   UNL     1      26.142  44.205  51.833  1.00  0.00     0.120 A 
HETATM   22  N   UNL     1      27.219  43.596  51.252  1.00  0.00    -0.272 N 
HETATM   23  H   UNL     1      27.269  43.219  50.311  1.00  0.00     0.189 HD
HETATM   24  N   UNL     1      28.297  43.508  52.045  1.00  0.00    -0.174 NA
HETATM   25  C   UNL     1      27.926  44.096  53.194  1.00  0.00     0.089 A 
HETATM   26  C   UNL     1      26.579  44.547  53.098  1.00  0.00     0.071 A 
BRANCH  25  27
HETATM   27  C   UNL     1      28.842  44.204  54.336  1.00  0.00    -0.003 A 
HETATM   28  C   UNL     1      28.664  45.222  55.289  1.00  0.00     0.053 A 
HETATM   29  C   UNL     1      29.552  45.301  56.342  1.00  0.00     0.106 A 
HETATM   30  C   UNL     1      30.595  44.417  56.480  1.00  0.00     0.105 A 
HETATM   31  O   UNL     1      29.523  46.226  57.340  1.00  0.00    -0.323 OA
HETATM   32  O   UNL     1      31.352  44.671  57.580  1.00  0.00    -0.323 OA
HETATM   33  C   UNL     1      30.805  43.401  55.575  1.00  0.00     0.040 A 
HETATM   34  C   UNL     1      30.666  45.820  58.120  1.00  0.00     0.352 A 
HETATM   35  C   UNL     1      29.918  43.296  54.495  1.00  0.00     0.017 A 
ENDBRANCH  25  27
ENDBRANCH   2  21
TORSDOF 9
ENDMDL
MODEL 10
REMARK VINA RESULT:      -8.0      3.004      4.665
REMARK  9 active torsions:
REMARK  status: ('A' for Active; 'I' for Inactive)
REMARK       I    between atoms: C_2  and  N_3 
REMARK    1  A    between atoms: N_3  and  C_4 
REMARK    2  A    between atoms: C_6  and  O_7 
REMARK    3  A    between atoms: O_7  and  C_8 
REMARK    4  A    between atoms: C_8  and  C_9 
REMARK    5  A    between atoms: C_9  and  C_10 
REMARK    6  A    between atoms: C_10  and  C_11 
REMARK    7  A    between atoms: C_11  and  N_12 
REMARK       I    between atoms: N_12  and  C_13 
REMARK    8  A    between atoms: C_13  and  C_14 
REMARK    9  A    between atoms: C_18  and  C_19 
ROOT
HETATM    1  N   UNL     1      24.819  46.176  50.345  1.00  0.00    -0.345 N 
HETATM    2  C   UNL     1      24.754  45.278  51.377  1.00  0.00     0.270 C 
HETATM    3  O   UNL     1      23.899  44.402  51.441  1.00  0.00    -0.266 OA
HETATM    4  H   UNL     1      25.471  46.944  50.386  1.00  0.00     0.163 HD
ENDROOT
BRANCH   1   5
HETATM    5  C   UNL     1      23.856  46.170  49.274  1.00  0.00     0.217 C 
BRANCH   5   6
HETATM    6  C   UNL     1      23.234  47.554  49.190  1.00  0.00    -0.085 C 
BRANCH   6   7
HETATM    7  C   UNL     1      22.701  48.742  49.118  1.00  0.00    -0.078 C 
BRANCH   7   8
HETATM    8  C   UNL     1      22.142  50.101  49.067  1.00  0.00     0.269 C 
BRANCH   8   9
HETATM    9  O   UNL     1      21.066  50.202  49.999  1.00  0.00    -0.339 OA
BRANCH   9  10
HETATM   10  C   UNL     1      19.813  49.914  49.528  1.00  0.00     0.072 A 
HETATM   11  C   UNL     1      19.022  50.749  48.731  1.00  0.00     0.066 A 
HETATM   12  C   UNL     1      17.754  50.340  48.306  1.00  0.00     0.037 A 
HETATM   13  C   UNL     1      17.280  49.081  48.693  1.00  0.00     0.029 A 
HETATM   14  C   UNL     1      18.062  48.243  49.490  1.00  0.00     0.005 A 
HETATM   15  C   UNL     1      19.325  48.662  49.904  1.00  0.00     0.037 A 
BRANCH  12  16
HETATM   16  N   UNL     1      16.902  51.126  47.499  1.00  0.00    -0.327 N 
HETATM   17  C   UNL     1      15.879  51.961  47.914  1.00  0.00     0.218 C 
HETATM   18  C   UNL     1      15.188  52.645  46.761  1.00  0.00     0.117 C 
HETATM   19  O   UNL     1      15.537  52.190  49.070  1.00  0.00    -0.274 OA
HETATM   20  H   UNL     1      17.074  51.078  46.503  1.00  0.00     0.169 HD
ENDBRANCH  12  16
ENDBRANCH   9  10
ENDBRANCH   8   9
ENDBRANCH   7   8
ENDBRANCH   6   7
ENDBRANCH   5   6
ENDBRANCH   1   5
BRANCH   2  21
HETATM   21  C   UNL     1      25.763  45.441  52.388  1.00  0.00     0.120 A 
HETATM   22  N   UNL     1      25.930  46.622  53.055  1.00  0.00    -0.272 N 
HETATM   23  H   UNL     1      25.391  47.473  52.927  1.00  0.00     0.189 HD
HETATM   24  N   UNL     1      26.920  46.611  53.959  1.00  0.00    -0.174 NA
HETATM   25  C   UNL     1      27.422  45.367  53.902  1.00  0.00     0.089 A 
HETATM   26  C   UNL     1      26.721  44.602  52.927  1.00  0.00     0.071 A 
BRANCH  25  27
HETATM   27  C   UNL     1      28.542  44.946  54.753  1.00  0.00    -0.003 A 
HETATM   28  C   UNL     1      28.835  45.652  55.933  1.00  0.00     0.053 A 
HETATM   29  C   UNL     1      29.903  45.237  56.701  1.00  0.00     0.106 A 
HETATM   30  C   UNL     1      30.677  44.159  56.344  1.00  0.00     0.105 A 
HETATM   31  O   UNL     1      30.321  45.812  57.861  1.00  0.00    -0.323 OA
HETATM   32  O   UNL     1      31.678  43.920  57.233  1.00  0.00    -0.323 OA
HETATM   33  C   UNL     1      30.424  43.434  55.202  1.00  0.00     0.040 A 
HETATM   34  C   UNL     1      31.445  44.973  58.192  1.00  0.00     0.352 A 
HETATM   35  C   UNL     1      29.346  43.834  54.401  1.00  0.00     0.017 A 
ENDBRANCH  25  27
ENDBRANCH   2  21
TORSDOF 9
ENDMDL
