MODEL 1
REMARK VINA RESULT:      -8.7      0.000      0.000
REMARK  6 active torsions:
REMARK  status: ('A' for Active; 'I' for Inactive)
REMARK    1  A    between atoms: C_8  and  N_9 
REMARK       I    between atoms: N_9  and  C_10 
REMARK    2  A    between atoms: C_10  and  C_11 
REMARK    3  A    between atoms: C_11  and  N_12 
REMARK    4  A    between atoms: N_12  and  C_13 
REMARK    5  A    between atoms: C_13  and  C_14 
REMARK    6  A    between atoms: C_15  and  C_16 
ROOT
HETATM    1  N   UNL     1      28.116  42.737  54.318  1.00  0.00     0.100 N 
HETATM    2  H   UNL     1      28.438  41.793  54.556  1.00  0.00     0.317 HD
ENDROOT
BRANCH   1   3
HETATM    3  C   UNL     1      27.294  42.607  53.098  1.00  0.00     0.372 C 
BRANCH   3   4
HETATM    4  C   UNL     1      26.262  43.739  52.959  1.00  0.00     0.250 C 
HETATM    5  N   UNL     1      26.565  44.581  51.908  1.00  0.00    -0.322 N 
HETATM    6  H   UNL     1      27.418  44.396  51.395  1.00  0.00     0.169 HD
HETATM    7  O   UNL     1      25.315  43.835  53.734  1.00  0.00    -0.271 OA
BRANCH   5   8
HETATM    8  C   UNL     1      25.847  45.683  51.472  1.00  0.00     0.085 A 
HETATM    9  C   UNL     1      25.257  45.703  50.220  1.00  0.00     0.052 A 
HETATM   10  C   UNL     1      25.217  44.718  49.114  1.00  0.00     0.072 C 
HETATM   11  N   UNL     1      24.644  46.918  50.115  1.00  0.00    -0.280 N 
HETATM   12  H   UNL     1      24.117  47.289  49.331  1.00  0.00     0.189 HD
HETATM   13  N   UNL     1      24.776  47.684  51.199  1.00  0.00    -0.177 NA
HETATM   14  C   UNL     1      25.513  46.945  52.044  1.00  0.00     0.079 A 
HETATM   15  C   UNL     1      25.834  47.524  53.373  1.00  0.00     0.075 C 
ENDBRANCH   5   8
ENDBRANCH   3   4
ENDBRANCH   1   3
BRANCH   1  16
HETATM   16  C   UNL     1      29.302  43.582  54.146  1.00  0.00     0.250 C 
HETATM   17  C   UNL     1      30.308  42.903  53.209  1.00  0.00     0.048 C 
BRANCH  16  18
HETATM   18  C   UNL     1      29.978  43.988  55.453  1.00  0.00    -0.011 A 
HETATM   19  C   UNL     1      29.625  45.115  56.235  1.00  0.00     0.056 A 
HETATM   20  C   UNL     1      30.352  45.366  57.422  1.00  0.00     0.017 A 
HETATM   21  C   UNL     1      31.380  44.523  57.845  1.00  0.00     0.001 A 
HETATM   22  C   UNL     1      31.711  43.410  57.088  1.00  0.00     0.001 A 
HETATM   23  C   UNL     1      31.019  43.146  55.907  1.00  0.00     0.010 A 
BRANCH  19  24
HETATM   24  C   UNL     1      28.546  46.118  55.858  1.00  0.00     0.418 C 
HETATM   25  F   UNL     1      27.378  45.576  55.426  1.00  0.00    -0.166 F 
HETATM   26  F   UNL     1      28.181  46.901  56.923  1.00  0.00    -0.166 F 
HETATM   27  F   UNL     1      28.956  47.008  54.909  1.00  0.00    -0.166 F 
ENDBRANCH  19  24
ENDBRANCH  16  18
ENDBRANCH   1  16
TORSDOF 6
ENDMDL
MODEL 2
REMARK VINA RESULT:      -8.5      2.767      3.910
REMARK  6 active torsions:
REMARK  status: ('A' for Active; 'I' for Inactive)
REMARK    1  A    between atoms: C_8  and  N_9 
REMARK       I    between atoms: N_9  and  C_10 
REMARK    2  A    between atoms: C_10  and  C_11 
REMARK    3  A    between atoms: C_11  and  N_12 
REMARK    4  A    between atoms: N_12  and  C_13 
REMARK    5  A    between atoms: C_13  and  C_14 
REMARK    6  A    between atoms: C_15  and  C_16 
ROOT
HETATM    1  N   UNL     1      26.917  44.905  52.232  1.00  0.00     0.100 N 
HETATM    2  H   UNL     1      27.414  45.793  52.359  1.00  0.00     0.317 HD
ENDROOT
BRANCH   1   3
HETATM    3  C   UNL     1      25.558  45.245  51.767  1.00  0.00     0.372 C 
BRANCH   3   4
HETATM    4  C   UNL     1      25.406  46.737  51.427  1.00  0.00     0.250 C 
HETATM    5  N   UNL     1      25.357  46.949  50.063  1.00  0.00    -0.322 N 
HETATM    6  H   UNL     1      25.465  46.140  49.463  1.00  0.00     0.169 HD
HETATM    7  O   UNL     1      25.359  47.589  52.309  1.00  0.00    -0.271 OA
BRANCH   5   8
HETATM    8  C   UNL     1      25.196  48.153  49.399  1.00  0.00     0.085 A 
HETATM    9  C   UNL     1      26.289  48.901  48.996  1.00  0.00     0.052 A 
HETATM   10  C   UNL     1      27.751  48.695  49.133  1.00  0.00     0.072 C 
HETATM   11  N   UNL     1      25.780  50.010  48.386  1.00  0.00    -0.280 N 
HETATM   12  H   UNL     1      26.286  50.787  47.972  1.00  0.00     0.189 HD
HETATM   13  N   UNL     1      24.447  50.039  48.346  1.00  0.00    -0.177 NA
HETATM   14  C   UNL     1      24.068  48.910  48.964  1.00  0.00     0.079 A 
HETATM   15  C   UNL     1      22.614  48.636  49.079  1.00  0.00     0.075 C 
ENDBRANCH   5   8
ENDBRANCH   3   4
ENDBRANCH   1   3
BRANCH   1  16
HETATM   16  C   UNL     1      26.946  44.191  53.512  1.00  0.00     0.250 C 
HETATM   17  C   UNL     1      25.553  44.195  54.154  1.00  0.00     0.048 C 
BRANCH  16  18
HETATM   18  C   UNL     1      27.990  44.709  54.497  1.00  0.00    -0.011 A 
HETATM   19  C   UNL     1      29.284  44.160  54.674  1.00  0.00     0.056 A 
HETATM   20  C   UNL     1      30.140  44.747  55.634  1.00  0.00     0.017 A 
HETATM   21  C   UNL     1      29.749  45.857  56.385  1.00  0.00     0.001 A 
HETATM   22  C   UNL     1      28.489  46.403  56.197  1.00  0.00     0.001 A 
HETATM   23  C   UNL     1      27.621  45.837  55.265  1.00  0.00     0.010 A 
BRANCH  19  24
HETATM   24  C   UNL     1      29.806  42.937  53.936  1.00  0.00     0.418 C 
HETATM   25  F   UNL     1      29.897  43.070  52.587  1.00  0.00    -0.166 F 
HETATM   26  F   UNL     1      31.077  42.607  54.329  1.00  0.00    -0.166 F 
HETATM   27  F   UNL     1      29.073  41.814  54.185  1.00  0.00    -0.166 F 
ENDBRANCH  19  24
ENDBRANCH  16  18
ENDBRANCH   1  16
TORSDOF 6
ENDMDL
MODEL 3
REMARK VINA RESULT:      -8.4      2.721      3.834
REMARK  6 active torsions:
REMARK  status: ('A' for Active; 'I' for Inactive)
REMARK    1  A    between atoms: C_8  and  N_9 
REMARK       I    between atoms: N_9  and  C_10 
REMARK    2  A    between atoms: C_10  and  C_11 
REMARK    3  A    between atoms: C_11  and  N_12 
REMARK    4  A    between atoms: N_12  and  C_13 
REMARK    5  A    between atoms: C_13  and  C_14 
REMARK    6  A    between atoms: C_15  and  C_16 
ROOT
HETATM    1  N   UNL     1      26.770  44.683  52.238  1.00  0.00     0.100 N 
HETATM    2  H   UNL     1      27.370  45.513  52.255  1.00  0.00     0.317 HD
ENDROOT
BRANCH   1   3
HETATM    3  C   UNL     1      25.428  45.140  51.825  1.00  0.00     0.372 C 
BRANCH   3   4
HETATM    4  C   UNL     1      25.397  46.636  51.474  1.00  0.00     0.250 C 
HETATM    5  N   UNL     1      25.415  46.842  50.108  1.00  0.00    -0.322 N 
HETATM    6  H   UNL     1      25.488  46.025  49.516  1.00  0.00     0.169 HD
HETATM    7  O   UNL     1      25.377  47.495  52.350  1.00  0.00    -0.271 OA
BRANCH   5   8
HETATM    8  C   UNL     1      25.367  48.051  49.434  1.00  0.00     0.085 A 
HETATM    9  C   UNL     1      24.161  48.604  49.040  1.00  0.00     0.052 A 
HETATM   10  C   UNL     1      22.757  48.152  49.179  1.00  0.00     0.072 C 
HETATM   11  N   UNL     1      24.474  49.773  48.409  1.00  0.00    -0.280 N 
HETATM   12  H   UNL     1      23.843  50.444  47.982  1.00  0.00     0.189 HD
HETATM   13  N   UNL     1      25.782  50.033  48.372  1.00  0.00    -0.177 NA
HETATM   14  C   UNL     1      26.349  48.987  48.993  1.00  0.00     0.079 A 
HETATM   15  C   UNL     1      27.827  48.978  49.128  1.00  0.00     0.075 C 
ENDBRANCH   5   8
ENDBRANCH   3   4
ENDBRANCH   1   3
BRANCH   1  16
HETATM   16  C   UNL     1      26.806  44.079  53.575  1.00  0.00     0.250 C 
HETATM   17  C   UNL     1      25.429  44.186  54.243  1.00  0.00     0.048 C 
BRANCH  16  18
HETATM   18  C   UNL     1      27.889  44.644  54.488  1.00  0.00    -0.011 A 
HETATM   19  C   UNL     1      29.205  44.130  54.605  1.00  0.00     0.056 A 
HETATM   20  C   UNL     1      30.097  44.758  55.504  1.00  0.00     0.017 A 
HETATM   21  C   UNL     1      29.721  45.875  56.251  1.00  0.00     0.001 A 
HETATM   22  C   UNL     1      28.440  46.388  56.122  1.00  0.00     0.001 A 
HETATM   23  C   UNL     1      27.536  45.780  55.252  1.00  0.00     0.010 A 
BRANCH  19  24
HETATM   24  C   UNL     1      29.715  42.903  53.866  1.00  0.00     0.418 C 
HETATM   25  F   UNL     1      29.789  43.030  52.515  1.00  0.00    -0.166 F 
HETATM   26  F   UNL     1      30.991  42.573  54.243  1.00  0.00    -0.166 F 
HETATM   27  F   UNL     1      28.983  41.782  54.129  1.00  0.00    -0.166 F 
ENDBRANCH  19  24
ENDBRANCH  16  18
ENDBRANCH   1  16
TORSDOF 6
ENDMDL
MODEL 4
REMARK VINA RESULT:      -8.4      1.319      2.245
REMARK  6 active torsions:
REMARK  status: ('A' for Active; 'I' for Inactive)
REMARK    1  A    between atoms: C_8  and  N_9 
REMARK       I    between atoms: N_9  and  C_10 
REMARK    2  A    between atoms: C_10  and  C_11 
REMARK    3  A    between atoms: C_11  and  N_12 
REMARK    4  A    between atoms: N_12  and  C_13 
REMARK    5  A    between atoms: C_13  and  C_14 
REMARK    6  A    between atoms: C_15  and  C_16 
ROOT
HETATM    1  N   UNL     1      28.044  42.855  54.253  1.00  0.00     0.100 N 
HETATM    2  H   UNL     1      28.153  42.251  55.074  1.00  0.00     0.317 HD
ENDROOT
BRANCH   1   3
HETATM    3  C   UNL     1      27.764  41.966  53.109  1.00  0.00     0.372 C 
BRANCH   3   4
HETATM    4  C   UNL     1      27.112  42.708  51.930  1.00  0.00     0.250 C 
HETATM    5  N   UNL     1      25.941  43.338  52.307  1.00  0.00    -0.322 N 
HETATM    6  H   UNL     1      25.633  43.211  53.262  1.00  0.00     0.169 HD
HETATM    7  O   UNL     1      27.613  42.689  50.811  1.00  0.00    -0.271 OA
BRANCH   5   8
HETATM    8  C   UNL     1      25.109  44.118  51.521  1.00  0.00     0.085 A 
HETATM    9  C   UNL     1      25.121  45.499  51.617  1.00  0.00     0.052 A 
HETATM   10  C   UNL     1      25.894  46.439  52.463  1.00  0.00     0.072 C 
HETATM   11  N   UNL     1      24.193  45.944  50.720  1.00  0.00    -0.280 N 
HETATM   12  H   UNL     1      23.923  46.902  50.520  1.00  0.00     0.189 HD
HETATM   13  N   UNL     1      23.589  44.968  50.040  1.00  0.00    -0.177 NA
HETATM   14  C   UNL     1      24.135  43.839  50.518  1.00  0.00     0.079 A 
HETATM   15  C   UNL     1      23.673  42.549  49.947  1.00  0.00     0.075 C 
ENDBRANCH   5   8
ENDBRANCH   3   4
ENDBRANCH   1   3
BRANCH   1  16
HETATM   16  C   UNL     1      29.277  43.637  54.109  1.00  0.00     0.250 C 
HETATM   17  C   UNL     1      30.287  42.881  53.237  1.00  0.00     0.048 C 
BRANCH  16  18
HETATM   18  C   UNL     1      29.916  44.050  55.432  1.00  0.00    -0.011 A 
HETATM   19  C   UNL     1      29.548  45.187  56.193  1.00  0.00     0.056 A 
HETATM   20  C   UNL     1      30.241  45.445  57.399  1.00  0.00     0.017 A 
HETATM   21  C   UNL     1      31.249  44.599  57.860  1.00  0.00     0.001 A 
HETATM   22  C   UNL     1      31.595  43.477  57.123  1.00  0.00     0.001 A 
HETATM   23  C   UNL     1      30.937  43.206  55.925  1.00  0.00     0.010 A 
BRANCH  19  24
HETATM   24  C   UNL     1      28.487  46.193  55.774  1.00  0.00     0.418 C 
HETATM   25  F   UNL     1      28.830  46.997  54.735  1.00  0.00    -0.166 F 
HETATM   26  F   UNL     1      27.334  45.578  55.359  1.00  0.00    -0.166 F 
HETATM   27  F   UNL     1      28.089  47.002  56.798  1.00  0.00    -0.166 F 
ENDBRANCH  19  24
ENDBRANCH  16  18
ENDBRANCH   1  16
TORSDOF 6
ENDMDL
MODEL 5
REMARK VINA RESULT:      -7.9      2.269      3.141
REMARK  6 active torsions:
REMARK  status: ('A' for Active; 'I' for Inactive)
REMARK    1  A    between atoms: C_8  and  N_9 
REMARK       I    between atoms: N_9  and  C_10 
REMARK    2  A    between atoms: C_10  and  C_11 
REMARK    3  A    between atoms: C_11  and  N_12 
REMARK    4  A    between atoms: N_12  and  C_13 
REMARK    5  A    between atoms: C_13  and  C_14 
REMARK    6  A    between atoms: C_15  and  C_16 
ROOT
HETATM    1  N   UNL     1      27.016  45.071  52.317  1.00  0.00     0.100 N 
HETATM    2  H   UNL     1      27.387  45.960  52.669  1.00  0.00     0.317 HD
ENDROOT
BRANCH   1   3
HETATM    3  C   UNL     1      25.613  45.323  51.932  1.00  0.00     0.372 C 
BRANCH   3   4
HETATM    4  C   UNL     1      25.366  46.786  51.526  1.00  0.00     0.250 C 
HETATM    5  N   UNL     1      25.416  46.951  50.155  1.00  0.00    -0.322 N 
HETATM    6  H   UNL     1      25.642  46.138  49.597  1.00  0.00     0.169 HD
HETATM    7  O   UNL     1      25.172  47.656  52.368  1.00  0.00    -0.271 OA
BRANCH   5   8
HETATM    8  C   UNL     1      25.212  48.117  49.436  1.00  0.00     0.085 A 
HETATM    9  C   UNL     1      26.277  48.885  49.000  1.00  0.00     0.052 A 
HETATM   10  C   UNL     1      27.745  48.741  49.148  1.00  0.00     0.072 C 
HETATM   11  N   UNL     1      25.728  49.945  48.338  1.00  0.00    -0.280 N 
HETATM   12  H   UNL     1      26.206  50.721  47.890  1.00  0.00     0.189 HD
HETATM   13  N   UNL     1      24.395  49.923  48.296  1.00  0.00    -0.177 NA
HETATM   14  C   UNL     1      24.057  48.810  48.966  1.00  0.00     0.079 A 
HETATM   15  C   UNL     1      22.614  48.487  49.091  1.00  0.00     0.075 C 
ENDBRANCH   5   8
ENDBRANCH   3   4
ENDBRANCH   1   3
BRANCH   1  16
HETATM   16  C   UNL     1      27.169  44.071  53.379  1.00  0.00     0.250 C 
HETATM   17  C   UNL     1      25.860  43.924  54.164  1.00  0.00     0.048 C 
BRANCH  16  18
HETATM   18  C   UNL     1      28.335  44.337  54.326  1.00  0.00    -0.011 A 
HETATM   19  C   UNL     1      28.500  45.510  55.104  1.00  0.00     0.056 A 
HETATM   20  C   UNL     1      29.642  45.614  55.932  1.00  0.00     0.017 A 
HETATM   21  C   UNL     1      30.585  44.589  56.016  1.00  0.00     0.001 A 
HETATM   22  C   UNL     1      30.411  43.435  55.268  1.00  0.00     0.001 A 
HETATM   23  C   UNL     1      29.302  43.311  54.434  1.00  0.00     0.010 A 
BRANCH  19  24
HETATM   24  C   UNL     1      27.556  46.701  55.071  1.00  0.00     0.418 C 
HETATM   25  F   UNL     1      26.235  46.391  55.034  1.00  0.00    -0.166 F 
HETATM   26  F   UNL     1      27.687  47.488  56.186  1.00  0.00    -0.166 F 
HETATM   27  F   UNL     1      27.805  47.547  54.030  1.00  0.00    -0.166 F 
ENDBRANCH  19  24
ENDBRANCH  16  18
ENDBRANCH   1  16
TORSDOF 6
ENDMDL
MODEL 6
REMARK VINA RESULT:      -7.8      4.159      7.758
REMARK  6 active torsions:
REMARK  status: ('A' for Active; 'I' for Inactive)
REMARK    1  A    between atoms: C_8  and  N_9 
REMARK       I    between atoms: N_9  and  C_10 
REMARK    2  A    between atoms: C_10  and  C_11 
REMARK    3  A    between atoms: C_11  and  N_12 
REMARK    4  A    between atoms: N_12  and  C_13 
REMARK    5  A    between atoms: C_13  and  C_14 
REMARK    6  A    between atoms: C_15  and  C_16 
ROOT
HETATM    1  N   UNL     1      24.791  46.528  51.567  1.00  0.00     0.100 N 
HETATM    2  H   UNL     1      25.661  47.029  51.770  1.00  0.00     0.317 HD
ENDROOT
BRANCH   1   3
HETATM    3  C   UNL     1      25.097  45.088  51.682  1.00  0.00     0.372 C 
BRANCH   3   4
HETATM    4  C   UNL     1      26.553  44.826  52.100  1.00  0.00     0.250 C 
HETATM    5  N   UNL     1      26.731  44.987  53.461  1.00  0.00    -0.322 N 
HETATM    6  H   UNL     1      25.931  45.288  54.001  1.00  0.00     0.169 HD
HETATM    7  O   UNL     1      27.410  44.531  51.273  1.00  0.00    -0.271 OA
BRANCH   5   8
HETATM    8  C   UNL     1      27.895  44.805  54.189  1.00  0.00     0.085 A 
HETATM    9  C   UNL     1      28.440  45.834  54.937  1.00  0.00     0.052 A 
HETATM   10  C   UNL     1      28.030  47.241  55.157  1.00  0.00     0.072 C 
HETATM   11  N   UNL     1      29.566  45.321  55.514  1.00  0.00    -0.280 N 
HETATM   12  H   UNL     1      30.227  45.790  56.126  1.00  0.00     0.189 HD
HETATM   13  N   UNL     1      29.790  44.041  55.214  1.00  0.00    -0.177 NA
HETATM   14  C   UNL     1      28.778  43.705  54.400  1.00  0.00     0.079 A 
HETATM   15  C   UNL     1      28.732  42.313  53.888  1.00  0.00     0.075 C 
ENDBRANCH   5   8
ENDBRANCH   3   4
ENDBRANCH   1   3
BRANCH   1  16
HETATM   16  C   UNL     1      24.342  46.935  50.231  1.00  0.00     0.250 C 
HETATM   17  C   UNL     1      24.229  45.712  49.313  1.00  0.00     0.048 C 
BRANCH  16  18
HETATM   18  C   UNL     1      25.204  48.014  49.582  1.00  0.00    -0.011 A 
HETATM   19  C   UNL     1      24.711  49.095  48.811  1.00  0.00     0.056 A 
HETATM   20  C   UNL     1      25.638  50.013  48.266  1.00  0.00     0.017 A 
HETATM   21  C   UNL     1      27.010  49.890  48.490  1.00  0.00     0.001 A 
HETATM   22  C   UNL     1      27.489  48.842  49.260  1.00  0.00     0.001 A 
HETATM   23  C   UNL     1      26.598  47.916  49.799  1.00  0.00     0.010 A 
BRANCH  19  24
HETATM   24  C   UNL     1      23.243  49.312  48.478  1.00  0.00     0.418 C 
HETATM   25  F   UNL     1      22.434  49.537  49.545  1.00  0.00    -0.166 F 
HETATM   26  F   UNL     1      23.058  50.409  47.676  1.00  0.00    -0.166 F 
HETATM   27  F   UNL     1      22.702  48.279  47.769  1.00  0.00    -0.166 F 
ENDBRANCH  19  24
ENDBRANCH  16  18
ENDBRANCH   1  16
TORSDOF 6
ENDMDL
MODEL 7
REMARK VINA RESULT:      -7.8      2.203      3.321
REMARK  6 active torsions:
REMARK  status: ('A' for Active; 'I' for Inactive)
REMARK    1  A    between atoms: C_8  and  N_9 
REMARK       I    between atoms: N_9  and  C_10 
REMARK    2  A    between atoms: C_10  and  C_11 
REMARK    3  A    between atoms: C_11  and  N_12 
REMARK    4  A    between atoms: N_12  and  C_13 
REMARK    5  A    between atoms: C_13  and  C_14 
REMARK    6  A    between atoms: C_15  and  C_16 
ROOT
HETATM    1  N   UNL     1      27.968  43.661  51.823  1.00  0.00     0.100 N 
HETATM    2  H   UNL     1      27.704  44.649  51.884  1.00  0.00     0.317 HD
ENDROOT
BRANCH   1   3
HETATM    3  C   UNL     1      26.754  42.924  51.421  1.00  0.00     0.372 C 
BRANCH   3   4
HETATM    4  C   UNL     1      25.532  43.844  51.258  1.00  0.00     0.250 C 
HETATM    5  N   UNL     1      25.730  44.786  50.268  1.00  0.00    -0.322 N 
HETATM    6  H   UNL     1      26.632  44.796  49.809  1.00  0.00     0.169 HD
HETATM    7  O   UNL     1      24.539  43.714  51.967  1.00  0.00    -0.271 OA
BRANCH   5   8
HETATM    8  C   UNL     1      24.840  45.753  49.830  1.00  0.00     0.085 A 
HETATM    9  C   UNL     1      25.175  47.095  49.847  1.00  0.00     0.052 A 
HETATM   10  C   UNL     1      26.392  47.821  50.280  1.00  0.00     0.072 C 
HETATM   11  N   UNL     1      24.086  47.759  49.359  1.00  0.00    -0.280 N 
HETATM   12  H   UNL     1      23.964  48.759  49.234  1.00  0.00     0.189 HD
HETATM   13  N   UNL     1      23.076  46.958  49.015  1.00  0.00    -0.177 NA
HETATM   14  C   UNL     1      23.517  45.722  49.298  1.00  0.00     0.079 A 
HETATM   15  C   UNL     1      22.612  44.581  49.013  1.00  0.00     0.075 C 
ENDBRANCH   5   8
ENDBRANCH   3   4
ENDBRANCH   1   3
BRANCH   1  16
HETATM   16  C   UNL     1      28.501  43.259  53.129  1.00  0.00     0.250 C 
HETATM   17  C   UNL     1      27.741  42.038  53.661  1.00  0.00     0.048 C 
BRANCH  16  18
HETATM   18  C   UNL     1      28.516  44.375  54.170  1.00  0.00    -0.011 A 
HETATM   19  C   UNL     1      29.498  44.534  55.178  1.00  0.00     0.056 A 
HETATM   20  C   UNL     1      29.371  45.617  56.079  1.00  0.00     0.017 A 
HETATM   21  C   UNL     1      28.324  46.534  55.980  1.00  0.00     0.001 A 
HETATM   22  C   UNL     1      27.375  46.387  54.981  1.00  0.00     0.001 A 
HETATM   23  C   UNL     1      27.469  45.322  54.088  1.00  0.00     0.010 A 
BRANCH  19  24
HETATM   24  C   UNL     1      30.663  43.582  55.399  1.00  0.00     0.418 C 
HETATM   25  F   UNL     1      31.156  42.999  54.276  1.00  0.00    -0.166 F 
HETATM   26  F   UNL     1      31.745  44.217  55.952  1.00  0.00    -0.166 F 
HETATM   27  F   UNL     1      30.371  42.582  56.281  1.00  0.00    -0.166 F 
ENDBRANCH  19  24
ENDBRANCH  16  18
ENDBRANCH   1  16
TORSDOF 6
ENDMDL
MODEL 8
REMARK VINA RESULT:      -7.7      2.249      3.086
REMARK  6 active torsions:
REMARK  status: ('A' for Active; 'I' for Inactive)
REMARK    1  A    between atoms: C_8  and  N_9 
REMARK       I    between atoms: N_9  and  C_10 
REMARK    2  A    between atoms: C_10  and  C_11 
REMARK    3  A    between atoms: C_11  and  N_12 
REMARK    4  A    between atoms: N_12  and  C_13 
REMARK    5  A    between atoms: C_13  and  C_14 
REMARK    6  A    between atoms: C_15  and  C_16 
ROOT
HETATM    1  N   UNL     1      28.763  43.355  52.087  1.00  0.00     0.100 N 
HETATM    2  H   UNL     1      28.591  44.353  51.927  1.00  0.00     0.317 HD
ENDROOT
BRANCH   1   3
HETATM    3  C   UNL     1      27.664  42.626  51.424  1.00  0.00     0.372 C 
BRANCH   3   4
HETATM    4  C   UNL     1      26.875  43.511  50.444  1.00  0.00     0.250 C 
HETATM    5  N   UNL     1      25.901  44.246  51.091  1.00  0.00    -0.322 N 
HETATM    6  H   UNL     1      25.789  44.097  52.085  1.00  0.00     0.169 HD
HETATM    7  O   UNL     1      27.120  43.504  49.242  1.00  0.00    -0.271 OA
BRANCH   5   8
HETATM    8  C   UNL     1      25.026  45.165  50.535  1.00  0.00     0.085 A 
HETATM    9  C   UNL     1      23.769  44.785  50.099  1.00  0.00     0.052 A 
HETATM   10  C   UNL     1      23.067  43.480  50.077  1.00  0.00     0.072 C 
HETATM   11  N   UNL     1      23.184  45.917  49.612  1.00  0.00    -0.280 N 
HETATM   12  H   UNL     1      22.261  46.020  49.201  1.00  0.00     0.189 HD
HETATM   13  N   UNL     1      23.950  47.005  49.708  1.00  0.00    -0.177 NA
HETATM   14  C   UNL     1      25.087  46.565  50.269  1.00  0.00     0.079 A 
HETATM   15  C   UNL     1      26.163  47.556  50.524  1.00  0.00     0.075 C 
ENDBRANCH   5   8
ENDBRANCH   3   4
ENDBRANCH   1   3
BRANCH   1  16
HETATM   16  C   UNL     1      28.828  43.141  53.537  1.00  0.00     0.250 C 
HETATM   17  C   UNL     1      27.828  42.058  53.959  1.00  0.00     0.048 C 
BRANCH  16  18
HETATM   18  C   UNL     1      28.630  44.405  54.367  1.00  0.00    -0.011 A 
HETATM   19  C   UNL     1      29.464  44.815  55.437  1.00  0.00     0.056 A 
HETATM   20  C   UNL     1      29.146  46.012  56.119  1.00  0.00     0.017 A 
HETATM   21  C   UNL     1      28.056  46.800  55.749  1.00  0.00     0.001 A 
HETATM   22  C   UNL     1      27.253  46.407  54.691  1.00  0.00     0.001 A 
HETATM   23  C   UNL     1      27.536  45.225  54.008  1.00  0.00     0.010 A 
BRANCH  19  24
HETATM   24  C   UNL     1      30.658  44.023  55.946  1.00  0.00     0.418 C 
HETATM   25  F   UNL     1      31.230  44.503  57.080  1.00  0.00    -0.166 F 
HETATM   26  F   UNL     1      30.319  42.732  56.260  1.00  0.00    -0.166 F 
HETATM   27  F   UNL     1      31.647  43.896  55.015  1.00  0.00    -0.166 F 
ENDBRANCH  19  24
ENDBRANCH  16  18
ENDBRANCH   1  16
TORSDOF 6
ENDMDL
MODEL 9
REMARK VINA RESULT:      -7.6      4.052      5.953
REMARK  6 active torsions:
REMARK  status: ('A' for Active; 'I' for Inactive)
REMARK    1  A    between atoms: C_8  and  N_9 
REMARK       I    between atoms: N_9  and  C_10 
REMARK    2  A    between atoms: C_10  and  C_11 
REMARK    3  A    between atoms: C_11  and  N_12 
REMARK    4  A    between atoms: N_12  and  C_13 
REMARK    5  A    between atoms: C_13  and  C_14 
REMARK    6  A    between atoms: C_15  and  C_16 
ROOT
HETATM    1  N   UNL     1      27.117  42.717  52.808  1.00  0.00     0.100 N 
HETATM    2  H   UNL     1      26.645  42.825  53.711  1.00  0.00     0.317 HD
ENDROOT
BRANCH   1   3
HETATM    3  C   UNL     1      27.738  41.378  52.814  1.00  0.00     0.372 C 
BRANCH   3   4
HETATM    4  C   UNL     1      27.485  40.603  51.510  1.00  0.00     0.250 C 
HETATM    5  N   UNL     1      28.646  40.048  51.010  1.00  0.00    -0.322 N 
HETATM    6  H   UNL     1      29.505  40.239  51.510  1.00  0.00     0.169 HD
HETATM    7  O   UNL     1      26.364  40.541  51.015  1.00  0.00    -0.271 OA
BRANCH   5   8
HETATM    8  C   UNL     1      28.791  39.265  49.877  1.00  0.00     0.085 A 
HETATM    9  C   UNL     1      29.295  37.979  49.954  1.00  0.00     0.052 A 
HETATM   10  C   UNL     1      29.777  37.157  51.089  1.00  0.00     0.072 C 
HETATM   11  N   UNL     1      29.305  37.503  48.675  1.00  0.00    -0.280 N 
HETATM   12  H   UNL     1      29.617  36.595  48.346  1.00  0.00     0.189 HD
HETATM   13  N   UNL     1      28.837  38.368  47.774  1.00  0.00    -0.177 NA
HETATM   14  C   UNL     1      28.518  39.458  48.490  1.00  0.00     0.079 A 
HETATM   15  C   UNL     1      27.949  40.621  47.766  1.00  0.00     0.075 C 
ENDBRANCH   5   8
ENDBRANCH   3   4
ENDBRANCH   1   3
BRANCH   1  16
HETATM   16  C   UNL     1      28.079  43.816  52.673  1.00  0.00     0.250 C 
HETATM   17  C   UNL     1      29.514  43.275  52.707  1.00  0.00     0.048 C 
BRANCH  16  18
HETATM   18  C   UNL     1      27.904  44.932  53.698  1.00  0.00    -0.011 A 
HETATM   19  C   UNL     1      26.909  45.940  53.642  1.00  0.00     0.056 A 
HETATM   20  C   UNL     1      26.879  46.915  54.666  1.00  0.00     0.017 A 
HETATM   21  C   UNL     1      27.781  46.890  55.730  1.00  0.00     0.001 A 
HETATM   22  C   UNL     1      28.741  45.893  55.793  1.00  0.00     0.001 A 
HETATM   23  C   UNL     1      28.801  44.926  54.790  1.00  0.00     0.010 A 
BRANCH  19  24
HETATM   24  C   UNL     1      25.896  46.083  52.518  1.00  0.00     0.418 C 
HETATM   25  F   UNL     1      26.411  46.018  51.263  1.00  0.00    -0.166 F 
HETATM   26  F   UNL     1      24.954  45.087  52.548  1.00  0.00    -0.166 F 
HETATM   27  F   UNL     1      25.171  47.236  52.600  1.00  0.00    -0.166 F 
ENDBRANCH  19  24
ENDBRANCH  16  18
ENDBRANCH   1  16
TORSDOF 6
ENDMDL
MODEL 10
REMARK VINA RESULT:      -7.5      2.388      3.770
REMARK  6 active torsions:
REMARK  status: ('A' for Active; 'I' for Inactive)
REMARK    1  A    between atoms: C_8  and  N_9 
REMARK       I    between atoms: N_9  and  C_10 
REMARK    2  A    between atoms: C_10  and  C_11 
REMARK    3  A    between atoms: C_11  and  N_12 
REMARK    4  A    between atoms: N_12  and  C_13 
REMARK    5  A    between atoms: C_13  and  C_14 
REMARK    6  A    between atoms: C_15  and  C_16 
ROOT
HETATM    1  N   UNL     1      26.203  45.847  53.961  1.00  0.00     0.100 N 
HETATM    2  H   UNL     1      25.219  45.679  54.195  1.00  0.00     0.317 HD
ENDROOT
BRANCH   1   3
HETATM    3  C   UNL     1      26.229  46.322  52.563  1.00  0.00     0.372 C 
BRANCH   3   4
HETATM    4  C   UNL     1      25.058  45.772  51.731  1.00  0.00     0.250 C 
HETATM    5  N   UNL     1      24.965  46.396  50.503  1.00  0.00    -0.322 N 
HETATM    6  H   UNL     1      25.620  47.142  50.311  1.00  0.00     0.169 HD
HETATM    7  O   UNL     1      24.321  44.895  52.172  1.00  0.00    -0.271 OA
BRANCH   5   8
HETATM    8  C   UNL     1      24.057  46.138  49.489  1.00  0.00     0.085 A 
HETATM    9  C   UNL     1      23.229  47.133  49.000  1.00  0.00     0.052 A 
HETATM   10  C   UNL     1      23.062  48.563  49.351  1.00  0.00     0.072 C 
HETATM   11  N   UNL     1      22.472  46.545  48.028  1.00  0.00    -0.280 N 
HETATM   12  H   UNL     1      21.748  46.967  47.454  1.00  0.00     0.189 HD
HETATM   13  N   UNL     1      22.749  45.254  47.836  1.00  0.00    -0.177 NA
HETATM   14  C   UNL     1      23.717  44.983  48.724  1.00  0.00     0.079 A 
HETATM   15  C   UNL     1      24.262  43.603  48.758  1.00  0.00     0.075 C 
ENDBRANCH   5   8
ENDBRANCH   3   4
ENDBRANCH   1   3
BRANCH   1  16
HETATM   16  C   UNL     1      26.932  44.593  54.176  1.00  0.00     0.250 C 
HETATM   17  C   UNL     1      26.032  43.567  54.875  1.00  0.00     0.048 C 
BRANCH  16  18
HETATM   18  C   UNL     1      28.248  44.755  54.932  1.00  0.00    -0.011 A 
HETATM   19  C   UNL     1      29.426  44.007  54.684  1.00  0.00     0.056 A 
HETATM   20  C   UNL     1      30.568  44.266  55.477  1.00  0.00     0.017 A 
HETATM   21  C   UNL     1      30.565  45.248  56.468  1.00  0.00     0.001 A 
HETATM   22  C   UNL     1      29.418  45.990  56.696  1.00  0.00     0.001 A 
HETATM   23  C   UNL     1      28.274  45.747  55.938  1.00  0.00     0.010 A 
BRANCH  19  24
HETATM   24  C   UNL     1      29.535  42.895  53.653  1.00  0.00     0.418 C 
HETATM   25  F   UNL     1      29.088  43.212  52.410  1.00  0.00    -0.166 F 
HETATM   26  F   UNL     1      30.836  42.509  53.454  1.00  0.00    -0.166 F 
HETATM   27  F   UNL     1      28.897  41.752  54.035  1.00  0.00    -0.166 F 
ENDBRANCH  19  24
ENDBRANCH  16  18
ENDBRANCH   1  16
TORSDOF 6
ENDMDL
