MODEL 1
REMARK VINA RESULT:      -8.3      0.000      0.000
REMARK  6 active torsions:
REMARK  status: ('A' for Active; 'I' for Inactive)
REMARK    1  A    between atoms: C_2  and  O_3 
REMARK    2  A    between atoms: O_3  and  C_4 
REMARK    3  A    between atoms: C_4  and  C_5 
REMARK    4  A    between atoms: C_6  and  O_7 
REMARK    5  A    between atoms: C_12  and  O_13 
REMARK    6  A    between atoms: C_17  and  C_18 
ROOT
HETATM    1  C   UNL     1      26.386  44.808  51.540  1.00  0.00     0.133 C 
HETATM    2  C   UNL     1      25.200  43.794  51.647  1.00  0.00     0.073 C 
HETATM    3  C   UNL     1      23.948  44.265  50.888  1.00  0.00     0.047 C 
HETATM    4  C   UNL     1      25.557  42.351  51.189  1.00  0.00     0.097 C 
HETATM    5  C   UNL     1      26.923  41.991  51.641  1.00  0.00     0.042 A 
HETATM    6  C   UNL     1      27.924  42.848  52.045  1.00  0.00     0.030 A 
HETATM    7  C   UNL     1      28.993  41.984  52.327  1.00  0.00     0.190 A 
HETATM    8  N   UNL     1      28.713  40.703  52.120  1.00  0.00    -0.149 NA
HETATM    9  N   UNL     1      27.432  40.726  51.718  1.00  0.00    -0.279 N 
HETATM   10  H   UNL     1      26.977  39.843  51.507  1.00  0.00     0.189 HD
HETATM   11  C   UNL     1      27.770  44.331  52.073  1.00  0.00     0.074 C 
ENDROOT
BRANCH  11  12
HETATM   12  C   UNL     1      28.070  44.789  53.497  1.00  0.00    -0.048 A 
HETATM   13  C   UNL     1      27.267  45.796  54.067  1.00  0.00     0.009 A 
HETATM   14  C   UNL     1      27.500  46.248  55.369  1.00  0.00     0.024 A 
HETATM   15  C   UNL     1      28.530  45.693  56.121  1.00  0.00     0.034 A 
HETATM   16 CL   UNL     1      28.816  46.250  57.723  1.00  0.00    -0.084 Cl
HETATM   17  C   UNL     1      29.330  44.690  55.583  1.00  0.00     0.024 A 
HETATM   18  C   UNL     1      29.100  44.240  54.280  1.00  0.00     0.009 A 
ENDBRANCH  11  12
BRANCH   1  19
HETATM   19  C   UNL     1      26.553  45.293  50.113  1.00  0.00     0.267 C 
HETATM   20  O   UNL     1      27.271  44.729  49.299  1.00  0.00    -0.265 OA
BRANCH  19  21
HETATM   21  O   UNL     1      25.841  46.424  49.869  1.00  0.00    -0.321 OA
BRANCH  21  22
HETATM   22  C   UNL     1      26.341  47.629  50.468  1.00  0.00     0.174 C 
HETATM   23  C   UNL     1      27.122  48.441  49.450  1.00  0.00     0.034 C 
ENDBRANCH  21  22
ENDBRANCH  19  21
ENDBRANCH   1  19
BRANCH   2  24
HETATM   24  O   UNL     1      24.792  43.712  53.029  1.00  0.00    -0.389 OA
HETATM   25  H   UNL     1      25.505  44.074  53.584  1.00  0.00     0.210 HD
ENDBRANCH   2  24
BRANCH   7  26
HETATM   26  O   UNL     1      30.219  42.262  52.773  1.00  0.00    -0.343 OA
HETATM   27  H   UNL     1      30.164  42.582  53.686  1.00  0.00     0.219 HD
ENDBRANCH   7  26
TORSDOF 6
ENDMDL
MODEL 2
REMARK VINA RESULT:      -7.8      3.133      5.636
REMARK  6 active torsions:
REMARK  status: ('A' for Active; 'I' for Inactive)
REMARK    1  A    between atoms: C_2  and  O_3 
REMARK    2  A    between atoms: O_3  and  C_4 
REMARK    3  A    between atoms: C_4  and  C_5 
REMARK    4  A    between atoms: C_6  and  O_7 
REMARK    5  A    between atoms: C_12  and  O_13 
REMARK    6  A    between atoms: C_17  and  C_18 
ROOT
HETATM    1  C   UNL     1      25.979  45.336  52.580  1.00  0.00     0.133 C 
HETATM    2  C   UNL     1      26.891  44.129  52.180  1.00  0.00     0.073 C 
HETATM    3  C   UNL     1      27.851  43.715  53.307  1.00  0.00     0.047 C 
HETATM    4  C   UNL     1      26.107  42.876  51.696  1.00  0.00     0.097 C 
HETATM    5  C   UNL     1      24.954  43.283  50.855  1.00  0.00     0.042 A 
HETATM    6  C   UNL     1      24.364  44.527  50.791  1.00  0.00     0.030 A 
HETATM    7  C   UNL     1      23.318  44.339  49.875  1.00  0.00     0.190 A 
HETATM    8  N   UNL     1      23.236  43.101  49.403  1.00  0.00    -0.149 NA
HETATM    9  N   UNL     1      24.262  42.473  50.002  1.00  0.00    -0.279 N 
HETATM   10  H   UNL     1      24.420  41.494  49.786  1.00  0.00     0.189 HD
HETATM   11  C   UNL     1      24.816  45.691  51.606  1.00  0.00     0.074 C 
ENDROOT
BRANCH  11  12
HETATM   12  C   UNL     1      25.151  46.819  50.635  1.00  0.00    -0.048 A 
HETATM   13  C   UNL     1      24.099  47.593  50.109  1.00  0.00     0.009 A 
HETATM   14  C   UNL     1      24.354  48.639  49.217  1.00  0.00     0.024 A 
HETATM   15  C   UNL     1      25.664  48.931  48.848  1.00  0.00     0.034 A 
HETATM   16 CL   UNL     1      25.977  50.218  47.751  1.00  0.00    -0.084 Cl
HETATM   17  C   UNL     1      26.720  48.186  49.363  1.00  0.00     0.024 A 
HETATM   18  C   UNL     1      26.465  47.138  50.252  1.00  0.00     0.009 A 
ENDBRANCH  11  12
BRANCH   1  19
HETATM   19  C   UNL     1      25.410  45.144  53.972  1.00  0.00     0.267 C 
HETATM   20  O   UNL     1      24.644  44.233  54.257  1.00  0.00    -0.265 OA
BRANCH  19  21
HETATM   21  O   UNL     1      25.828  46.106  54.834  1.00  0.00    -0.321 OA
BRANCH  21  22
HETATM   22  C   UNL     1      26.353  47.304  54.243  1.00  0.00     0.174 C 
HETATM   23  C   UNL     1      27.709  47.636  54.838  1.00  0.00     0.034 C 
ENDBRANCH  21  22
ENDBRANCH  19  21
ENDBRANCH   1  19
BRANCH   2  24
HETATM   24  O   UNL     1      27.745  44.542  51.093  1.00  0.00    -0.389 OA
HETATM   25  H   UNL     1      27.287  44.362  50.253  1.00  0.00     0.210 HD
ENDBRANCH   2  24
BRANCH   7  26
HETATM   26  O   UNL     1      22.419  45.212  49.416  1.00  0.00    -0.343 OA
HETATM   27  H   UNL     1      22.275  45.904  50.079  1.00  0.00     0.219 HD
ENDBRANCH   7  26
TORSDOF 6
ENDMDL
MODEL 3
REMARK VINA RESULT:      -7.8     12.863     14.841
REMARK  6 active torsions:
REMARK  status: ('A' for Active; 'I' for Inactive)
REMARK    1  A    between atoms: C_2  and  O_3 
REMARK    2  A    between atoms: O_3  and  C_4 
REMARK    3  A    between atoms: C_4  and  C_5 
REMARK    4  A    between atoms: C_6  and  O_7 
REMARK    5  A    between atoms: C_12  and  O_13 
REMARK    6  A    between atoms: C_17  and  C_18 
ROOT
HETATM    1  C   UNL     1      32.143  50.808  40.955  1.00  0.00     0.133 C 
HETATM    2  C   UNL     1      32.038  51.147  42.478  1.00  0.00     0.073 C 
HETATM    3  C   UNL     1      33.408  51.433  43.116  1.00  0.00     0.047 C 
HETATM    4  C   UNL     1      31.073  52.323  42.801  1.00  0.00     0.097 C 
HETATM    5  C   UNL     1      29.865  52.248  41.942  1.00  0.00     0.042 A 
HETATM    6  C   UNL     1      29.717  51.543  40.768  1.00  0.00     0.030 A 
HETATM    7  C   UNL     1      28.406  51.850  40.372  1.00  0.00     0.190 A 
HETATM    8  N   UNL     1      27.776  52.674  41.201  1.00  0.00    -0.149 NA
HETATM    9  N   UNL     1      28.683  52.891  42.170  1.00  0.00    -0.279 N 
HETATM   10  H   UNL     1      28.424  53.494  42.944  1.00  0.00     0.189 HD
HETATM   11  C   UNL     1      30.806  50.727  40.159  1.00  0.00     0.074 C 
ENDROOT
BRANCH  11  12
HETATM   12  C   UNL     1      30.271  49.307  40.000  1.00  0.00    -0.048 A 
HETATM   13  C   UNL     1      30.678  48.553  38.882  1.00  0.00     0.009 A 
HETATM   14  C   UNL     1      30.218  47.246  38.693  1.00  0.00     0.024 A 
HETATM   15  C   UNL     1      29.355  46.674  39.622  1.00  0.00     0.034 A 
HETATM   16 CL   UNL     1      28.789  45.067  39.389  1.00  0.00    -0.084 Cl
HETATM   17  C   UNL     1      28.948  47.396  40.739  1.00  0.00     0.024 A 
HETATM   18  C   UNL     1      29.405  48.704  40.927  1.00  0.00     0.009 A 
ENDBRANCH  11  12
BRANCH   1  19
HETATM   19  C   UNL     1      33.074  51.776  40.250  1.00  0.00     0.267 C 
HETATM   20  O   UNL     1      32.862  52.980  40.194  1.00  0.00    -0.265 OA
BRANCH  19  21
HETATM   21  O   UNL     1      34.132  51.146  39.679  1.00  0.00    -0.321 OA
BRANCH  21  22
HETATM   22  C   UNL     1      35.432  51.650  40.023  1.00  0.00     0.174 C 
HETATM   23  C   UNL     1      36.278  50.551  40.641  1.00  0.00     0.034 C 
ENDBRANCH  21  22
ENDBRANCH  19  21
ENDBRANCH   1  19
BRANCH   2  24
HETATM   24  O   UNL     1      31.537  49.984  43.172  1.00  0.00    -0.389 OA
HETATM   25  H   UNL     1      31.854  49.188  42.710  1.00  0.00     0.210 HD
ENDBRANCH   2  24
BRANCH   7  26
HETATM   26  O   UNL     1      27.716  51.433  39.309  1.00  0.00    -0.343 OA
HETATM   27  H   UNL     1      26.782  51.339  39.550  1.00  0.00     0.219 HD
ENDBRANCH   7  26
TORSDOF 6
ENDMDL
MODEL 4
REMARK VINA RESULT:      -7.5     13.301     15.070
REMARK  6 active torsions:
REMARK  status: ('A' for Active; 'I' for Inactive)
REMARK    1  A    between atoms: C_2  and  O_3 
REMARK    2  A    between atoms: O_3  and  C_4 
REMARK    3  A    between atoms: C_4  and  C_5 
REMARK    4  A    between atoms: C_6  and  O_7 
REMARK    5  A    between atoms: C_12  and  O_13 
REMARK    6  A    between atoms: C_17  and  C_18 
ROOT
HETATM    1  C   UNL     1      31.358  51.855  39.442  1.00  0.00     0.133 C 
HETATM    2  C   UNL     1      30.456  52.377  40.609  1.00  0.00     0.073 C 
HETATM    3  C   UNL     1      29.328  53.299  40.119  1.00  0.00     0.047 C 
HETATM    4  C   UNL     1      29.843  51.249  41.488  1.00  0.00     0.097 C 
HETATM    5  C   UNL     1      30.835  50.168  41.704  1.00  0.00     0.042 A 
HETATM    6  C   UNL     1      31.975  49.920  40.970  1.00  0.00     0.030 A 
HETATM    7  C   UNL     1      32.511  48.778  41.584  1.00  0.00     0.190 A 
HETATM    8  N   UNL     1      31.788  48.331  42.603  1.00  0.00    -0.149 NA
HETATM    9  N   UNL     1      30.773  49.209  42.673  1.00  0.00    -0.279 N 
HETATM   10  H   UNL     1      30.077  49.083  43.401  1.00  0.00     0.189 HD
HETATM   11  C   UNL     1      32.385  50.737  39.792  1.00  0.00     0.074 C 
ENDROOT
BRANCH  11  12
HETATM   12  C   UNL     1      33.790  51.261  40.072  1.00  0.00    -0.048 A 
HETATM   13  C   UNL     1      34.626  51.570  38.982  1.00  0.00     0.009 A 
HETATM   14  C   UNL     1      35.921  52.055  39.186  1.00  0.00     0.024 A 
HETATM   15  C   UNL     1      36.393  52.246  40.481  1.00  0.00     0.034 A 
HETATM   16 CL   UNL     1      37.987  52.842  40.731  1.00  0.00    -0.084 Cl
HETATM   17  C   UNL     1      35.582  51.957  41.573  1.00  0.00     0.024 A 
HETATM   18  C   UNL     1      34.288  51.468  41.369  1.00  0.00     0.009 A 
ENDBRANCH  11  12
BRANCH   1  19
HETATM   19  C   UNL     1      30.511  51.393  38.272  1.00  0.00     0.267 C 
HETATM   20  O   UNL     1      30.011  52.167  37.467  1.00  0.00    -0.265 OA
BRANCH  19  21
HETATM   21  O   UNL     1      30.358  50.044  38.251  1.00  0.00    -0.321 OA
BRANCH  21  22
HETATM   22  C   UNL     1      29.032  49.551  38.496  1.00  0.00     0.174 C 
HETATM   23  C   UNL     1      29.090  48.158  39.097  1.00  0.00     0.034 C 
ENDBRANCH  21  22
ENDBRANCH  19  21
ENDBRANCH   1  19
BRANCH   2  24
HETATM   24  O   UNL     1      31.263  53.201  41.477  1.00  0.00    -0.389 OA
HETATM   25  H   UNL     1      31.033  54.134  41.320  1.00  0.00     0.210 HD
ENDBRANCH   2  24
BRANCH   7  26
HETATM   26  O   UNL     1      33.624  48.100  41.300  1.00  0.00    -0.343 OA
HETATM   27  H   UNL     1      33.892  47.583  42.075  1.00  0.00     0.219 HD
ENDBRANCH   7  26
TORSDOF 6
ENDMDL
MODEL 5
REMARK VINA RESULT:      -7.5      3.689      6.205
REMARK  6 active torsions:
REMARK  status: ('A' for Active; 'I' for Inactive)
REMARK    1  A    between atoms: C_2  and  O_3 
REMARK    2  A    between atoms: O_3  and  C_4 
REMARK    3  A    between atoms: C_4  and  C_5 
REMARK    4  A    between atoms: C_6  and  O_7 
REMARK    5  A    between atoms: C_12  and  O_13 
REMARK    6  A    between atoms: C_17  and  C_18 
ROOT
HETATM    1  C   UNL     1      26.911  43.474  53.078  1.00  0.00     0.133 C 
HETATM    2  C   UNL     1      25.816  44.073  54.022  1.00  0.00     0.073 C 
HETATM    3  C   UNL     1      25.960  43.591  55.475  1.00  0.00     0.047 C 
HETATM    4  C   UNL     1      25.749  45.626  54.007  1.00  0.00     0.097 C 
HETATM    5  C   UNL     1      25.941  46.137  52.627  1.00  0.00     0.042 A 
HETATM    6  C   UNL     1      26.489  45.465  51.556  1.00  0.00     0.030 A 
HETATM    7  C   UNL     1      26.454  46.418  50.527  1.00  0.00     0.190 A 
HETATM    8  N   UNL     1      25.943  47.586  50.897  1.00  0.00    -0.149 NA
HETATM    9  N   UNL     1      25.616  47.387  52.186  1.00  0.00    -0.279 N 
HETATM   10  H   UNL     1      25.184  48.150  52.696  1.00  0.00     0.189 HD
HETATM   11  C   UNL     1      27.002  44.068  51.640  1.00  0.00     0.074 C 
ENDROOT
BRANCH  11  12
HETATM   12  C   UNL     1      26.258  43.249  50.590  1.00  0.00    -0.048 A 
HETATM   13  C   UNL     1      27.006  42.516  49.649  1.00  0.00     0.009 A 
HETATM   14  C   UNL     1      26.371  41.749  48.668  1.00  0.00     0.024 A 
HETATM   15  C   UNL     1      24.982  41.697  48.621  1.00  0.00     0.034 A 
HETATM   16 CL   UNL     1      24.201  40.753  47.414  1.00  0.00    -0.084 Cl
HETATM   17  C   UNL     1      24.222  42.405  49.546  1.00  0.00     0.024 A 
HETATM   18  C   UNL     1      24.856  43.175  50.525  1.00  0.00     0.009 A 
ENDBRANCH  11  12
BRANCH   1  19
HETATM   19  C   UNL     1      28.280  43.548  53.725  1.00  0.00     0.267 C 
HETATM   20  O   UNL     1      28.879  44.601  53.893  1.00  0.00    -0.265 OA
BRANCH  19  21
HETATM   21  O   UNL     1      28.756  42.321  54.061  1.00  0.00    -0.321 OA
BRANCH  21  22
HETATM   22  C   UNL     1      28.107  41.198  53.445  1.00  0.00     0.174 C 
HETATM   23  C   UNL     1      28.956  40.656  52.309  1.00  0.00     0.034 C 
ENDBRANCH  21  22
ENDBRANCH  19  21
ENDBRANCH   1  19
BRANCH   2  24
HETATM   24  O   UNL     1      24.527  43.587  53.592  1.00  0.00    -0.389 OA
HETATM   25  H   UNL     1      23.937  44.350  53.458  1.00  0.00     0.210 HD
ENDBRANCH   2  24
BRANCH   7  26
HETATM   26  O   UNL     1      26.844  46.316  49.255  1.00  0.00    -0.343 OA
HETATM   27  H   UNL     1      26.358  46.959  48.718  1.00  0.00     0.219 HD
ENDBRANCH   7  26
TORSDOF 6
ENDMDL
MODEL 6
REMARK VINA RESULT:      -7.5     15.329     16.890
REMARK  6 active torsions:
REMARK  status: ('A' for Active; 'I' for Inactive)
REMARK    1  A    between atoms: C_2  and  O_3 
REMARK    2  A    between atoms: O_3  and  C_4 
REMARK    3  A    between atoms: C_4  and  C_5 
REMARK    4  A    between atoms: C_6  and  O_7 
REMARK    5  A    between atoms: C_12  and  O_13 
REMARK    6  A    between atoms: C_17  and  C_18 
ROOT
HETATM    1  C   UNL     1      37.152  45.735  65.828  1.00  0.00     0.133 C 
HETATM    2  C   UNL     1      37.364  45.647  67.375  1.00  0.00     0.073 C 
HETATM    3  C   UNL     1      38.066  46.890  67.947  1.00  0.00     0.047 C 
HETATM    4  C   UNL     1      36.059  45.387  68.179  1.00  0.00     0.097 C 
HETATM    5  C   UNL     1      35.198  44.414  67.462  1.00  0.00     0.042 A 
HETATM    6  C   UNL     1      35.264  44.061  66.132  1.00  0.00     0.030 A 
HETATM    7  C   UNL     1      34.212  43.143  65.991  1.00  0.00     0.190 A 
HETATM    8  N   UNL     1      33.532  42.933  67.111  1.00  0.00    -0.149 NA
HETATM    9  N   UNL     1      34.165  43.708  68.008  1.00  0.00    -0.279 N 
HETATM   10  H   UNL     1      33.830  43.707  68.966  1.00  0.00     0.189 HD
HETATM   11  C   UNL     1      36.251  44.642  65.178  1.00  0.00     0.074 C 
ENDROOT
BRANCH  11  12
HETATM   12  C   UNL     1      37.034  43.481  64.573  1.00  0.00    -0.048 A 
HETATM   13  C   UNL     1      37.544  43.616  63.268  1.00  0.00     0.009 A 
HETATM   14  C   UNL     1      38.269  42.581  62.670  1.00  0.00     0.024 A 
HETATM   15  C   UNL     1      38.503  41.404  63.373  1.00  0.00     0.034 A 
HETATM   16 CL   UNL     1      39.396  40.131  62.638  1.00  0.00    -0.084 Cl
HETATM   17  C   UNL     1      38.017  41.251  64.668  1.00  0.00     0.024 A 
HETATM   18  C   UNL     1      37.288  42.284  65.264  1.00  0.00     0.009 A 
ENDBRANCH  11  12
BRANCH   1  19
HETATM   19  C   UNL     1      36.626  47.101  65.432  1.00  0.00     0.267 C 
HETATM   20  O   UNL     1      35.565  47.550  65.846  1.00  0.00    -0.265 OA
BRANCH  19  21
HETATM   21  O   UNL     1      37.451  47.736  64.560  1.00  0.00    -0.321 OA
BRANCH  21  22
HETATM   22  C   UNL     1      37.818  49.082  64.898  1.00  0.00     0.174 C 
HETATM   23  C   UNL     1      39.312  49.282  64.721  1.00  0.00     0.034 C 
ENDBRANCH  21  22
ENDBRANCH  19  21
ENDBRANCH   1  19
BRANCH   2  24
HETATM   24  O   UNL     1      38.260  44.550  67.652  1.00  0.00    -0.389 OA
HETATM   25  H   UNL     1      38.219  43.921  66.910  1.00  0.00     0.210 HD
ENDBRANCH   2  24
BRANCH   7  26
HETATM   26  O   UNL     1      33.813  42.462  64.915  1.00  0.00    -0.343 OA
HETATM   27  H   UNL     1      32.863  42.598  64.783  1.00  0.00     0.219 HD
ENDBRANCH   7  26
TORSDOF 6
ENDMDL
MODEL 7
REMARK VINA RESULT:      -7.5     10.038     12.426
REMARK  6 active torsions:
REMARK  status: ('A' for Active; 'I' for Inactive)
REMARK    1  A    between atoms: C_2  and  O_3 
REMARK    2  A    between atoms: O_3  and  C_4 
REMARK    3  A    between atoms: C_4  and  C_5 
REMARK    4  A    between atoms: C_6  and  O_7 
REMARK    5  A    between atoms: C_12  and  O_13 
REMARK    6  A    between atoms: C_17  and  C_18 
ROOT
HETATM    1  C   UNL     1      18.347  49.983  48.715  1.00  0.00     0.133 C 
HETATM    2  C   UNL     1      19.817  50.157  48.211  1.00  0.00     0.073 C 
HETATM    3  C   UNL     1      20.424  51.512  48.610  1.00  0.00     0.047 C 
HETATM    4  C   UNL     1      20.779  49.019  48.657  1.00  0.00     0.097 C 
HETATM    5  C   UNL     1      20.091  47.707  48.590  1.00  0.00     0.042 A 
HETATM    6  C   UNL     1      18.733  47.476  48.544  1.00  0.00     0.030 A 
HETATM    7  C   UNL     1      18.645  46.076  48.522  1.00  0.00     0.190 A 
HETATM    8  N   UNL     1      19.824  45.466  48.558  1.00  0.00    -0.149 NA
HETATM    9  N   UNL     1      20.700  46.485  48.580  1.00  0.00    -0.279 N 
HETATM   10  H   UNL     1      21.691  46.268  48.596  1.00  0.00     0.189 HD
HETATM   11  C   UNL     1      17.715  48.566  48.568  1.00  0.00     0.074 C 
ENDROOT
BRANCH  11  12
HETATM   12  C   UNL     1      16.852  48.406  47.320  1.00  0.00    -0.048 A 
HETATM   13  C   UNL     1      15.468  48.643  47.421  1.00  0.00     0.009 A 
HETATM   14  C   UNL     1      14.634  48.511  46.306  1.00  0.00     0.024 A 
HETATM   15  C   UNL     1      15.175  48.151  45.076  1.00  0.00     0.034 A 
HETATM   16 CL   UNL     1      14.149  47.990  43.705  1.00  0.00    -0.084 Cl
HETATM   17  C   UNL     1      16.541  47.922  44.950  1.00  0.00     0.024 A 
HETATM   18  C   UNL     1      17.374  48.050  46.065  1.00  0.00     0.009 A 
ENDBRANCH  11  12
BRANCH   1  19
HETATM   19  C   UNL     1      18.216  50.429  50.159  1.00  0.00     0.267 C 
HETATM   20  O   UNL     1      18.637  49.767  51.099  1.00  0.00    -0.265 OA
BRANCH  19  21
HETATM   21  O   UNL     1      17.564  51.614  50.273  1.00  0.00    -0.321 OA
BRANCH  21  22
HETATM   22  C   UNL     1      16.784  52.021  49.138  1.00  0.00     0.174 C 
HETATM   23  C   UNL     1      15.312  52.085  49.504  1.00  0.00     0.034 C 
ENDBRANCH  21  22
ENDBRANCH  19  21
ENDBRANCH   1  19
BRANCH   2  24
HETATM   24  O   UNL     1      19.807  50.162  46.767  1.00  0.00    -0.389 OA
HETATM   25  H   UNL     1      20.334  49.407  46.451  1.00  0.00     0.210 HD
ENDBRANCH   2  24
BRANCH   7  26
HETATM   26  O   UNL     1      17.569  45.289  48.462  1.00  0.00    -0.343 OA
HETATM   27  H   UNL     1      16.772  45.828  48.566  1.00  0.00     0.219 HD
ENDBRANCH   7  26
TORSDOF 6
ENDMDL
MODEL 8
REMARK VINA RESULT:      -7.3     15.461     17.349
REMARK  6 active torsions:
REMARK  status: ('A' for Active; 'I' for Inactive)
REMARK    1  A    between atoms: C_2  and  O_3 
REMARK    2  A    between atoms: O_3  and  C_4 
REMARK    3  A    between atoms: C_4  and  C_5 
REMARK    4  A    between atoms: C_6  and  O_7 
REMARK    5  A    between atoms: C_12  and  O_13 
REMARK    6  A    between atoms: C_17  and  C_18 
ROOT
HETATM    1  C   UNL     1      39.144  44.453  64.842  1.00  0.00     0.133 C 
HETATM    2  C   UNL     1      38.522  43.931  63.504  1.00  0.00     0.073 C 
HETATM    3  C   UNL     1      39.546  43.198  62.622  1.00  0.00     0.047 C 
HETATM    4  C   UNL     1      37.275  43.022  63.697  1.00  0.00     0.097 C 
HETATM    5  C   UNL     1      36.422  43.544  64.793  1.00  0.00     0.042 A 
HETATM    6  C   UNL     1      36.783  44.429  65.785  1.00  0.00     0.030 A 
HETATM    7  C   UNL     1      35.615  44.546  66.552  1.00  0.00     0.190 A 
HETATM    8  N   UNL     1      34.606  43.807  66.107  1.00  0.00    -0.149 NA
HETATM    9  N   UNL     1      35.116  43.213  65.014  1.00  0.00    -0.279 N 
HETATM   10  H   UNL     1      34.516  42.594  64.478  1.00  0.00     0.189 HD
HETATM   11  C   UNL     1      38.153  45.006  65.909  1.00  0.00     0.074 C 
ENDROOT
BRANCH  11  12
HETATM   12  C   UNL     1      38.008  46.524  65.884  1.00  0.00    -0.048 A 
HETATM   13  C   UNL     1      38.689  47.284  66.854  1.00  0.00     0.009 A 
HETATM   14  C   UNL     1      38.590  48.679  66.872  1.00  0.00     0.024 A 
HETATM   15  C   UNL     1      37.818  49.331  65.915  1.00  0.00     0.034 A 
HETATM   16 CL   UNL     1      37.696  51.046  65.938  1.00  0.00    -0.084 Cl
HETATM   17  C   UNL     1      37.144  48.601  64.941  1.00  0.00     0.024 A 
HETATM   18  C   UNL     1      37.240  47.206  64.925  1.00  0.00     0.009 A 
ENDBRANCH  11  12
BRANCH   1  19
HETATM   19  C   UNL     1      40.010  43.387  65.484  1.00  0.00     0.267 C 
HETATM   20  O   UNL     1      39.547  42.402  66.043  1.00  0.00    -0.265 OA
BRANCH  19  21
HETATM   21  O   UNL     1      41.334  43.675  65.386  1.00  0.00    -0.321 OA
BRANCH  21  22
HETATM   22  C   UNL     1      41.667  45.044  65.110  1.00  0.00     0.174 C 
HETATM   23  C   UNL     1      42.571  45.132  63.893  1.00  0.00     0.034 C 
ENDBRANCH  21  22
ENDBRANCH  19  21
ENDBRANCH   1  19
BRANCH   2  24
HETATM   24  O   UNL     1      38.101  45.069  62.722  1.00  0.00    -0.389 OA
HETATM   25  H   UNL     1      37.129  45.122  62.750  1.00  0.00     0.210 HD
ENDBRANCH   2  24
BRANCH   7  26
HETATM   26  O   UNL     1      35.377  45.285  67.637  1.00  0.00    -0.343 OA
HETATM   27  H   UNL     1      36.076  45.949  67.733  1.00  0.00     0.219 HD
ENDBRANCH   7  26
TORSDOF 6
ENDMDL
MODEL 9
REMARK VINA RESULT:      -7.2      3.597      5.780
REMARK  6 active torsions:
REMARK  status: ('A' for Active; 'I' for Inactive)
REMARK    1  A    between atoms: C_2  and  O_3 
REMARK    2  A    between atoms: O_3  and  C_4 
REMARK    3  A    between atoms: C_4  and  C_5 
REMARK    4  A    between atoms: C_6  and  O_7 
REMARK    5  A    between atoms: C_12  and  O_13 
REMARK    6  A    between atoms: C_17  and  C_18 
ROOT
HETATM    1  C   UNL     1      25.546  43.088  50.499  1.00  0.00     0.133 C 
HETATM    2  C   UNL     1      26.335  44.422  50.283  1.00  0.00     0.073 C 
HETATM    3  C   UNL     1      25.430  45.578  49.827  1.00  0.00     0.047 C 
HETATM    4  C   UNL     1      27.157  44.879  51.522  1.00  0.00     0.097 C 
HETATM    5  C   UNL     1      27.785  43.708  52.183  1.00  0.00     0.042 A 
HETATM    6  C   UNL     1      27.436  42.383  52.045  1.00  0.00     0.030 A 
HETATM    7  C   UNL     1      28.326  41.724  52.907  1.00  0.00     0.190 A 
HETATM    8  N   UNL     1      29.157  42.541  53.542  1.00  0.00    -0.149 NA
HETATM    9  N   UNL     1      28.822  43.754  53.069  1.00  0.00    -0.279 N 
HETATM   10  H   UNL     1      29.339  44.561  53.404  1.00  0.00     0.189 HD
HETATM   11  C   UNL     1      26.316  41.916  51.177  1.00  0.00     0.074 C 
ENDROOT
BRANCH  11  12
HETATM   12  C   UNL     1      26.899  40.911  50.189  1.00  0.00    -0.048 A 
HETATM   13  C   UNL     1      26.297  39.642  50.082  1.00  0.00     0.009 A 
HETATM   14  C   UNL     1      26.792  38.687  49.189  1.00  0.00     0.024 A 
HETATM   15  C   UNL     1      27.887  38.990  48.387  1.00  0.00     0.034 A 
HETATM   16 CL   UNL     1      28.495  37.815  47.289  1.00  0.00    -0.084 Cl
HETATM   17  C   UNL     1      28.491  40.241  48.468  1.00  0.00     0.024 A 
HETATM   18  C   UNL     1      27.999  41.195  49.363  1.00  0.00     0.009 A 
ENDBRANCH  11  12
BRANCH   1  19
HETATM   19  C   UNL     1      24.263  43.340  51.267  1.00  0.00     0.267 C 
HETATM   20  O   UNL     1      24.228  43.975  52.312  1.00  0.00    -0.265 OA
BRANCH  19  21
HETATM   21  O   UNL     1      23.188  42.760  50.675  1.00  0.00    -0.321 OA
BRANCH  21  22
HETATM   22  C   UNL     1      23.098  42.896  49.248  1.00  0.00     0.174 C 
HETATM   23  C   UNL     1      23.029  41.530  48.590  1.00  0.00     0.034 C 
ENDBRANCH  21  22
ENDBRANCH  19  21
ENDBRANCH   1  19
BRANCH   2  24
HETATM   24  O   UNL     1      27.270  44.229  49.200  1.00  0.00    -0.389 OA
HETATM   25  H   UNL     1      26.796  43.831  48.449  1.00  0.00     0.210 HD
ENDBRANCH   2  24
BRANCH   7  26
HETATM   26  O   UNL     1      28.457  40.422  53.166  1.00  0.00    -0.343 OA
HETATM   27  H   UNL     1      28.493  39.931  52.332  1.00  0.00     0.219 HD
ENDBRANCH   7  26
TORSDOF 6
ENDMDL
MODEL 10
REMARK VINA RESULT:      -7.1     13.301     14.916
REMARK  6 active torsions:
REMARK  status: ('A' for Active; 'I' for Inactive)
REMARK    1  A    between atoms: C_2  and  O_3 
REMARK    2  A    between atoms: O_3  and  C_4 
REMARK    3  A    between atoms: C_4  and  C_5 
REMARK    4  A    between atoms: C_6  and  O_7 
REMARK    5  A    between atoms: C_12  and  O_13 
REMARK    6  A    between atoms: C_17  and  C_18 
ROOT
HETATM    1  C   UNL     1      28.058  51.385  39.929  1.00  0.00     0.133 C 
HETATM    2  C   UNL     1      29.100  51.958  38.911  1.00  0.00     0.073 C 
HETATM    3  C   UNL     1      29.165  53.494  38.933  1.00  0.00     0.047 C 
HETATM    4  C   UNL     1      30.536  51.387  39.086  1.00  0.00     0.097 C 
HETATM    5  C   UNL     1      30.479  49.937  39.398  1.00  0.00     0.042 A 
HETATM    6  C   UNL     1      29.397  49.225  39.869  1.00  0.00     0.030 A 
HETATM    7  C   UNL     1      29.906  47.926  40.014  1.00  0.00     0.190 A 
HETATM    8  N   UNL     1      31.186  47.813  39.679  1.00  0.00    -0.149 NA
HETATM    9  N   UNL     1      31.514  49.055  39.285  1.00  0.00    -0.279 N 
HETATM   10  H   UNL     1      32.461  49.223  38.961  1.00  0.00     0.189 HD
HETATM   11  C   UNL     1      28.071  49.844  40.155  1.00  0.00     0.074 C 
ENDROOT
BRANCH  11  12
HETATM   12  C   UNL     1      27.034  49.093  39.327  1.00  0.00    -0.048 A 
HETATM   13  C   UNL     1      25.990  48.425  39.995  1.00  0.00     0.009 A 
HETATM   14  C   UNL     1      25.013  47.724  39.280  1.00  0.00     0.024 A 
HETATM   15  C   UNL     1      25.062  47.691  37.890  1.00  0.00     0.034 A 
HETATM   16 CL   UNL     1      23.861  46.830  37.012  1.00  0.00    -0.084 Cl
HETATM   17  C   UNL     1      26.078  48.353  37.208  1.00  0.00     0.024 A 
HETATM   18  C   UNL     1      27.057  49.050  37.922  1.00  0.00     0.009 A 
ENDBRANCH  11  12
BRANCH   1  19
HETATM   19  C   UNL     1      28.180  52.078  41.272  1.00  0.00     0.267 C 
HETATM   20  O   UNL     1      27.456  53.006  41.608  1.00  0.00    -0.265 OA
BRANCH  19  21
HETATM   21  O   UNL     1      29.189  51.568  42.023  1.00  0.00    -0.321 OA
BRANCH  21  22
HETATM   22  C   UNL     1      30.187  52.502  42.463  1.00  0.00     0.174 C 
HETATM   23  C   UNL     1      31.528  51.807  42.618  1.00  0.00     0.034 C 
ENDBRANCH  21  22
ENDBRANCH  19  21
ENDBRANCH   1  19
BRANCH   2  24
HETATM   24  O   UNL     1      28.668  51.621  37.576  1.00  0.00    -0.389 OA
HETATM   25  H   UNL     1      27.881  52.153  37.361  1.00  0.00     0.210 HD
ENDBRANCH   2  24
BRANCH   7  26
HETATM   26  O   UNL     1      29.297  46.812  40.423  1.00  0.00    -0.343 OA
HETATM   27  H   UNL     1      29.921  46.273  40.931  1.00  0.00     0.219 HD
ENDBRANCH   7  26
TORSDOF 6
ENDMDL
