MODEL 1
REMARK VINA RESULT:      -9.7      0.000      0.000
REMARK  5 active torsions:
REMARK  status: ('A' for Active; 'I' for Inactive)
REMARK    1  A    between atoms: C_2  and  O_3 
REMARK    2  A    between atoms: O_3  and  C_4 
REMARK    3  A    between atoms: C_5  and  C_6 
REMARK    4  A    between atoms: C_7  and  C_8 
REMARK       I    between atoms: C_8  and  N_9 
REMARK    5  A    between atoms: N_9  and  C_10 
ROOT
HETATM    1  C   UNL     1      26.495  45.353  52.427  1.00  0.00     0.041 C 
HETATM    2  C   UNL     1      26.737  45.812  53.673  1.00  0.00     0.099 C 
HETATM    3  C   UNL     1      26.186  47.144  54.157  1.00  0.00     0.025 C 
HETATM    4  N   UNL     1      25.730  48.248  54.559  1.00  0.00    -0.096 N 
ENDROOT
BRANCH   2   5
HETATM    5  C   UNL     1      27.540  44.948  54.610  1.00  0.00     0.265 C 
HETATM    6  N   UNL     1      28.831  45.385  54.857  1.00  0.00    -0.321 N 
HETATM    7  H   UNL     1      29.054  46.329  54.575  1.00  0.00     0.169 HD
HETATM    8  O   UNL     1      27.003  43.983  55.152  1.00  0.00    -0.267 OA
BRANCH   6   9
HETATM    9  C   UNL     1      29.756  44.817  55.777  1.00  0.00     0.047 A 
HETATM   10  C   UNL     1      29.931  45.263  57.105  1.00  0.00    -0.035 A 
HETATM   11  C   UNL     1      29.075  46.295  57.789  1.00  0.00     0.050 C 
HETATM   12  C   UNL     1      30.941  44.681  57.898  1.00  0.00     0.009 A 
HETATM   13  C   UNL     1      31.716  43.629  57.424  1.00  0.00     0.001 A 
HETATM   14  C   UNL     1      31.490  43.133  56.148  1.00  0.00     0.009 A 
HETATM   15  C   UNL     1      30.515  43.709  55.316  1.00  0.00    -0.035 A 
HETATM   16  C   UNL     1      30.352  43.132  53.932  1.00  0.00     0.050 C 
ENDBRANCH   6   9
ENDBRANCH   2   5
BRANCH   1  17
HETATM   17  C   UNL     1      25.625  45.932  51.372  1.00  0.00     0.002 A 
HETATM   18  C   UNL     1      24.479  45.196  50.945  1.00  0.00     0.079 A 
HETATM   19  C   UNL     1      23.619  45.705  49.960  1.00  0.00     0.047 A 
HETATM   20  C   UNL     1      23.873  46.966  49.460  1.00  0.00    -0.020 A 
HETATM   21  C   UNL     1      24.984  47.681  49.869  1.00  0.00     0.076 A 
HETATM   22  C   UNL     1      23.139  47.749  48.439  1.00  0.00     0.073 C 
HETATM   23  C   UNL     1      25.890  47.177  50.780  1.00  0.00     0.051 A 
HETATM   24  O   UNL     1      25.073  48.926  49.297  1.00  0.00    -0.345 OA
HETATM   25  C   UNL     1      23.767  49.128  48.694  1.00  0.00     0.129 C 
HETATM   26  C   UNL     1      22.918  49.996  49.626  1.00  0.00     0.040 C 
BRANCH  18  27
HETATM   27  O   UNL     1      24.289  43.970  51.538  1.00  0.00    -0.351 OA
BRANCH  27  28
HETATM   28  C   UNL     1      24.205  42.840  50.672  1.00  0.00     0.171 C 
HETATM   29  C   UNL     1      25.569  42.174  50.649  1.00  0.00     0.034 C 
ENDBRANCH  27  28
ENDBRANCH  18  27
ENDBRANCH   1  17
TORSDOF 5
ENDMDL
MODEL 2
REMARK VINA RESULT:      -9.1      3.482      9.528
REMARK  5 active torsions:
REMARK  status: ('A' for Active; 'I' for Inactive)
REMARK    1  A    between atoms: C_2  and  O_3 
REMARK    2  A    between atoms: O_3  and  C_4 
REMARK    3  A    between atoms: C_5  and  C_6 
REMARK    4  A    between atoms: C_7  and  C_8 
REMARK       I    between atoms: C_8  and  N_9 
REMARK    5  A    between atoms: N_9  and  C_10 
ROOT
HETATM    1  C   UNL     1      23.760  47.045  49.696  1.00  0.00     0.041 C 
HETATM    2  C   UNL     1      22.838  46.721  48.765  1.00  0.00     0.099 C 
HETATM    3  C   UNL     1      22.865  45.384  48.042  1.00  0.00     0.025 C 
HETATM    4  N   UNL     1      22.888  44.276  47.441  1.00  0.00    -0.096 N 
ENDROOT
BRANCH   2   5
HETATM    5  C   UNL     1      21.734  47.705  48.480  1.00  0.00     0.265 C 
HETATM    6  N   UNL     1      21.470  48.607  49.497  1.00  0.00    -0.321 N 
HETATM    7  H   UNL     1      22.156  48.677  50.235  1.00  0.00     0.169 HD
HETATM    8  O   UNL     1      21.201  47.711  47.372  1.00  0.00    -0.267 OA
BRANCH   6   9
HETATM    9  C   UNL     1      20.558  49.698  49.445  1.00  0.00     0.047 A 
HETATM   10  C   UNL     1      19.259  49.676  50.002  1.00  0.00    -0.035 A 
HETATM   11  C   UNL     1      18.704  48.565  50.852  1.00  0.00     0.050 C 
HETATM   12  C   UNL     1      18.412  50.786  49.812  1.00  0.00     0.009 A 
HETATM   13  C   UNL     1      18.852  51.928  49.153  1.00  0.00     0.001 A 
HETATM   14  C   UNL     1      20.154  51.986  48.677  1.00  0.00     0.009 A 
HETATM   15  C   UNL     1      21.019  50.886  48.818  1.00  0.00    -0.035 A 
HETATM   16  C   UNL     1      22.409  51.016  48.247  1.00  0.00     0.050 C 
ENDBRANCH   6   9
ENDBRANCH   2   5
BRANCH   1  17
HETATM   17  C   UNL     1      24.851  46.209  50.260  1.00  0.00     0.002 A 
HETATM   18  C   UNL     1      26.191  46.444  49.829  1.00  0.00     0.079 A 
HETATM   19  C   UNL     1      27.258  45.690  50.341  1.00  0.00     0.047 A 
HETATM   20  C   UNL     1      26.986  44.758  51.322  1.00  0.00    -0.020 A 
HETATM   21  C   UNL     1      25.689  44.525  51.740  1.00  0.00     0.076 A 
HETATM   22  C   UNL     1      27.902  43.842  52.041  1.00  0.00     0.073 C 
HETATM   23  C   UNL     1      24.610  45.197  51.202  1.00  0.00     0.051 A 
HETATM   24  O   UNL     1      25.597  43.589  52.740  1.00  0.00    -0.345 OA
HETATM   25  C   UNL     1      26.968  43.420  53.187  1.00  0.00     0.129 C 
HETATM   26  C   UNL     1      27.184  44.249  54.456  1.00  0.00     0.040 C 
BRANCH  18  27
HETATM   27  O   UNL     1      26.361  47.426  48.882  1.00  0.00    -0.351 OA
BRANCH  27  28
HETATM   28  C   UNL     1      27.205  48.522  49.233  1.00  0.00     0.171 C 
HETATM   29  C   UNL     1      26.699  49.749  48.496  1.00  0.00     0.034 C 
ENDBRANCH  27  28
ENDBRANCH  18  27
ENDBRANCH   1  17
TORSDOF 5
ENDMDL
MODEL 3
REMARK VINA RESULT:      -9.0      1.489      2.486
REMARK  5 active torsions:
REMARK  status: ('A' for Active; 'I' for Inactive)
REMARK    1  A    between atoms: C_2  and  O_3 
REMARK    2  A    between atoms: O_3  and  C_4 
REMARK    3  A    between atoms: C_5  and  C_6 
REMARK    4  A    between atoms: C_7  and  C_8 
REMARK       I    between atoms: C_8  and  N_9 
REMARK    5  A    between atoms: N_9  and  C_10 
ROOT
HETATM    1  C   UNL     1      25.560  45.324  52.370  1.00  0.00     0.041 C 
HETATM    2  C   UNL     1      26.549  44.406  52.357  1.00  0.00     0.099 C 
HETATM    3  C   UNL     1      26.985  43.716  51.073  1.00  0.00     0.025 C 
HETATM    4  N   UNL     1      27.346  43.144  50.010  1.00  0.00    -0.096 N 
ENDROOT
BRANCH   2   5
HETATM    5  C   UNL     1      27.257  44.099  53.649  1.00  0.00     0.265 C 
HETATM    6  N   UNL     1      28.432  44.802  53.860  1.00  0.00    -0.321 N 
HETATM    7  H   UNL     1      28.604  45.595  53.258  1.00  0.00     0.169 HD
HETATM    8  O   UNL     1      26.736  43.333  54.458  1.00  0.00    -0.267 OA
BRANCH   6   9
HETATM    9  C   UNL     1      29.233  44.779  55.036  1.00  0.00     0.047 A 
HETATM   10  C   UNL     1      30.241  43.823  55.293  1.00  0.00    -0.035 A 
HETATM   11  C   UNL     1      30.716  42.785  54.311  1.00  0.00     0.050 C 
HETATM   12  C   UNL     1      30.911  43.848  56.533  1.00  0.00     0.009 A 
HETATM   13  C   UNL     1      30.652  44.835  57.475  1.00  0.00     0.001 A 
HETATM   14  C   UNL     1      29.722  45.826  57.192  1.00  0.00     0.009 A 
HETATM   15  C   UNL     1      29.010  45.816  55.980  1.00  0.00    -0.035 A 
HETATM   16  C   UNL     1      27.995  46.910  55.761  1.00  0.00     0.050 C 
ENDBRANCH   6   9
ENDBRANCH   2   5
BRANCH   1  17
HETATM   17  C   UNL     1      24.811  45.906  51.226  1.00  0.00     0.002 A 
HETATM   18  C   UNL     1      23.849  45.097  50.552  1.00  0.00     0.079 A 
HETATM   19  C   UNL     1      23.106  45.604  49.474  1.00  0.00     0.047 A 
HETATM   20  C   UNL     1      23.283  46.927  49.124  1.00  0.00    -0.020 A 
HETATM   21  C   UNL     1      24.217  47.713  49.774  1.00  0.00     0.076 A 
HETATM   22  C   UNL     1      22.637  47.721  48.054  1.00  0.00     0.073 C 
HETATM   23  C   UNL     1      25.016  47.223  50.787  1.00  0.00     0.051 A 
HETATM   24  O   UNL     1      24.247  49.010  49.324  1.00  0.00    -0.345 OA
HETATM   25  C   UNL     1      23.043  49.128  48.520  1.00  0.00     0.129 C 
HETATM   26  C   UNL     1      21.953  49.808  49.354  1.00  0.00     0.040 C 
BRANCH  18  27
HETATM   27  O   UNL     1      23.714  43.806  51.007  1.00  0.00    -0.351 OA
BRANCH  27  28
HETATM   28  C   UNL     1      23.002  42.897  50.169  1.00  0.00     0.171 C 
HETATM   29  C   UNL     1      24.024  42.096  49.384  1.00  0.00     0.034 C 
ENDBRANCH  27  28
ENDBRANCH  18  27
ENDBRANCH   1  17
TORSDOF 5
ENDMDL
MODEL 4
REMARK VINA RESULT:      -8.9      2.331      3.719
REMARK  5 active torsions:
REMARK  status: ('A' for Active; 'I' for Inactive)
REMARK    1  A    between atoms: C_2  and  O_3 
REMARK    2  A    between atoms: O_3  and  C_4 
REMARK    3  A    between atoms: C_5  and  C_6 
REMARK    4  A    between atoms: C_7  and  C_8 
REMARK       I    between atoms: C_8  and  N_9 
REMARK    5  A    between atoms: N_9  and  C_10 
ROOT
HETATM    1  C   UNL     1      24.767  44.738  51.735  1.00  0.00     0.041 C 
HETATM    2  C   UNL     1      25.923  44.045  51.803  1.00  0.00     0.099 C 
HETATM    3  C   UNL     1      26.524  43.368  50.581  1.00  0.00     0.025 C 
HETATM    4  N   UNL     1      27.022  42.806  49.568  1.00  0.00    -0.096 N 
ENDROOT
BRANCH   2   5
HETATM    5  C   UNL     1      26.646  43.988  53.122  1.00  0.00     0.265 C 
HETATM    6  N   UNL     1      27.986  44.338  53.077  1.00  0.00    -0.321 N 
HETATM    7  H   UNL     1      28.309  44.798  52.238  1.00  0.00     0.169 HD
HETATM    8  O   UNL     1      26.018  43.725  54.146  1.00  0.00    -0.267 OA
BRANCH   6   9
HETATM    9  C   UNL     1      28.865  44.469  54.189  1.00  0.00     0.047 A 
HETATM   10  C   UNL     1      28.859  45.563  55.082  1.00  0.00    -0.035 A 
HETATM   11  C   UNL     1      27.839  46.670  55.084  1.00  0.00     0.050 C 
HETATM   12  C   UNL     1      29.836  45.626  56.096  1.00  0.00     0.009 A 
HETATM   13  C   UNL     1      30.756  44.602  56.280  1.00  0.00     0.001 A 
HETATM   14  C   UNL     1      30.712  43.486  55.456  1.00  0.00     0.009 A 
HETATM   15  C   UNL     1      29.774  43.401  54.412  1.00  0.00    -0.035 A 
HETATM   16  C   UNL     1      29.810  42.170  53.542  1.00  0.00     0.050 C 
ENDBRANCH   6   9
ENDBRANCH   2   5
BRANCH   1  17
HETATM   17  C   UNL     1      23.943  45.066  50.543  1.00  0.00     0.002 A 
HETATM   18  C   UNL     1      24.033  46.376  49.985  1.00  0.00     0.079 A 
HETATM   19  C   UNL     1      23.286  46.732  48.852  1.00  0.00     0.047 A 
HETATM   20  C   UNL     1      22.509  45.762  48.251  1.00  0.00    -0.020 A 
HETATM   21  C   UNL     1      22.418  44.492  48.791  1.00  0.00     0.076 A 
HETATM   22  C   UNL     1      21.639  45.847  47.056  1.00  0.00     0.073 C 
HETATM   23  C   UNL     1      23.081  44.133  49.946  1.00  0.00     0.051 A 
HETATM   24  O   UNL     1      21.629  43.642  48.056  1.00  0.00    -0.345 OA
HETATM   25  C   UNL     1      21.431  44.346  46.801  1.00  0.00     0.129 C 
HETATM   26  C   UNL     1      22.404  43.787  45.759  1.00  0.00     0.040 C 
BRANCH  18  27
HETATM   27  O   UNL     1      24.870  47.256  50.631  1.00  0.00    -0.351 OA
BRANCH  27  28
HETATM   28  C   UNL     1      25.849  47.919  49.833  1.00  0.00     0.171 C 
HETATM   29  C   UNL     1      26.980  46.939  49.580  1.00  0.00     0.034 C 
ENDBRANCH  27  28
ENDBRANCH  18  27
ENDBRANCH   1  17
TORSDOF 5
ENDMDL
MODEL 5
REMARK VINA RESULT:      -8.8      2.644      9.094
REMARK  5 active torsions:
REMARK  status: ('A' for Active; 'I' for Inactive)
REMARK    1  A    between atoms: C_2  and  O_3 
REMARK    2  A    between atoms: O_3  and  C_4 
REMARK    3  A    between atoms: C_5  and  C_6 
REMARK    4  A    between atoms: C_7  and  C_8 
REMARK       I    between atoms: C_8  and  N_9 
REMARK    5  A    between atoms: N_9  and  C_10 
ROOT
HETATM    1  C   UNL     1      24.723  47.325  50.684  1.00  0.00     0.041 C 
HETATM    2  C   UNL     1      25.114  48.190  49.725  1.00  0.00     0.099 C 
HETATM    3  C   UNL     1      26.580  48.511  49.484  1.00  0.00     0.025 C 
HETATM    4  N   UNL     1      27.796  48.777  49.285  1.00  0.00    -0.096 N 
ENDROOT
BRANCH   2   5
HETATM    5  C   UNL     1      24.058  48.812  48.849  1.00  0.00     0.265 C 
HETATM    6  N   UNL     1      22.763  48.723  49.332  1.00  0.00    -0.321 N 
HETATM    7  H   UNL     1      22.654  48.452  50.300  1.00  0.00     0.169 HD
HETATM    8  O   UNL     1      24.394  49.416  47.832  1.00  0.00    -0.267 OA
BRANCH   6   9
HETATM    9  C   UNL     1      21.602  49.313  48.758  1.00  0.00     0.047 A 
HETATM   10  C   UNL     1      20.867  48.749  47.692  1.00  0.00    -0.035 A 
HETATM   11  C   UNL     1      21.108  47.383  47.106  1.00  0.00     0.050 C 
HETATM   12  C   UNL     1      19.785  49.469  47.147  1.00  0.00     0.009 A 
HETATM   13  C   UNL     1      19.382  50.686  47.683  1.00  0.00     0.001 A 
HETATM   14  C   UNL     1      20.050  51.204  48.785  1.00  0.00     0.009 A 
HETATM   15  C   UNL     1      21.155  50.531  49.335  1.00  0.00    -0.035 A 
HETATM   16  C   UNL     1      21.846  51.175  50.511  1.00  0.00     0.050 C 
ENDBRANCH   6   9
ENDBRANCH   2   5
BRANCH   1  17
HETATM   17  C   UNL     1      25.558  46.478  51.574  1.00  0.00     0.002 A 
HETATM   18  C   UNL     1      26.259  45.371  51.009  1.00  0.00     0.079 A 
HETATM   19  C   UNL     1      27.071  44.548  51.805  1.00  0.00     0.047 A 
HETATM   20  C   UNL     1      27.226  44.875  53.137  1.00  0.00    -0.020 A 
HETATM   21  C   UNL     1      26.546  45.946  53.688  1.00  0.00     0.076 A 
HETATM   22  C   UNL     1      28.019  44.205  54.194  1.00  0.00     0.073 C 
HETATM   23  C   UNL     1      25.682  46.729  52.950  1.00  0.00     0.051 A 
HETATM   24  O   UNL     1      26.834  46.151  55.015  1.00  0.00    -0.345 OA
HETATM   25  C   UNL     1      28.001  45.320  55.251  1.00  0.00     0.129 C 
HETATM   26  C   UNL     1      29.255  46.198  55.200  1.00  0.00     0.040 C 
BRANCH  18  27
HETATM   27  O   UNL     1      26.074  45.157  49.664  1.00  0.00    -0.351 OA
BRANCH  27  28
HETATM   28  C   UNL     1      25.527  43.896  49.280  1.00  0.00     0.171 C 
HETATM   29  C   UNL     1      24.093  44.130  48.844  1.00  0.00     0.034 C 
ENDBRANCH  27  28
ENDBRANCH  18  27
ENDBRANCH   1  17
TORSDOF 5
ENDMDL
MODEL 6
REMARK VINA RESULT:      -8.2      4.874      7.822
REMARK  5 active torsions:
REMARK  status: ('A' for Active; 'I' for Inactive)
REMARK    1  A    between atoms: C_2  and  O_3 
REMARK    2  A    between atoms: O_3  and  C_4 
REMARK    3  A    between atoms: C_5  and  C_6 
REMARK    4  A    between atoms: C_7  and  C_8 
REMARK       I    between atoms: C_8  and  N_9 
REMARK    5  A    between atoms: N_9  and  C_10 
ROOT
HETATM    1  C   UNL     1      21.724  48.111  49.139  1.00  0.00     0.041 C 
HETATM    2  C   UNL     1      21.737  47.080  48.268  1.00  0.00     0.099 C 
HETATM    3  C   UNL     1      20.717  46.965  47.147  1.00  0.00     0.025 C 
HETATM    4  N   UNL     1      19.870  46.868  46.218  1.00  0.00    -0.096 N 
ENDROOT
BRANCH   2   5
HETATM    5  C   UNL     1      22.826  46.048  48.399  1.00  0.00     0.265 C 
HETATM    6  N   UNL     1      23.474  46.025  49.622  1.00  0.00    -0.321 N 
HETATM    7  H   UNL     1      23.038  46.533  50.380  1.00  0.00     0.169 HD
HETATM    8  O   UNL     1      23.022  45.256  47.479  1.00  0.00    -0.267 OA
BRANCH   6   9
HETATM    9  C   UNL     1      24.460  45.087  50.041  1.00  0.00     0.047 A 
HETATM   10  C   UNL     1      24.191  43.734  50.345  1.00  0.00    -0.035 A 
HETATM   11  C   UNL     1      22.868  43.048  50.133  1.00  0.00     0.050 C 
HETATM   12  C   UNL     1      25.233  42.921  50.835  1.00  0.00     0.009 A 
HETATM   13  C   UNL     1      26.531  43.402  50.956  1.00  0.00     0.001 A 
HETATM   14  C   UNL     1      26.816  44.707  50.579  1.00  0.00     0.009 A 
HETATM   15  C   UNL     1      25.797  45.559  50.118  1.00  0.00    -0.035 A 
HETATM   16  C   UNL     1      26.182  46.972  49.757  1.00  0.00     0.050 C 
ENDBRANCH   6   9
ENDBRANCH   2   5
BRANCH   1  17
HETATM   17  C   UNL     1      20.860  49.320  49.141  1.00  0.00     0.002 A 
HETATM   18  C   UNL     1      21.234  50.434  48.332  1.00  0.00     0.079 A 
HETATM   19  C   UNL     1      20.446  51.594  48.289  1.00  0.00     0.047 A 
HETATM   20  C   UNL     1      19.263  51.606  49.001  1.00  0.00    -0.020 A 
HETATM   21  C   UNL     1      18.899  50.529  49.789  1.00  0.00     0.076 A 
HETATM   22  C   UNL     1      18.243  52.671  49.130  1.00  0.00     0.073 C 
HETATM   23  C   UNL     1      19.690  49.405  49.911  1.00  0.00     0.051 A 
HETATM   24  O   UNL     1      17.683  50.691  50.407  1.00  0.00    -0.345 OA
HETATM   25  C   UNL     1      17.101  51.839  49.735  1.00  0.00     0.129 C 
HETATM   26  C   UNL     1      16.109  51.347  48.677  1.00  0.00     0.040 C 
BRANCH  18  27
HETATM   27  O   UNL     1      22.406  50.304  47.624  1.00  0.00    -0.351 OA
BRANCH  27  28
HETATM   28  C   UNL     1      23.556  50.961  48.155  1.00  0.00     0.171 C 
HETATM   29  C   UNL     1      24.746  50.039  47.960  1.00  0.00     0.034 C 
ENDBRANCH  27  28
ENDBRANCH  18  27
ENDBRANCH   1  17
TORSDOF 5
ENDMDL
MODEL 7
REMARK VINA RESULT:      -8.2      2.988      8.790
REMARK  5 active torsions:
REMARK  status: ('A' for Active; 'I' for Inactive)
REMARK    1  A    between atoms: C_2  and  O_3 
REMARK    2  A    between atoms: O_3  and  C_4 
REMARK    3  A    between atoms: C_5  and  C_6 
REMARK    4  A    between atoms: C_7  and  C_8 
REMARK       I    between atoms: C_8  and  N_9 
REMARK    5  A    between atoms: N_9  and  C_10 
ROOT
HETATM    1  C   UNL     1      26.071  45.284  50.217  1.00  0.00     0.041 C 
HETATM    2  C   UNL     1      24.758  45.583  50.129  1.00  0.00     0.099 C 
HETATM    3  C   UNL     1      23.688  44.502  50.124  1.00  0.00     0.025 C 
HETATM    4  N   UNL     1      22.802  43.606  50.118  1.00  0.00    -0.096 N 
ENDROOT
BRANCH   2   5
HETATM    5  C   UNL     1      24.357  47.034  50.080  1.00  0.00     0.265 C 
HETATM    6  N   UNL     1      23.642  47.412  48.956  1.00  0.00    -0.321 N 
HETATM    7  H   UNL     1      23.268  46.669  48.382  1.00  0.00     0.169 HD
HETATM    8  O   UNL     1      24.602  47.762  51.041  1.00  0.00    -0.267 OA
BRANCH   6   9
HETATM    9  C   UNL     1      23.057  48.686  48.713  1.00  0.00     0.047 A 
HETATM   10  C   UNL     1      23.794  49.861  48.444  1.00  0.00    -0.035 A 
HETATM   11  C   UNL     1      25.283  49.915  48.228  1.00  0.00     0.050 C 
HETATM   12  C   UNL     1      23.108  51.084  48.305  1.00  0.00     0.009 A 
HETATM   13  C   UNL     1      21.721  51.147  48.356  1.00  0.00     0.001 A 
HETATM   14  C   UNL     1      20.989  49.981  48.537  1.00  0.00     0.009 A 
HETATM   15  C   UNL     1      21.638  48.747  48.712  1.00  0.00    -0.035 A 
HETATM   16  C   UNL     1      20.773  47.531  48.934  1.00  0.00     0.050 C 
ENDBRANCH   6   9
ENDBRANCH   2   5
BRANCH   1  17
HETATM   17  C   UNL     1      26.715  43.961  50.421  1.00  0.00     0.002 A 
HETATM   18  C   UNL     1      27.131  43.595  51.736  1.00  0.00     0.079 A 
HETATM   19  C   UNL     1      27.733  42.351  51.984  1.00  0.00     0.047 A 
HETATM   20  C   UNL     1      27.854  41.464  50.934  1.00  0.00    -0.020 A 
HETATM   21  C   UNL     1      27.455  41.817  49.658  1.00  0.00     0.076 A 
HETATM   22  C   UNL     1      28.428  40.099  50.904  1.00  0.00     0.073 C 
HETATM   23  C   UNL     1      26.929  43.059  49.367  1.00  0.00     0.051 A 
HETATM   24  O   UNL     1      27.617  40.811  48.737  1.00  0.00    -0.345 OA
HETATM   25  C   UNL     1      27.877  39.634  49.548  1.00  0.00     0.129 C 
HETATM   26  C   UNL     1      26.582  38.829  49.684  1.00  0.00     0.040 C 
BRANCH  18  27
HETATM   27  O   UNL     1      26.924  44.531  52.722  1.00  0.00    -0.351 OA
BRANCH  27  28
HETATM   28  C   UNL     1      27.185  44.123  54.064  1.00  0.00     0.171 C 
HETATM   29  C   UNL     1      28.324  44.975  54.592  1.00  0.00     0.034 C 
ENDBRANCH  27  28
ENDBRANCH  18  27
ENDBRANCH   1  17
TORSDOF 5
ENDMDL
MODEL 8
REMARK VINA RESULT:      -7.8      4.676      7.099
REMARK  5 active torsions:
REMARK  status: ('A' for Active; 'I' for Inactive)
REMARK    1  A    between atoms: C_2  and  O_3 
REMARK    2  A    between atoms: O_3  and  C_4 
REMARK    3  A    between atoms: C_5  and  C_6 
REMARK    4  A    between atoms: C_7  and  C_8 
REMARK       I    between atoms: C_8  and  N_9 
REMARK    5  A    between atoms: N_9  and  C_10 
ROOT
HETATM    1  C   UNL     1      28.336  40.930  50.036  1.00  0.00     0.041 C 
HETATM    2  C   UNL     1      27.346  41.500  50.754  1.00  0.00     0.099 C 
HETATM    3  C   UNL     1      25.923  41.588  50.227  1.00  0.00     0.025 C 
HETATM    4  N   UNL     1      24.742  41.662  49.789  1.00  0.00    -0.096 N 
ENDROOT
BRANCH   2   5
HETATM    5  C   UNL     1      27.668  42.020  52.130  1.00  0.00     0.265 C 
HETATM    6  N   UNL     1      28.001  43.363  52.192  1.00  0.00    -0.321 N 
HETATM    7  H   UNL     1      27.797  43.921  51.375  1.00  0.00     0.169 HD
HETATM    8  O   UNL     1      27.544  41.276  53.102  1.00  0.00    -0.267 OA
BRANCH   6   9
HETATM    9  C   UNL     1      28.244  44.122  53.371  1.00  0.00     0.047 A 
HETATM   10  C   UNL     1      29.341  43.916  54.237  1.00  0.00    -0.035 A 
HETATM   11  C   UNL     1      30.486  42.976  53.971  1.00  0.00     0.050 C 
HETATM   12  C   UNL     1      29.431  44.672  55.423  1.00  0.00     0.009 A 
HETATM   13  C   UNL     1      28.504  45.664  55.721  1.00  0.00     0.001 A 
HETATM   14  C   UNL     1      27.471  45.926  54.831  1.00  0.00     0.009 A 
HETATM   15  C   UNL     1      27.329  45.170  53.654  1.00  0.00    -0.035 A 
HETATM   16  C   UNL     1      26.163  45.496  52.754  1.00  0.00     0.050 C 
ENDBRANCH   6   9
ENDBRANCH   2   5
BRANCH   1  17
HETATM   17  C   UNL     1      28.256  40.221  48.733  1.00  0.00     0.002 A 
HETATM   18  C   UNL     1      28.377  38.799  48.716  1.00  0.00     0.079 A 
HETATM   19  C   UNL     1      28.295  38.081  47.512  1.00  0.00     0.047 A 
HETATM   20  C   UNL     1      28.029  38.780  46.352  1.00  0.00    -0.020 A 
HETATM   21  C   UNL     1      27.914  40.158  46.365  1.00  0.00     0.076 A 
HETATM   22  C   UNL     1      27.879  38.292  44.962  1.00  0.00     0.073 C 
HETATM   23  C   UNL     1      28.064  40.899  47.520  1.00  0.00     0.051 A 
HETATM   24  O   UNL     1      27.621  40.694  45.135  1.00  0.00    -0.345 OA
HETATM   25  C   UNL     1      27.242  39.542  44.335  1.00  0.00     0.129 C 
HETATM   26  C   UNL     1      25.715  39.458  44.277  1.00  0.00     0.040 C 
BRANCH  18  27
HETATM   27  O   UNL     1      28.594  38.192  49.930  1.00  0.00    -0.351 OA
BRANCH  27  28
HETATM   28  C   UNL     1      29.907  37.691  50.176  1.00  0.00     0.171 C 
HETATM   29  C   UNL     1      29.911  37.065  51.558  1.00  0.00     0.034 C 
ENDBRANCH  27  28
ENDBRANCH  18  27
ENDBRANCH   1  17
TORSDOF 5
ENDMDL
MODEL 9
REMARK VINA RESULT:      -7.7     12.455     14.242
REMARK  5 active torsions:
REMARK  status: ('A' for Active; 'I' for Inactive)
REMARK    1  A    between atoms: C_2  and  O_3 
REMARK    2  A    between atoms: O_3  and  C_4 
REMARK    3  A    between atoms: C_5  and  C_6 
REMARK    4  A    between atoms: C_7  and  C_8 
REMARK       I    between atoms: C_8  and  N_9 
REMARK    5  A    between atoms: N_9  and  C_10 
ROOT
HETATM    1  C   UNL     1      30.873  49.589  41.175  1.00  0.00     0.041 C 
HETATM    2  C   UNL     1      31.314  50.634  40.443  1.00  0.00     0.099 C 
HETATM    3  C   UNL     1      30.713  50.975  39.089  1.00  0.00     0.025 C 
HETATM    4  N   UNL     1      30.214  51.257  37.966  1.00  0.00    -0.096 N 
ENDROOT
BRANCH   2   5
HETATM    5  C   UNL     1      32.403  51.501  41.019  1.00  0.00     0.265 C 
HETATM    6  N   UNL     1      33.367  50.830  41.753  1.00  0.00    -0.321 N 
HETATM    7  H   UNL     1      33.387  49.823  41.667  1.00  0.00     0.169 HD
HETATM    8  O   UNL     1      32.426  52.701  40.750  1.00  0.00    -0.267 OA
BRANCH   6   9
HETATM    9  C   UNL     1      34.549  51.391  42.312  1.00  0.00     0.047 A 
HETATM   10  C   UNL     1      35.784  51.482  41.631  1.00  0.00    -0.035 A 
HETATM   11  C   UNL     1      35.996  51.142  40.180  1.00  0.00     0.050 C 
HETATM   12  C   UNL     1      36.911  51.978  42.317  1.00  0.00     0.009 A 
HETATM   13  C   UNL     1      36.816  52.445  43.622  1.00  0.00     0.001 A 
HETATM   14  C   UNL     1      35.586  52.434  44.266  1.00  0.00     0.009 A 
HETATM   15  C   UNL     1      34.446  51.917  43.627  1.00  0.00    -0.035 A 
HETATM   16  C   UNL     1      33.154  51.912  44.404  1.00  0.00     0.050 C 
ENDBRANCH   6   9
ENDBRANCH   2   5
BRANCH   1  17
HETATM   17  C   UNL     1      29.730  48.679  40.908  1.00  0.00     0.002 A 
HETATM   18  C   UNL     1      28.414  49.108  41.254  1.00  0.00     0.079 A 
HETATM   19  C   UNL     1      27.300  48.289  41.011  1.00  0.00     0.047 A 
HETATM   20  C   UNL     1      27.502  47.086  40.367  1.00  0.00    -0.020 A 
HETATM   21  C   UNL     1      28.777  46.666  40.032  1.00  0.00     0.076 A 
HETATM   22  C   UNL     1      26.527  46.042  39.976  1.00  0.00     0.073 C 
HETATM   23  C   UNL     1      29.900  47.413  40.326  1.00  0.00     0.051 A 
HETATM   24  O   UNL     1      28.800  45.462  39.373  1.00  0.00    -0.345 OA
HETATM   25  C   UNL     1      27.411  45.235  39.012  1.00  0.00     0.129 C 
HETATM   26  C   UNL     1      27.206  45.639  37.549  1.00  0.00     0.040 C 
BRANCH  18  27
HETATM   27  O   UNL     1      28.314  50.343  41.850  1.00  0.00    -0.351 OA
BRANCH  27  28
HETATM   28  C   UNL     1      27.552  51.332  41.160  1.00  0.00     0.171 C 
HETATM   29  C   UNL     1      28.263  52.662  41.327  1.00  0.00     0.034 C 
ENDBRANCH  27  28
ENDBRANCH  18  27
ENDBRANCH   1  17
TORSDOF 5
ENDMDL
MODEL 10
REMARK VINA RESULT:      -7.5      3.183      8.656
REMARK  5 active torsions:
REMARK  status: ('A' for Active; 'I' for Inactive)
REMARK    1  A    between atoms: C_2  and  O_3 
REMARK    2  A    between atoms: O_3  and  C_4 
REMARK    3  A    between atoms: C_5  and  C_6 
REMARK    4  A    between atoms: C_7  and  C_8 
REMARK       I    between atoms: C_8  and  N_9 
REMARK    5  A    between atoms: N_9  and  C_10 
ROOT
HETATM    1  C   UNL     1      27.758  43.823  51.930  1.00  0.00     0.041 C 
HETATM    2  C   UNL     1      27.682  42.612  51.341  1.00  0.00     0.099 C 
HETATM    3  C   UNL     1      28.368  41.390  51.930  1.00  0.00     0.025 C 
HETATM    4  N   UNL     1      28.938  40.377  52.418  1.00  0.00    -0.096 N 
ENDROOT
BRANCH   2   5
HETATM    5  C   UNL     1      26.854  42.475  50.090  1.00  0.00     0.265 C 
HETATM    6  N   UNL     1      25.975  41.405  50.077  1.00  0.00    -0.321 N 
HETATM    7  H   UNL     1      25.804  40.944  50.960  1.00  0.00     0.169 HD
HETATM    8  O   UNL     1      26.937  43.334  49.214  1.00  0.00    -0.267 OA
BRANCH   6   9
HETATM    9  C   UNL     1      25.012  41.113  49.071  1.00  0.00     0.047 A 
HETATM   10  C   UNL     1      23.727  41.696  49.008  1.00  0.00    -0.035 A 
HETATM   11  C   UNL     1      23.240  42.810  49.894  1.00  0.00     0.050 C 
HETATM   12  C   UNL     1      22.825  41.262  48.015  1.00  0.00     0.009 A 
HETATM   13  C   UNL     1      23.198  40.329  47.056  1.00  0.00     0.001 A 
HETATM   14  C   UNL     1      24.488  39.816  47.065  1.00  0.00     0.009 A 
HETATM   15  C   UNL     1      25.405  40.198  48.059  1.00  0.00    -0.035 A 
HETATM   16  C   UNL     1      26.777  39.572  48.018  1.00  0.00     0.050 C 
ENDBRANCH   6   9
ENDBRANCH   2   5
BRANCH   1  17
HETATM   17  C   UNL     1      28.378  44.193  53.229  1.00  0.00     0.002 A 
HETATM   18  C   UNL     1      27.595  44.905  54.186  1.00  0.00     0.079 A 
HETATM   19  C   UNL     1      28.130  45.267  55.432  1.00  0.00     0.047 A 
HETATM   20  C   UNL     1      29.413  44.858  55.735  1.00  0.00    -0.020 A 
HETATM   21  C   UNL     1      30.175  44.170  54.808  1.00  0.00     0.076 A 
HETATM   22  C   UNL     1      30.218  45.081  56.958  1.00  0.00     0.073 C 
HETATM   23  C   UNL     1      29.705  43.865  53.547  1.00  0.00     0.051 A 
HETATM   24  O   UNL     1      31.415  43.813  55.278  1.00  0.00    -0.345 OA
HETATM   25  C   UNL     1      31.327  44.047  56.709  1.00  0.00     0.129 C 
HETATM   26  C   UNL     1      31.059  42.715  57.415  1.00  0.00     0.040 C 
BRANCH  18  27
HETATM   27  O   UNL     1      26.313  45.226  53.806  1.00  0.00    -0.351 OA
BRANCH  27  28
HETATM   28  C   UNL     1      25.961  46.608  53.823  1.00  0.00     0.171 C 
HETATM   29  C   UNL     1      26.111  47.140  52.410  1.00  0.00     0.034 C 
ENDBRANCH  27  28
ENDBRANCH  18  27
ENDBRANCH   1  17
TORSDOF 5
ENDMDL
