MODEL 1
REMARK VINA RESULT:      -8.7      0.000      0.000
REMARK  8 active torsions:
REMARK  status: ('A' for Active; 'I' for Inactive)
REMARK    1  A    between atoms: C_8  and  C_9 
REMARK       I    between atoms: C_9  and  N_10 
REMARK    2  A    between atoms: N_10  and  N_11 
REMARK    3  A    between atoms: N_11  and  C_12 
REMARK    4  A    between atoms: C_12  and  N_13 
REMARK    5  A    between atoms: N_13  and  C_14 
REMARK    6  A    between atoms: C_15  and  O_16 
REMARK    7  A    between atoms: C_19  and  O_20 
REMARK    8  A    between atoms: C_26  and  C_27 
ROOT
HETATM    1  C   UNL     1      24.692  44.336  50.534  1.00  0.00     0.275 C 
HETATM    2  N   UNL     1      25.470  44.084  51.648  1.00  0.00    -0.263 N 
HETATM    3  O   UNL     1      24.257  43.439  49.814  1.00  0.00    -0.266 OA
HETATM    4  H   UNL     1      26.075  44.834  51.983  1.00  0.00     0.190 HD
ENDROOT
BRANCH   2   5
HETATM    5  N   UNL     1      25.952  42.777  51.855  1.00  0.00    -0.273 N 
HETATM    6  H   UNL     1      25.252  42.046  51.718  1.00  0.00     0.189 HD
BRANCH   5   7
HETATM    7  C   UNL     1      27.288  42.480  51.580  1.00  0.00     0.191 C 
HETATM    8  S   UNL     1      27.748  41.069  50.792  1.00  0.00    -0.039 SA
BRANCH   7   9
HETATM    9  N   UNL     1      28.101  43.534  51.962  1.00  0.00    -0.330 N 
HETATM   10  H   UNL     1      28.430  44.114  51.196  1.00  0.00     0.168 HD
BRANCH   9  11
HETATM   11  C   UNL     1      28.808  43.770  53.165  1.00  0.00     0.068 A 
HETATM   12  C   UNL     1      28.297  44.763  54.028  1.00  0.00     0.097 A 
HETATM   13  C   UNL     1      28.940  45.037  55.242  1.00  0.00     0.075 A 
HETATM   14  C   UNL     1      30.081  44.321  55.608  1.00  0.00     0.070 A 
HETATM   15  C   UNL     1      30.557  43.312  54.770  1.00  0.00     0.039 A 
HETATM   16  C   UNL     1      29.923  43.033  53.557  1.00  0.00     0.035 A 
BRANCH  12  17
HETATM   17  O   UNL     1      27.164  45.403  53.576  1.00  0.00    -0.354 OA
HETATM   18  C   UNL     1      26.598  46.397  54.423  1.00  0.00     0.210 C 
ENDBRANCH  12  17
BRANCH  14  19
HETATM   19  O   UNL     1      30.804  44.487  56.757  1.00  0.00    -0.356 OA
HETATM   20  C   UNL     1      31.649  43.413  57.151  1.00  0.00     0.210 C 
ENDBRANCH  14  19
ENDBRANCH   9  11
ENDBRANCH   7   9
ENDBRANCH   5   7
ENDBRANCH   2   5
BRANCH   1  21
HETATM   21  C   UNL     1      24.492  45.743  50.253  1.00  0.00     0.098 A 
HETATM   22  C   UNL     1      23.504  46.361  49.507  1.00  0.00     0.138 A 
HETATM   23  N   UNL     1      22.459  45.907  48.772  1.00  0.00    -0.370 N 
HETATM   24  N   UNL     1      23.760  47.711  49.585  1.00  0.00    -0.240 N 
HETATM   25  C   UNL     1      21.400  46.821  48.356  1.00  0.00     0.081 C 
HETATM   26  H   UNL     1      22.329  44.923  48.535  1.00  0.00     0.161 HD
HETATM   27  C   UNL     1      20.571  46.176  47.252  1.00  0.00     0.032 C 
HETATM   28  C   UNL     1      22.035  48.129  47.880  1.00  0.00     0.061 C 
HETATM   29  C   UNL     1      22.925  48.738  48.983  1.00  0.00     0.221 C 
HETATM   30  N   UNL     1      24.806  48.014  50.369  1.00  0.00    -0.181 NA
HETATM   31  C   UNL     1      25.278  46.818  50.732  1.00  0.00     0.160 A 
BRANCH  29  32
HETATM   32  C   UNL     1      23.738  49.877  48.405  1.00  0.00     0.409 C 
HETATM   33  F   UNL     1      23.929  50.881  49.292  1.00  0.00    -0.169 F 
HETATM   34  F   UNL     1      24.978  49.421  48.071  1.00  0.00    -0.169 F 
HETATM   35  F   UNL     1      23.218  50.396  47.274  1.00  0.00    -0.169 F 
ENDBRANCH  29  32
ENDBRANCH   1  21
TORSDOF 8
ENDMDL
MODEL 2
REMARK VINA RESULT:      -8.3      4.399      9.478
REMARK  8 active torsions:
REMARK  status: ('A' for Active; 'I' for Inactive)
REMARK    1  A    between atoms: C_8  and  C_9 
REMARK       I    between atoms: C_9  and  N_10 
REMARK    2  A    between atoms: N_10  and  N_11 
REMARK    3  A    between atoms: N_11  and  C_12 
REMARK    4  A    between atoms: C_12  and  N_13 
REMARK    5  A    between atoms: N_13  and  C_14 
REMARK    6  A    between atoms: C_15  and  O_16 
REMARK    7  A    between atoms: C_19  and  O_20 
REMARK    8  A    between atoms: C_26  and  C_27 
ROOT
HETATM    1  C   UNL     1      25.048  46.179  51.184  1.00  0.00     0.275 C 
HETATM    2  N   UNL     1      24.087  45.675  50.329  1.00  0.00    -0.263 N 
HETATM    3  O   UNL     1      25.131  47.375  51.455  1.00  0.00    -0.266 OA
HETATM    4  H   UNL     1      24.277  44.781  49.876  1.00  0.00     0.190 HD
ENDROOT
BRANCH   2   5
HETATM    5  N   UNL     1      23.305  46.578  49.583  1.00  0.00    -0.273 N 
HETATM    6  H   UNL     1      23.708  47.513  49.500  1.00  0.00     0.189 HD
BRANCH   5   7
HETATM    7  C   UNL     1      22.504  46.104  48.542  1.00  0.00     0.191 C 
HETATM    8  S   UNL     1      22.039  44.493  48.430  1.00  0.00    -0.039 SA
BRANCH   7   9
HETATM    9  N   UNL     1      22.108  47.153  47.728  1.00  0.00    -0.330 N 
HETATM   10  H   UNL     1      22.505  47.137  46.793  1.00  0.00     0.168 HD
BRANCH   9  11
HETATM   11  C   UNL     1      21.514  48.397  48.044  1.00  0.00     0.068 A 
HETATM   12  C   UNL     1      22.349  49.535  48.020  1.00  0.00     0.097 A 
HETATM   13  C   UNL     1      21.821  50.800  48.309  1.00  0.00     0.075 A 
HETATM   14  C   UNL     1      20.465  50.942  48.609  1.00  0.00     0.070 A 
HETATM   15  C   UNL     1      19.636  49.820  48.592  1.00  0.00     0.039 A 
HETATM   16  C   UNL     1      20.154  48.555  48.306  1.00  0.00     0.035 A 
BRANCH  12  17
HETATM   17  O   UNL     1      23.666  49.286  47.704  1.00  0.00    -0.354 OA
HETATM   18  C   UNL     1      24.657  49.944  48.485  1.00  0.00     0.210 C 
ENDBRANCH  12  17
BRANCH  14  19
HETATM   19  O   UNL     1      19.823  52.112  48.911  1.00  0.00    -0.356 OA
HETATM   20  C   UNL     1      18.698  52.456  48.112  1.00  0.00     0.210 C 
ENDBRANCH  14  19
ENDBRANCH   9  11
ENDBRANCH   7   9
ENDBRANCH   5   7
ENDBRANCH   2   5
BRANCH   1  21
HETATM   21  C   UNL     1      25.984  45.190  51.678  1.00  0.00     0.098 A 
HETATM   22  C   UNL     1      26.749  45.198  52.831  1.00  0.00     0.138 A 
HETATM   23  N   UNL     1      26.932  46.095  53.830  1.00  0.00    -0.370 N 
HETATM   24  N   UNL     1      27.440  44.007  52.835  1.00  0.00    -0.240 N 
HETATM   25  C   UNL     1      27.566  45.685  55.080  1.00  0.00     0.081 C 
HETATM   26  H   UNL     1      26.589  47.055  53.788  1.00  0.00     0.161 HD
HETATM   27  C   UNL     1      27.995  46.919  55.866  1.00  0.00     0.032 C 
HETATM   28  C   UNL     1      28.764  44.790  54.756  1.00  0.00     0.061 C 
HETATM   29  C   UNL     1      28.328  43.581  53.904  1.00  0.00     0.221 C 
HETATM   30  N   UNL     1      27.137  43.208  51.800  1.00  0.00    -0.181 NA
HETATM   31  C   UNL     1      26.293  43.947  51.075  1.00  0.00     0.160 A 
BRANCH  29  32
HETATM   32  C   UNL     1      29.554  42.861  53.383  1.00  0.00     0.409 C 
HETATM   33  F   UNL     1      30.567  42.846  54.279  1.00  0.00    -0.169 F 
HETATM   34  F   UNL     1      29.240  41.558  53.137  1.00  0.00    -0.169 F 
HETATM   35  F   UNL     1      30.019  43.355  52.217  1.00  0.00    -0.169 F 
ENDBRANCH  29  32
ENDBRANCH   1  21
TORSDOF 8
ENDMDL
MODEL 3
REMARK VINA RESULT:      -8.3      4.321      9.567
REMARK  8 active torsions:
REMARK  status: ('A' for Active; 'I' for Inactive)
REMARK    1  A    between atoms: C_8  and  C_9 
REMARK       I    between atoms: C_9  and  N_10 
REMARK    2  A    between atoms: N_10  and  N_11 
REMARK    3  A    between atoms: N_11  and  C_12 
REMARK    4  A    between atoms: C_12  and  N_13 
REMARK    5  A    between atoms: N_13  and  C_14 
REMARK    6  A    between atoms: C_15  and  O_16 
REMARK    7  A    between atoms: C_19  and  O_20 
REMARK    8  A    between atoms: C_26  and  C_27 
ROOT
HETATM    1  C   UNL     1      25.369  46.591  51.821  1.00  0.00     0.275 C 
HETATM    2  N   UNL     1      24.845  46.670  50.544  1.00  0.00    -0.263 N 
HETATM    3  O   UNL     1      25.301  47.520  52.623  1.00  0.00    -0.266 OA
HETATM    4  H   UNL     1      25.226  46.044  49.836  1.00  0.00     0.190 HD
ENDROOT
BRANCH   2   5
HETATM    5  N   UNL     1      24.397  47.920  50.073  1.00  0.00    -0.273 N 
HETATM    6  H   UNL     1      23.821  48.437  50.740  1.00  0.00     0.189 HD
BRANCH   5   7
HETATM    7  C   UNL     1      25.182  48.641  49.171  1.00  0.00     0.191 C 
HETATM    8  S   UNL     1      26.860  48.644  49.247  1.00  0.00    -0.039 SA
BRANCH   7   9
HETATM    9  N   UNL     1      24.381  49.234  48.210  1.00  0.00    -0.330 N 
HETATM   10  H   UNL     1      24.884  49.596  47.404  1.00  0.00     0.168 HD
BRANCH   9  11
HETATM   11  C   UNL     1      23.049  49.707  48.276  1.00  0.00     0.068 A 
HETATM   12  C   UNL     1      22.027  48.809  47.898  1.00  0.00     0.097 A 
HETATM   13  C   UNL     1      20.686  49.209  47.953  1.00  0.00     0.075 A 
HETATM   14  C   UNL     1      20.354  50.491  48.395  1.00  0.00     0.070 A 
HETATM   15  C   UNL     1      21.365  51.359  48.807  1.00  0.00     0.039 A 
HETATM   16  C   UNL     1      22.705  50.970  48.753  1.00  0.00     0.035 A 
BRANCH  12  17
HETATM   17  O   UNL     1      22.462  47.569  47.486  1.00  0.00    -0.354 OA
HETATM   18  C   UNL     1      21.786  46.434  48.016  1.00  0.00     0.210 C 
ENDBRANCH  12  17
BRANCH  14  19
HETATM   19  O   UNL     1      19.091  51.008  48.496  1.00  0.00    -0.356 OA
HETATM   20  C   UNL     1      18.797  51.771  49.659  1.00  0.00     0.210 C 
ENDBRANCH  14  19
ENDBRANCH   9  11
ENDBRANCH   7   9
ENDBRANCH   5   7
ENDBRANCH   2   5
BRANCH   1  21
HETATM   21  C   UNL     1      26.061  45.350  52.105  1.00  0.00     0.098 A 
HETATM   22  C   UNL     1      26.976  45.059  53.101  1.00  0.00     0.138 A 
HETATM   23  N   UNL     1      27.562  45.790  54.080  1.00  0.00    -0.370 N 
HETATM   24  N   UNL     1      27.299  43.731  52.941  1.00  0.00    -0.240 N 
HETATM   25  C   UNL     1      28.253  45.125  55.181  1.00  0.00     0.081 C 
HETATM   26  H   UNL     1      27.498  46.807  54.132  1.00  0.00     0.161 HD
HETATM   27  C   UNL     1      29.131  46.130  55.917  1.00  0.00     0.032 C 
HETATM   28  C   UNL     1      29.084  43.970  54.617  1.00  0.00     0.061 C 
HETATM   29  C   UNL     1      28.196  42.996  53.818  1.00  0.00     0.221 C 
HETATM   30  N   UNL     1      26.620  43.129  51.952  1.00  0.00    -0.181 NA
HETATM   31  C   UNL     1      25.908  44.124  51.415  1.00  0.00     0.160 A 
BRANCH  29  32
HETATM   32  C   UNL     1      29.070  42.019  53.062  1.00  0.00     0.409 C 
HETATM   33  F   UNL     1      28.771  40.730  53.340  1.00  0.00    -0.169 F 
HETATM   34  F   UNL     1      28.869  42.178  51.723  1.00  0.00    -0.169 F 
HETATM   35  F   UNL     1      30.391  42.205  53.261  1.00  0.00    -0.169 F 
ENDBRANCH  29  32
ENDBRANCH   1  21
TORSDOF 8
ENDMDL
MODEL 4
REMARK VINA RESULT:      -8.2      4.255      8.279
REMARK  8 active torsions:
REMARK  status: ('A' for Active; 'I' for Inactive)
REMARK    1  A    between atoms: C_8  and  C_9 
REMARK       I    between atoms: C_9  and  N_10 
REMARK    2  A    between atoms: N_10  and  N_11 
REMARK    3  A    between atoms: N_11  and  C_12 
REMARK    4  A    between atoms: C_12  and  N_13 
REMARK    5  A    between atoms: N_13  and  C_14 
REMARK    6  A    between atoms: C_15  and  O_16 
REMARK    7  A    between atoms: C_19  and  O_20 
REMARK    8  A    between atoms: C_26  and  C_27 
ROOT
HETATM    1  C   UNL     1      28.705  41.390  52.872  1.00  0.00     0.275 C 
HETATM    2  N   UNL     1      28.738  41.291  51.494  1.00  0.00    -0.263 N 
HETATM    3  O   UNL     1      28.737  40.406  53.608  1.00  0.00    -0.266 OA
HETATM    4  H   UNL     1      28.361  42.069  50.954  1.00  0.00     0.190 HD
ENDROOT
BRANCH   2   5
HETATM    5  N   UNL     1      28.601  40.019  50.904  1.00  0.00    -0.273 N 
HETATM    6  H   UNL     1      28.297  39.288  51.550  1.00  0.00     0.189 HD
BRANCH   5   7
HETATM    7  C   UNL     1      28.236  39.915  49.561  1.00  0.00     0.191 C 
HETATM    8  S   UNL     1      28.361  38.472  48.708  1.00  0.00    -0.039 SA
BRANCH   7   9
HETATM    9  N   UNL     1      27.696  41.110  49.118  1.00  0.00    -0.330 N 
HETATM   10  H   UNL     1      28.356  41.882  49.072  1.00  0.00     0.168 HD
BRANCH   9  11
HETATM   11  C   UNL     1      26.351  41.539  49.018  1.00  0.00     0.068 A 
HETATM   12  C   UNL     1      26.094  42.909  49.241  1.00  0.00     0.097 A 
HETATM   13  C   UNL     1      24.786  43.403  49.143  1.00  0.00     0.075 A 
HETATM   14  C   UNL     1      23.735  42.544  48.813  1.00  0.00     0.070 A 
HETATM   15  C   UNL     1      24.002  41.200  48.554  1.00  0.00     0.039 A 
HETATM   16  C   UNL     1      25.302  40.699  48.650  1.00  0.00     0.035 A 
BRANCH  12  17
HETATM   17  O   UNL     1      27.200  43.669  49.551  1.00  0.00    -0.354 OA
HETATM   18  C   UNL     1      26.998  45.066  49.733  1.00  0.00     0.210 C 
ENDBRANCH  12  17
BRANCH  14  19
HETATM   19  O   UNL     1      22.418  42.892  48.687  1.00  0.00    -0.356 OA
HETATM   20  C   UNL     1      22.070  44.230  49.018  1.00  0.00     0.210 C 
ENDBRANCH  14  19
ENDBRANCH   9  11
ENDBRANCH   7   9
ENDBRANCH   5   7
ENDBRANCH   2   5
BRANCH   1  21
HETATM   21  C   UNL     1      28.560  42.744  53.369  1.00  0.00     0.098 A 
HETATM   22  C   UNL     1      29.263  43.397  54.365  1.00  0.00     0.138 A 
HETATM   23  N   UNL     1      30.244  43.022  55.222  1.00  0.00    -0.370 N 
HETATM   24  N   UNL     1      28.749  44.672  54.417  1.00  0.00    -0.240 N 
HETATM   25  C   UNL     1      31.008  44.030  55.951  1.00  0.00     0.081 C 
HETATM   26  H   UNL     1      30.534  42.052  55.349  1.00  0.00     0.161 HD
HETATM   27  C   UNL     1      31.761  43.371  57.101  1.00  0.00     0.032 C 
HETATM   28  C   UNL     1      30.047  45.105  56.462  1.00  0.00     0.061 C 
HETATM   29  C   UNL     1      29.243  45.718  55.298  1.00  0.00     0.221 C 
HETATM   30  N   UNL     1      27.805  44.908  53.492  1.00  0.00    -0.181 NA
HETATM   31  C   UNL     1      27.658  43.724  52.892  1.00  0.00     0.160 A 
BRANCH  29  32
HETATM   32  C   UNL     1      28.128  46.580  55.851  1.00  0.00     0.409 C 
HETATM   33  F   UNL     1      26.910  46.011  55.707  1.00  0.00    -0.169 F 
HETATM   34  F   UNL     1      28.315  46.751  57.191  1.00  0.00    -0.169 F 
HETATM   35  F   UNL     1      28.088  47.821  55.323  1.00  0.00    -0.169 F 
ENDBRANCH  29  32
ENDBRANCH   1  21
TORSDOF 8
ENDMDL
MODEL 5
REMARK VINA RESULT:      -8.2      4.951      8.452
REMARK  8 active torsions:
REMARK  status: ('A' for Active; 'I' for Inactive)
REMARK    1  A    between atoms: C_8  and  C_9 
REMARK       I    between atoms: C_9  and  N_10 
REMARK    2  A    between atoms: N_10  and  N_11 
REMARK    3  A    between atoms: N_11  and  C_12 
REMARK    4  A    between atoms: C_12  and  N_13 
REMARK    5  A    between atoms: N_13  and  C_14 
REMARK    6  A    between atoms: C_15  and  O_16 
REMARK    7  A    between atoms: C_19  and  O_20 
REMARK    8  A    between atoms: C_26  and  C_27 
ROOT
HETATM    1  C   UNL     1      26.643  46.444  54.321  1.00  0.00     0.275 C 
HETATM    2  N   UNL     1      26.679  46.326  52.945  1.00  0.00    -0.263 N 
HETATM    3  O   UNL     1      25.696  46.954  54.917  1.00  0.00    -0.266 OA
HETATM    4  H   UNL     1      27.592  46.235  52.501  1.00  0.00     0.190 HD
ENDROOT
BRANCH   2   5
HETATM    5  N   UNL     1      25.698  46.990  52.183  1.00  0.00    -0.273 N 
HETATM    6  H   UNL     1      25.349  47.851  52.608  1.00  0.00     0.189 HD
BRANCH   5   7
HETATM    7  C   UNL     1      25.722  46.897  50.790  1.00  0.00     0.191 C 
HETATM    8  S   UNL     1      26.576  47.983  49.834  1.00  0.00    -0.039 SA
BRANCH   7   9
HETATM    9  N   UNL     1      25.040  45.766  50.375  1.00  0.00    -0.330 N 
HETATM   10  H   UNL     1      24.029  45.860  50.364  1.00  0.00     0.168 HD
BRANCH   9  11
HETATM   11  C   UNL     1      25.461  44.419  50.264  1.00  0.00     0.068 A 
HETATM   12  C   UNL     1      24.485  43.420  50.471  1.00  0.00     0.097 A 
HETATM   13  C   UNL     1      24.832  42.067  50.362  1.00  0.00     0.075 A 
HETATM   14  C   UNL     1      26.140  41.702  50.036  1.00  0.00     0.070 A 
HETATM   15  C   UNL     1      27.089  42.694  49.793  1.00  0.00     0.039 A 
HETATM   16  C   UNL     1      26.754  44.046  49.900  1.00  0.00     0.035 A 
BRANCH  12  17
HETATM   17  O   UNL     1      23.227  43.888  50.778  1.00  0.00    -0.354 OA
HETATM   18  C   UNL     1      22.247  43.841  49.746  1.00  0.00     0.210 C 
ENDBRANCH  12  17
BRANCH  14  19
HETATM   19  O   UNL     1      26.611  40.425  49.900  1.00  0.00    -0.356 OA
HETATM   20  C   UNL     1      27.948  40.275  49.440  1.00  0.00     0.210 C 
ENDBRANCH  14  19
ENDBRANCH   9  11
ENDBRANCH   7   9
ENDBRANCH   5   7
ENDBRANCH   2   5
BRANCH   1  21
HETATM   21  C   UNL     1      27.841  45.979  54.990  1.00  0.00     0.098 A 
HETATM   22  C   UNL     1      28.674  44.921  54.672  1.00  0.00     0.138 A 
HETATM   23  N   UNL     1      28.652  43.963  53.714  1.00  0.00    -0.370 N 
HETATM   24  N   UNL     1      29.679  44.936  55.613  1.00  0.00    -0.240 N 
HETATM   25  C   UNL     1      29.845  43.169  53.440  1.00  0.00     0.081 C 
HETATM   26  H   UNL     1      27.847  43.797  53.109  1.00  0.00     0.161 HD
HETATM   27  C   UNL     1      29.467  41.941  52.620  1.00  0.00     0.032 C 
HETATM   28  C   UNL     1      30.491  42.771  54.769  1.00  0.00     0.061 C 
HETATM   29  C   UNL     1      30.808  44.019  55.618  1.00  0.00     0.221 C 
HETATM   30  N   UNL     1      29.588  45.956  56.480  1.00  0.00    -0.181 NA
HETATM   31  C   UNL     1      28.447  46.557  56.131  1.00  0.00     0.160 A 
BRANCH  29  32
HETATM   32  C   UNL     1      31.198  43.593  57.017  1.00  0.00     0.409 C 
HETATM   33  F   UNL     1      30.856  42.312  57.285  1.00  0.00    -0.169 F 
HETATM   34  F   UNL     1      32.553  43.663  57.147  1.00  0.00    -0.169 F 
HETATM   35  F   UNL     1      30.694  44.384  57.986  1.00  0.00    -0.169 F 
ENDBRANCH  29  32
ENDBRANCH   1  21
TORSDOF 8
ENDMDL
MODEL 6
REMARK VINA RESULT:      -8.1      4.256      8.984
REMARK  8 active torsions:
REMARK  status: ('A' for Active; 'I' for Inactive)
REMARK    1  A    between atoms: C_8  and  C_9 
REMARK       I    between atoms: C_9  and  N_10 
REMARK    2  A    between atoms: N_10  and  N_11 
REMARK    3  A    between atoms: N_11  and  C_12 
REMARK    4  A    between atoms: C_12  and  N_13 
REMARK    5  A    between atoms: N_13  and  C_14 
REMARK    6  A    between atoms: C_15  and  O_16 
REMARK    7  A    between atoms: C_19  and  O_20 
REMARK    8  A    between atoms: C_26  and  C_27 
ROOT
HETATM    1  C   UNL     1      24.417  44.344  51.314  1.00  0.00     0.275 C 
HETATM    2  N   UNL     1      23.886  45.319  50.492  1.00  0.00    -0.263 N 
HETATM    3  O   UNL     1      23.963  43.203  51.366  1.00  0.00    -0.266 OA
HETATM    4  H   UNL     1      24.056  46.293  50.741  1.00  0.00     0.190 HD
ENDROOT
BRANCH   2   5
HETATM    5  N   UNL     1      22.661  45.064  49.844  1.00  0.00    -0.273 N 
HETATM    6  H   UNL     1      21.898  44.813  50.474  1.00  0.00     0.189 HD
BRANCH   5   7
HETATM    7  C   UNL     1      22.352  45.734  48.659  1.00  0.00     0.191 C 
HETATM    8  S   UNL     1      21.464  45.014  47.428  1.00  0.00    -0.039 SA
BRANCH   7   9
HETATM    9  N   UNL     1      22.798  47.044  48.720  1.00  0.00    -0.330 N 
HETATM   10  H   UNL     1      23.776  47.148  48.974  1.00  0.00     0.168 HD
BRANCH   9  11
HETATM   11  C   UNL     1      22.083  48.263  48.804  1.00  0.00     0.068 A 
HETATM   12  C   UNL     1      22.816  49.416  49.159  1.00  0.00     0.097 A 
HETATM   13  C   UNL     1      22.172  50.657  49.246  1.00  0.00     0.075 A 
HETATM   14  C   UNL     1      20.807  50.760  48.970  1.00  0.00     0.070 A 
HETATM   15  C   UNL     1      20.097  49.624  48.580  1.00  0.00     0.039 A 
HETATM   16  C   UNL     1      20.730  48.383  48.492  1.00  0.00     0.035 A 
BRANCH  12  17
HETATM   17  O   UNL     1      24.155  49.205  49.402  1.00  0.00    -0.354 OA
HETATM   18  C   UNL     1      25.079  49.787  48.489  1.00  0.00     0.210 C 
ENDBRANCH  12  17
BRANCH  14  19
HETATM   19  O   UNL     1      20.058  51.904  49.019  1.00  0.00    -0.356 OA
HETATM   20  C   UNL     1      18.824  51.839  49.722  1.00  0.00     0.210 C 
ENDBRANCH  14  19
ENDBRANCH   9  11
ENDBRANCH   7   9
ENDBRANCH   5   7
ENDBRANCH   2   5
BRANCH   1  21
HETATM   21  C   UNL     1      25.507  44.800  52.152  1.00  0.00     0.098 A 
HETATM   22  C   UNL     1      26.567  44.088  52.685  1.00  0.00     0.138 A 
HETATM   23  N   UNL     1      26.925  42.781  52.665  1.00  0.00    -0.370 N 
HETATM   24  N   UNL     1      27.327  45.003  53.378  1.00  0.00    -0.240 N 
HETATM   25  C   UNL     1      28.273  42.382  53.056  1.00  0.00     0.081 C 
HETATM   26  H   UNL     1      26.312  42.039  52.324  1.00  0.00     0.161 HD
HETATM   27  C   UNL     1      28.309  40.880  53.314  1.00  0.00     0.032 C 
HETATM   28  C   UNL     1      28.679  43.168  54.305  1.00  0.00     0.061 C 
HETATM   29  C   UNL     1      28.575  44.686  54.053  1.00  0.00     0.221 C 
HETATM   30  N   UNL     1      26.868  46.261  53.286  1.00  0.00    -0.181 NA
HETATM   31  C   UNL     1      25.739  46.127  52.585  1.00  0.00     0.160 A 
BRANCH  29  32
HETATM   32  C   UNL     1      28.726  45.427  55.364  1.00  0.00     0.409 C 
HETATM   33  F   UNL     1      29.663  44.875  56.168  1.00  0.00    -0.169 F 
HETATM   34  F   UNL     1      29.139  46.702  55.115  1.00  0.00    -0.169 F 
HETATM   35  F   UNL     1      27.576  45.541  56.060  1.00  0.00    -0.169 F 
ENDBRANCH  29  32
ENDBRANCH   1  21
TORSDOF 8
ENDMDL
MODEL 7
REMARK VINA RESULT:      -8.0      4.475      8.903
REMARK  8 active torsions:
REMARK  status: ('A' for Active; 'I' for Inactive)
REMARK    1  A    between atoms: C_8  and  C_9 
REMARK       I    between atoms: C_9  and  N_10 
REMARK    2  A    between atoms: N_10  and  N_11 
REMARK    3  A    between atoms: N_11  and  C_12 
REMARK    4  A    between atoms: C_12  and  N_13 
REMARK    5  A    between atoms: N_13  and  C_14 
REMARK    6  A    between atoms: C_15  and  O_16 
REMARK    7  A    between atoms: C_19  and  O_20 
REMARK    8  A    between atoms: C_26  and  C_27 
ROOT
HETATM    1  C   UNL     1      25.848  46.484  53.463  1.00  0.00     0.275 C 
HETATM    2  N   UNL     1      25.427  45.218  53.101  1.00  0.00    -0.263 N 
HETATM    3  O   UNL     1      25.398  47.504  52.945  1.00  0.00    -0.266 OA
HETATM    4  H   UNL     1      26.056  44.438  53.288  1.00  0.00     0.190 HD
ENDROOT
BRANCH   2   5
HETATM    5  N   UNL     1      24.608  45.078  51.963  1.00  0.00    -0.273 N 
HETATM    6  H   UNL     1      23.828  45.737  51.924  1.00  0.00     0.189 HD
BRANCH   5   7
HETATM    7  C   UNL     1      25.161  44.629  50.762  1.00  0.00     0.191 C 
HETATM    8  S   UNL     1      25.545  43.014  50.500  1.00  0.00    -0.039 SA
BRANCH   7   9
HETATM    9  N   UNL     1      25.239  45.671  49.854  1.00  0.00    -0.330 N 
HETATM   10  H   UNL     1      26.185  45.948  49.606  1.00  0.00     0.168 HD
BRANCH   9  11
HETATM   11  C   UNL     1      24.272  46.621  49.448  1.00  0.00     0.068 A 
HETATM   12  C   UNL     1      24.636  47.983  49.524  1.00  0.00     0.097 A 
HETATM   13  C   UNL     1      23.730  48.975  49.124  1.00  0.00     0.075 A 
HETATM   14  C   UNL     1      22.470  48.619  48.638  1.00  0.00     0.070 A 
HETATM   15  C   UNL     1      22.132  47.270  48.528  1.00  0.00     0.039 A 
HETATM   16  C   UNL     1      23.028  46.275  48.924  1.00  0.00     0.035 A 
BRANCH  12  17
HETATM   17  O   UNL     1      25.902  48.223  50.009  1.00  0.00    -0.354 OA
HETATM   18  C   UNL     1      26.840  48.810  49.113  1.00  0.00     0.210 C 
ENDBRANCH  12  17
BRANCH  14  19
HETATM   19  O   UNL     1      21.494  49.481  48.218  1.00  0.00    -0.356 OA
HETATM   20  C   UNL     1      21.734  50.870  48.411  1.00  0.00     0.210 C 
ENDBRANCH  14  19
ENDBRANCH   9  11
ENDBRANCH   7   9
ENDBRANCH   5   7
ENDBRANCH   2   5
BRANCH   1  21
HETATM   21  C   UNL     1      26.906  46.499  54.452  1.00  0.00     0.098 A 
HETATM   22  C   UNL     1      27.983  45.645  54.604  1.00  0.00     0.138 A 
HETATM   23  N   UNL     1      28.391  44.523  53.960  1.00  0.00    -0.370 N 
HETATM   24  N   UNL     1      28.697  46.124  55.679  1.00  0.00    -0.240 N 
HETATM   25  C   UNL     1      29.747  44.018  54.151  1.00  0.00     0.081 C 
HETATM   26  H   UNL     1      27.812  44.028  53.282  1.00  0.00     0.161 HD
HETATM   27  C   UNL     1      29.835  42.583  53.644  1.00  0.00     0.032 C 
HETATM   28  C   UNL     1      30.103  44.104  55.636  1.00  0.00     0.061 C 
HETATM   29  C   UNL     1      29.945  45.548  56.154  1.00  0.00     0.221 C 
HETATM   30  N   UNL     1      28.192  47.254  56.198  1.00  0.00    -0.181 NA
HETATM   31  C   UNL     1      27.080  47.451  55.485  1.00  0.00     0.160 A 
BRANCH  29  32
HETATM   32  C   UNL     1      30.048  45.558  57.664  1.00  0.00     0.409 C 
HETATM   33  F   UNL     1      30.685  46.654  58.135  1.00  0.00    -0.169 F 
HETATM   34  F   UNL     1      28.795  45.584  58.200  1.00  0.00    -0.169 F 
HETATM   35  F   UNL     1      30.644  44.462  58.176  1.00  0.00    -0.169 F 
ENDBRANCH  29  32
ENDBRANCH   1  21
TORSDOF 8
ENDMDL
MODEL 8
REMARK VINA RESULT:      -8.0      5.002      8.800
REMARK  8 active torsions:
REMARK  status: ('A' for Active; 'I' for Inactive)
REMARK    1  A    between atoms: C_8  and  C_9 
REMARK       I    between atoms: C_9  and  N_10 
REMARK    2  A    between atoms: N_10  and  N_11 
REMARK    3  A    between atoms: N_11  and  C_12 
REMARK    4  A    between atoms: C_12  and  N_13 
REMARK    5  A    between atoms: N_13  and  C_14 
REMARK    6  A    between atoms: C_15  and  O_16 
REMARK    7  A    between atoms: C_19  and  O_20 
REMARK    8  A    between atoms: C_26  and  C_27 
ROOT
HETATM    1  C   UNL     1      28.475  41.279  52.886  1.00  0.00     0.275 C 
HETATM    2  N   UNL     1      28.253  41.076  51.538  1.00  0.00    -0.263 N 
HETATM    3  O   UNL     1      28.688  40.355  53.669  1.00  0.00    -0.266 OA
HETATM    4  H   UNL     1      27.748  41.798  51.026  1.00  0.00     0.190 HD
ENDROOT
BRANCH   2   5
HETATM    5  N   UNL     1      28.063  39.759  51.074  1.00  0.00    -0.273 N 
HETATM    6  H   UNL     1      27.087  39.512  50.903  1.00  0.00     0.189 HD
BRANCH   5   7
HETATM    7  C   UNL     1      29.051  39.149  50.298  1.00  0.00     0.191 C 
HETATM    8  S   UNL     1      29.888  37.789  50.821  1.00  0.00    -0.039 SA
BRANCH   7   9
HETATM    9  N   UNL     1      29.139  39.768  49.063  1.00  0.00    -0.330 N 
HETATM   10  H   UNL     1      29.759  40.573  49.035  1.00  0.00     0.168 HD
BRANCH   9  11
HETATM   11  C   UNL     1      28.301  39.689  47.925  1.00  0.00     0.068 A 
HETATM   12  C   UNL     1      27.463  40.794  47.664  1.00  0.00     0.097 A 
HETATM   13  C   UNL     1      26.619  40.786  46.546  1.00  0.00     0.075 A 
HETATM   14  C   UNL     1      26.614  39.692  45.679  1.00  0.00     0.070 A 
HETATM   15  C   UNL     1      27.475  38.621  45.919  1.00  0.00     0.039 A 
HETATM   16  C   UNL     1      28.318  38.619  47.032  1.00  0.00     0.035 A 
BRANCH  12  17
HETATM   17  O   UNL     1      27.551  41.823  48.576  1.00  0.00    -0.354 OA
HETATM   18  C   UNL     1      26.332  42.426  48.995  1.00  0.00     0.210 C 
ENDBRANCH  12  17
BRANCH  14  19
HETATM   19  O   UNL     1      25.842  39.554  44.557  1.00  0.00    -0.356 OA
HETATM   20  C   UNL     1      25.274  40.740  44.016  1.00  0.00     0.210 C 
ENDBRANCH  14  19
ENDBRANCH   9  11
ENDBRANCH   7   9
ENDBRANCH   5   7
ENDBRANCH   2   5
BRANCH   1  21
HETATM   21  C   UNL     1      28.367  42.661  53.306  1.00  0.00     0.098 A 
HETATM   22  C   UNL     1      29.088  43.350  54.265  1.00  0.00     0.138 A 
HETATM   23  N   UNL     1      30.060  42.998  55.142  1.00  0.00    -0.370 N 
HETATM   24  N   UNL     1      28.608  44.640  54.245  1.00  0.00    -0.240 N 
HETATM   25  C   UNL     1      30.851  44.025  55.813  1.00  0.00     0.081 C 
HETATM   26  H   UNL     1      30.325  42.030  55.323  1.00  0.00     0.161 HD
HETATM   27  C   UNL     1      31.588  43.411  56.998  1.00  0.00     0.032 C 
HETATM   28  C   UNL     1      29.920  45.152  56.263  1.00  0.00     0.061 C 
HETATM   29  C   UNL     1      29.131  45.720  55.066  1.00  0.00     0.221 C 
HETATM   30  N   UNL     1      27.670  44.849  53.308  1.00  0.00    -0.181 NA
HETATM   31  C   UNL     1      27.491  43.638  52.775  1.00  0.00     0.160 A 
BRANCH  29  32
HETATM   32  C   UNL     1      28.041  46.641  55.570  1.00  0.00     0.409 C 
HETATM   33  F   UNL     1      28.117  46.856  56.903  1.00  0.00    -0.169 F 
HETATM   34  F   UNL     1      28.173  47.862  54.978  1.00  0.00    -0.169 F 
HETATM   35  F   UNL     1      26.794  46.221  55.273  1.00  0.00    -0.169 F 
ENDBRANCH  29  32
ENDBRANCH   1  21
TORSDOF 8
ENDMDL
MODEL 9
REMARK VINA RESULT:      -7.9      4.933     10.063
REMARK  8 active torsions:
REMARK  status: ('A' for Active; 'I' for Inactive)
REMARK    1  A    between atoms: C_8  and  C_9 
REMARK       I    between atoms: C_9  and  N_10 
REMARK    2  A    between atoms: N_10  and  N_11 
REMARK    3  A    between atoms: N_11  and  C_12 
REMARK    4  A    between atoms: C_12  and  N_13 
REMARK    5  A    between atoms: N_13  and  C_14 
REMARK    6  A    between atoms: C_15  and  O_16 
REMARK    7  A    between atoms: C_19  and  O_20 
REMARK    8  A    between atoms: C_26  and  C_27 
ROOT
HETATM    1  C   UNL     1      24.256  46.290  50.263  1.00  0.00     0.275 C 
HETATM    2  N   UNL     1      23.937  47.634  50.294  1.00  0.00    -0.263 N 
HETATM    3  O   UNL     1      23.711  45.497  49.498  1.00  0.00    -0.266 OA
HETATM    4  H   UNL     1      24.144  48.150  51.149  1.00  0.00     0.190 HD
ENDROOT
BRANCH   2   5
HETATM    5  N   UNL     1      22.812  48.079  49.573  1.00  0.00    -0.273 N 
HETATM    6  H   UNL     1      21.955  47.559  49.771  1.00  0.00     0.189 HD
BRANCH   5   7
HETATM    7  C   UNL     1      22.707  49.424  49.214  1.00  0.00     0.191 C 
HETATM    8  S   UNL     1      23.740  50.136  48.096  1.00  0.00    -0.039 SA
BRANCH   7   9
HETATM    9  N   UNL     1      21.610  49.999  49.832  1.00  0.00    -0.330 N 
HETATM   10  H   UNL     1      21.561  49.849  50.836  1.00  0.00     0.168 HD
BRANCH   9  11
HETATM   11  C   UNL     1      20.393  50.483  49.296  1.00  0.00     0.068 A 
HETATM   12  C   UNL     1      19.286  49.607  49.316  1.00  0.00     0.097 A 
HETATM   13  C   UNL     1      18.048  50.029  48.814  1.00  0.00     0.075 A 
HETATM   14  C   UNL     1      17.901  51.321  48.305  1.00  0.00     0.070 A 
HETATM   15  C   UNL     1      18.987  52.195  48.325  1.00  0.00     0.039 A 
HETATM   16  C   UNL     1      20.226  51.784  48.822  1.00  0.00     0.035 A 
BRANCH  12  17
HETATM   17  O   UNL     1      19.537  48.361  49.847  1.00  0.00    -0.354 OA
HETATM   18  C   UNL     1      19.366  47.242  48.985  1.00  0.00     0.210 C 
ENDBRANCH  12  17
BRANCH  14  19
HETATM   19  O   UNL     1      16.754  51.857  47.785  1.00  0.00    -0.356 OA
HETATM   20  C   UNL     1      16.342  51.386  46.508  1.00  0.00     0.210 C 
ENDBRANCH  14  19
ENDBRANCH   9  11
ENDBRANCH   7   9
ENDBRANCH   5   7
ENDBRANCH   2   5
BRANCH   1  21
HETATM   21  C   UNL     1      25.236  45.887  51.252  1.00  0.00     0.098 A 
HETATM   22  C   UNL     1      26.052  44.770  51.280  1.00  0.00     0.138 A 
HETATM   23  N   UNL     1      26.192  43.689  50.475  1.00  0.00    -0.370 N 
HETATM   24  N   UNL     1      26.812  44.886  52.422  1.00  0.00    -0.240 N 
HETATM   25  C   UNL     1      27.365  42.828  50.597  1.00  0.00     0.081 C 
HETATM   26  H   UNL     1      25.540  43.464  49.723  1.00  0.00     0.161 HD
HETATM   27  C   UNL     1      27.110  41.510  49.877  1.00  0.00     0.032 C 
HETATM   28  C   UNL     1      27.660  42.601  52.081  1.00  0.00     0.061 C 
HETATM   29  C   UNL     1      27.849  43.945  52.813  1.00  0.00     0.221 C 
HETATM   30  N   UNL     1      26.586  46.020  53.104  1.00  0.00    -0.181 NA
HETATM   31  C   UNL     1      25.596  46.600  52.420  1.00  0.00     0.160 A 
BRANCH  29  32
HETATM   32  C   UNL     1      27.878  43.708  54.308  1.00  0.00     0.409 C 
HETATM   33  F   UNL     1      28.335  44.779  54.996  1.00  0.00    -0.169 F 
HETATM   34  F   UNL     1      26.610  43.480  54.752  1.00  0.00    -0.169 F 
HETATM   35  F   UNL     1      28.596  42.625  54.672  1.00  0.00    -0.169 F 
ENDBRANCH  29  32
ENDBRANCH   1  21
TORSDOF 8
ENDMDL
MODEL 10
REMARK VINA RESULT:      -7.9      5.044     10.161
REMARK  8 active torsions:
REMARK  status: ('A' for Active; 'I' for Inactive)
REMARK    1  A    between atoms: C_8  and  C_9 
REMARK       I    between atoms: C_9  and  N_10 
REMARK    2  A    between atoms: N_10  and  N_11 
REMARK    3  A    between atoms: N_11  and  C_12 
REMARK    4  A    between atoms: C_12  and  N_13 
REMARK    5  A    between atoms: N_13  and  C_14 
REMARK    6  A    between atoms: C_15  and  O_16 
REMARK    7  A    between atoms: C_19  and  O_20 
REMARK    8  A    between atoms: C_26  and  C_27 
ROOT
HETATM    1  C   UNL     1      25.130  47.546  50.173  1.00  0.00     0.275 C 
HETATM    2  N   UNL     1      23.762  47.695  50.297  1.00  0.00    -0.263 N 
HETATM    3  O   UNL     1      25.809  48.255  49.432  1.00  0.00    -0.266 OA
HETATM    4  H   UNL     1      23.226  46.893  50.625  1.00  0.00     0.190 HD
ENDROOT
BRANCH   2   5
HETATM    5  N   UNL     1      23.090  48.549  49.400  1.00  0.00    -0.273 N 
HETATM    6  H   UNL     1      23.708  49.070  48.775  1.00  0.00     0.189 HD
BRANCH   5   7
HETATM    7  C   UNL     1      21.815  48.209  48.944  1.00  0.00     0.191 C 
HETATM    8  S   UNL     1      21.575  47.163  47.651  1.00  0.00    -0.039 SA
BRANCH   7   9
HETATM    9  N   UNL     1      20.850  48.776  49.759  1.00  0.00    -0.330 N 
HETATM   10  H   UNL     1      20.642  48.248  50.602  1.00  0.00     0.168 HD
BRANCH   9  11
HETATM   11  C   UNL     1      19.884  49.775  49.493  1.00  0.00     0.068 A 
HETATM   12  C   UNL     1      18.531  49.374  49.471  1.00  0.00     0.097 A 
HETATM   13  C   UNL     1      17.522  50.316  49.228  1.00  0.00     0.075 A 
HETATM   14  C   UNL     1      17.851  51.657  49.020  1.00  0.00     0.070 A 
HETATM   15  C   UNL     1      19.187  52.055  49.084  1.00  0.00     0.039 A 
HETATM   16  C   UNL     1      20.199  51.123  49.324  1.00  0.00     0.035 A 
BRANCH  12  17
HETATM   17  O   UNL     1      18.316  48.032  49.696  1.00  0.00    -0.354 OA
HETATM   18  C   UNL     1      17.417  47.362  48.819  1.00  0.00     0.210 C 
ENDBRANCH  12  17
BRANCH  14  19
HETATM   19  O   UNL     1      16.971  52.674  48.771  1.00  0.00    -0.356 OA
HETATM   20  C   UNL     1      15.620  52.311  48.518  1.00  0.00     0.210 C 
ENDBRANCH  14  19
ENDBRANCH   9  11
ENDBRANCH   7   9
ENDBRANCH   5   7
ENDBRANCH   2   5
BRANCH   1  21
HETATM   21  C   UNL     1      25.681  46.443  50.935  1.00  0.00     0.098 A 
HETATM   22  C   UNL     1      26.076  46.398  52.260  1.00  0.00     0.138 A 
HETATM   23  N   UNL     1      26.138  47.319  53.253  1.00  0.00    -0.370 N 
HETATM   24  N   UNL     1      26.496  45.107  52.485  1.00  0.00    -0.240 N 
HETATM   25  C   UNL     1      26.302  46.893  54.640  1.00  0.00     0.081 C 
HETATM   26  H   UNL     1      26.011  48.319  53.096  1.00  0.00     0.161 HD
HETATM   27  C   UNL     1      26.720  48.084  55.495  1.00  0.00     0.032 C 
HETATM   28  C   UNL     1      27.347  45.778  54.695  1.00  0.00     0.061 C 
HETATM   29  C   UNL     1      26.946  44.607  53.774  1.00  0.00     0.221 C 
HETATM   30  N   UNL     1      26.350  44.302  51.422  1.00  0.00    -0.181 NA
HETATM   31  C   UNL     1      25.903  45.125  50.470  1.00  0.00     0.160 A 
BRANCH  29  32
HETATM   32  C   UNL     1      28.107  43.644  53.645  1.00  0.00     0.409 C 
HETATM   33  F   UNL     1      28.792  43.499  54.802  1.00  0.00    -0.169 F 
HETATM   34  F   UNL     1      27.633  42.408  53.323  1.00  0.00    -0.169 F 
HETATM   35  F   UNL     1      28.978  43.971  52.669  1.00  0.00    -0.169 F 
ENDBRANCH  29  32
ENDBRANCH   1  21
TORSDOF 8
ENDMDL
