MODEL 1
REMARK VINA RESULT:     -11.0      0.000      0.000
REMARK  7 active torsions:
REMARK  status: ('A' for Active; 'I' for Inactive)
REMARK    1  A    between atoms: C_4  and  C_14 
REMARK    2  A    between atoms: C_7  and  C_8 
REMARK       I    between atoms: C_14  and  N_16 
REMARK    3  A    between atoms: N_16  and  C_17 
REMARK    4  A    between atoms: C_17  and  C_18 
REMARK    5  A    between atoms: C_22  and  C_24 
REMARK       I    between atoms: C_24  and  N_26 
REMARK    6  A    between atoms: N_26  and  C_27 
REMARK    7  A    between atoms: C_27  and  C_28 
ROOT
HETATM    1  C   UNL     1      25.288  47.106  50.171  1.00  0.00    -0.040 A 
HETATM    2  C   UNL     1      26.642  47.416  49.987  1.00  0.00     0.009 A 
HETATM    3  C   UNL     1      27.014  48.532  49.237  1.00  0.00     0.002 A 
HETATM    4  C   UNL     1      26.039  49.361  48.682  1.00  0.00     0.017 A 
HETATM    5  C   UNL     1      24.681  49.078  48.874  1.00  0.00     0.032 A 
HETATM    6  C   UNL     1      24.313  47.940  49.599  1.00  0.00     0.026 A 
ENDROOT
BRANCH   1   7
HETATM    7  C   UNL     1      24.869  45.928  51.014  1.00  0.00     0.161 C 
BRANCH   7   8
HETATM    8  N   UNL     1      25.849  45.663  52.042  1.00  0.00    -0.353 N 
HETATM    9  C   UNL     1      26.032  46.504  53.116  1.00  0.00     0.251 C 
HETATM   10  O   UNL     1      25.389  47.529  53.310  1.00  0.00    -0.268 OA
HETATM   11  H   UNL     1      26.391  44.812  51.971  1.00  0.00     0.163 HD
BRANCH   9  12
HETATM   12  C   UNL     1      27.088  46.095  54.074  1.00  0.00     0.032 A 
HETATM   13  C   UNL     1      27.764  44.877  53.924  1.00  0.00     0.024 A 
HETATM   14  C   UNL     1      28.773  44.501  54.830  1.00  0.00    -0.050 A 
HETATM   15  C   UNL     1      29.481  43.188  54.619  1.00  0.00     0.049 C 
HETATM   16  C   UNL     1      29.107  45.376  55.885  1.00  0.00    -0.017 A 
HETATM   17  C   UNL     1      28.424  46.598  56.019  1.00  0.00     0.014 A 
HETATM   18  C   UNL     1      27.425  46.961  55.114  1.00  0.00     0.018 A 
BRANCH  16  19
HETATM   19  C   UNL     1      30.157  45.066  56.835  1.00  0.00     0.011 A 
HETATM   20  C   UNL     1      31.198  44.114  56.791  1.00  0.00     0.152 A 
HETATM   21  N   UNL     1      31.965  44.144  57.883  1.00  0.00    -0.187 NA
HETATM   22  N   UNL     1      31.421  45.123  58.626  1.00  0.00    -0.289 N 
HETATM   23  H   UNL     1      31.842  45.335  59.525  1.00  0.00     0.188 HD
HETATM   24  C   UNL     1      30.337  45.711  58.039  1.00  0.00     0.123 A 
ENDBRANCH  16  19
ENDBRANCH   9  12
ENDBRANCH   7   8
ENDBRANCH   1   7
BRANCH   5  25
HETATM   25  C   UNL     1      23.675  50.005  48.285  1.00  0.00     0.251 C 
HETATM   26  O   UNL     1      24.010  50.916  47.528  1.00  0.00    -0.268 OA
HETATM   27  N   UNL     1      22.348  49.817  48.618  1.00  0.00    -0.355 N 
HETATM   28  H   UNL     1      22.146  49.190  49.394  1.00  0.00     0.162 HD
BRANCH  27  29
HETATM   29  C   UNL     1      21.317  50.795  48.293  1.00  0.00     0.155 C 
BRANCH  29  30
HETATM   30  C   UNL     1      20.516  51.321  49.511  1.00  0.00     0.203 C 
HETATM   31  C   UNL     1      19.158  51.895  49.118  1.00  0.00     0.036 C 
HETATM   32  C   UNL     1      18.228  50.695  49.159  1.00  0.00     0.029 C 
HETATM   33  C   UNL     1      18.682  49.944  50.393  1.00  0.00     0.233 C 
HETATM   34  N   UNL     1      20.148  50.202  50.455  1.00  0.00    -0.069 N 
HETATM   35  H   UNL     1      20.679  49.340  50.194  1.00  0.00     0.277 HD
HETATM   36  H   UNL     1      20.464  50.397  51.412  1.00  0.00     0.277 HD
ENDBRANCH  29  30
ENDBRANCH  27  29
ENDBRANCH   5  25
TORSDOF 7
ENDMDL
MODEL 2
REMARK VINA RESULT:     -10.7      1.153      1.839
REMARK  7 active torsions:
REMARK  status: ('A' for Active; 'I' for Inactive)
REMARK    1  A    between atoms: C_4  and  C_14 
REMARK    2  A    between atoms: C_7  and  C_8 
REMARK       I    between atoms: C_14  and  N_16 
REMARK    3  A    between atoms: N_16  and  C_17 
REMARK    4  A    between atoms: C_17  and  C_18 
REMARK    5  A    between atoms: C_22  and  C_24 
REMARK       I    between atoms: C_24  and  N_26 
REMARK    6  A    between atoms: N_26  and  C_27 
REMARK    7  A    between atoms: C_27  and  C_28 
ROOT
HETATM    1  C   UNL     1      25.312  47.045  50.010  1.00  0.00    -0.040 A 
HETATM    2  C   UNL     1      26.614  47.532  49.841  1.00  0.00     0.009 A 
HETATM    3  C   UNL     1      26.836  48.732  49.166  1.00  0.00     0.002 A 
HETATM    4  C   UNL     1      25.759  49.470  48.672  1.00  0.00     0.017 A 
HETATM    5  C   UNL     1      24.450  49.010  48.853  1.00  0.00     0.032 A 
HETATM    6  C   UNL     1      24.234  47.789  49.501  1.00  0.00     0.026 A 
ENDROOT
BRANCH   1   7
HETATM    7  C   UNL     1      25.051  45.772  50.774  1.00  0.00     0.161 C 
BRANCH   7   8
HETATM    8  N   UNL     1      26.036  45.593  51.816  1.00  0.00    -0.353 N 
HETATM    9  C   UNL     1      26.822  44.465  51.897  1.00  0.00     0.251 C 
HETATM   10  O   UNL     1      26.775  43.531  51.104  1.00  0.00    -0.268 OA
HETATM   11  H   UNL     1      26.161  46.341  52.484  1.00  0.00     0.163 HD
BRANCH   9  12
HETATM   12  C   UNL     1      27.773  44.430  53.034  1.00  0.00     0.032 A 
HETATM   13  C   UNL     1      27.665  45.342  54.091  1.00  0.00     0.024 A 
HETATM   14  C   UNL     1      28.564  45.296  55.173  1.00  0.00    -0.050 A 
HETATM   15  C   UNL     1      28.399  46.289  56.294  1.00  0.00     0.049 C 
HETATM   16  C   UNL     1      29.570  44.306  55.185  1.00  0.00    -0.017 A 
HETATM   17  C   UNL     1      29.662  43.394  54.120  1.00  0.00     0.014 A 
HETATM   18  C   UNL     1      28.764  43.449  53.052  1.00  0.00     0.018 A 
BRANCH  16  19
HETATM   19  C   UNL     1      30.509  44.182  56.282  1.00  0.00     0.011 A 
HETATM   20  C   UNL     1      30.725  44.993  57.417  1.00  0.00     0.152 A 
HETATM   21  N   UNL     1      31.701  44.528  58.200  1.00  0.00    -0.187 NA
HETATM   22  N   UNL     1      32.108  43.412  57.571  1.00  0.00    -0.289 N 
HETATM   23  H   UNL     1      32.861  42.873  57.986  1.00  0.00     0.188 HD
HETATM   24  C   UNL     1      31.420  43.157  56.419  1.00  0.00     0.123 A 
ENDBRANCH  16  19
ENDBRANCH   9  12
ENDBRANCH   7   8
ENDBRANCH   1   7
BRANCH   5  25
HETATM   25  C   UNL     1      23.329  49.843  48.333  1.00  0.00     0.251 C 
HETATM   26  O   UNL     1      23.358  50.317  47.198  1.00  0.00    -0.268 OA
HETATM   27  N   UNL     1      22.253  50.072  49.167  1.00  0.00    -0.355 N 
HETATM   28  H   UNL     1      22.364  49.832  50.150  1.00  0.00     0.162 HD
BRANCH  27  29
HETATM   29  C   UNL     1      21.220  51.054  48.854  1.00  0.00     0.155 C 
BRANCH  29  30
HETATM   30  C   UNL     1      20.183  51.285  49.982  1.00  0.00     0.203 C 
HETATM   31  C   UNL     1      18.815  51.697  49.448  1.00  0.00     0.036 C 
HETATM   32  C   UNL     1      18.103  50.377  49.209  1.00  0.00     0.029 C 
HETATM   33  C   UNL     1      18.504  49.543  50.408  1.00  0.00     0.233 C 
HETATM   34  N   UNL     1      19.884  50.006  50.727  1.00  0.00    -0.069 N 
HETATM   35  H   UNL     1      20.582  49.277  50.458  1.00  0.00     0.277 HD
HETATM   36  H   UNL     1      20.028  50.116  51.737  1.00  0.00     0.277 HD
ENDBRANCH  29  30
ENDBRANCH  27  29
ENDBRANCH   5  25
TORSDOF 7
ENDMDL
MODEL 3
REMARK VINA RESULT:      -9.8      2.604      3.716
REMARK  7 active torsions:
REMARK  status: ('A' for Active; 'I' for Inactive)
REMARK    1  A    between atoms: C_4  and  C_14 
REMARK    2  A    between atoms: C_7  and  C_8 
REMARK       I    between atoms: C_14  and  N_16 
REMARK    3  A    between atoms: N_16  and  C_17 
REMARK    4  A    between atoms: C_17  and  C_18 
REMARK    5  A    between atoms: C_22  and  C_24 
REMARK       I    between atoms: C_24  and  N_26 
REMARK    6  A    between atoms: N_26  and  C_27 
REMARK    7  A    between atoms: C_27  and  C_28 
ROOT
HETATM    1  C   UNL     1      25.280  43.389  49.529  1.00  0.00    -0.040 A 
HETATM    2  C   UNL     1      24.300  42.452  49.878  1.00  0.00     0.009 A 
HETATM    3  C   UNL     1      22.949  42.800  49.852  1.00  0.00     0.002 A 
HETATM    4  C   UNL     1      22.563  44.081  49.454  1.00  0.00     0.017 A 
HETATM    5  C   UNL     1      23.528  45.023  49.079  1.00  0.00     0.032 A 
HETATM    6  C   UNL     1      24.883  44.679  49.139  1.00  0.00     0.026 A 
ENDROOT
BRANCH   1   7
HETATM    7  C   UNL     1      26.741  43.016  49.510  1.00  0.00     0.161 C 
BRANCH   7   8
HETATM    8  N   UNL     1      27.378  43.390  50.752  1.00  0.00    -0.353 N 
HETATM    9  C   UNL     1      28.198  42.528  51.444  1.00  0.00     0.251 C 
HETATM   10  O   UNL     1      28.475  41.392  51.078  1.00  0.00    -0.268 OA
HETATM   11  H   UNL     1      27.229  44.329  51.097  1.00  0.00     0.163 HD
BRANCH   9  12
HETATM   12  C   UNL     1      28.762  43.062  52.708  1.00  0.00     0.032 A 
HETATM   13  C   UNL     1      28.055  43.998  53.474  1.00  0.00     0.024 A 
HETATM   14  C   UNL     1      28.591  44.490  54.678  1.00  0.00    -0.050 A 
HETATM   15  C   UNL     1      27.786  45.485  55.474  1.00  0.00     0.049 C 
HETATM   16  C   UNL     1      29.847  44.017  55.113  1.00  0.00    -0.017 A 
HETATM   17  C   UNL     1      30.542  43.074  54.337  1.00  0.00     0.014 A 
HETATM   18  C   UNL     1      30.001  42.591  53.144  1.00  0.00     0.018 A 
BRANCH  16  19
HETATM   19  C   UNL     1      30.443  44.459  56.358  1.00  0.00     0.011 A 
HETATM   20  C   UNL     1      31.265  43.782  57.285  1.00  0.00     0.152 A 
HETATM   21  N   UNL     1      31.608  44.552  58.321  1.00  0.00    -0.187 NA
HETATM   22  N   UNL     1      31.013  45.727  58.054  1.00  0.00    -0.289 N 
HETATM   23  H   UNL     1      31.132  46.487  58.715  1.00  0.00     0.188 HD
HETATM   24  C   UNL     1      30.307  45.724  56.885  1.00  0.00     0.123 A 
ENDBRANCH  16  19
ENDBRANCH   9  12
ENDBRANCH   7   8
ENDBRANCH   1   7
BRANCH   5  25
HETATM   25  C   UNL     1      23.069  46.369  48.636  1.00  0.00     0.251 C 
HETATM   26  O   UNL     1      22.156  46.496  47.820  1.00  0.00    -0.268 OA
HETATM   27  N   UNL     1      23.701  47.476  49.165  1.00  0.00    -0.355 N 
HETATM   28  H   UNL     1      24.569  47.319  49.673  1.00  0.00     0.162 HD
BRANCH  27  29
HETATM   29  C   UNL     1      23.496  48.819  48.634  1.00  0.00     0.155 C 
BRANCH  29  30
HETATM   30  C   UNL     1      22.476  49.678  49.423  1.00  0.00     0.203 C 
HETATM   31  C   UNL     1      22.026  50.915  48.651  1.00  0.00     0.036 C 
HETATM   32  C   UNL     1      20.834  50.429  47.845  1.00  0.00     0.029 C 
HETATM   33  C   UNL     1      20.099  49.530  48.817  1.00  0.00     0.233 C 
HETATM   34  N   UNL     1      21.182  48.932  49.648  1.00  0.00    -0.069 N 
HETATM   35  H   UNL     1      21.315  47.925  49.400  1.00  0.00     0.277 HD
HETATM   36  H   UNL     1      20.932  48.903  50.643  1.00  0.00     0.277 HD
ENDBRANCH  29  30
ENDBRANCH  27  29
ENDBRANCH   5  25
TORSDOF 7
ENDMDL
MODEL 4
REMARK VINA RESULT:      -9.7      3.964     11.139
REMARK  7 active torsions:
REMARK  status: ('A' for Active; 'I' for Inactive)
REMARK    1  A    between atoms: C_4  and  C_14 
REMARK    2  A    between atoms: C_7  and  C_8 
REMARK       I    between atoms: C_14  and  N_16 
REMARK    3  A    between atoms: N_16  and  C_17 
REMARK    4  A    between atoms: C_17  and  C_18 
REMARK    5  A    between atoms: C_22  and  C_24 
REMARK       I    between atoms: C_24  and  N_26 
REMARK    6  A    between atoms: N_26  and  C_27 
REMARK    7  A    between atoms: C_27  and  C_28 
ROOT
HETATM    1  C   UNL     1      25.963  47.241  50.208  1.00  0.00    -0.040 A 
HETATM    2  C   UNL     1      26.029  47.400  51.598  1.00  0.00     0.009 A 
HETATM    3  C   UNL     1      26.167  46.289  52.429  1.00  0.00     0.002 A 
HETATM    4  C   UNL     1      26.264  45.010  51.880  1.00  0.00     0.017 A 
HETATM    5  C   UNL     1      26.223  44.835  50.492  1.00  0.00     0.032 A 
HETATM    6  C   UNL     1      26.051  45.949  49.664  1.00  0.00     0.026 A 
ENDROOT
BRANCH   1   7
HETATM    7  C   UNL     1      25.857  48.435  49.293  1.00  0.00     0.161 C 
BRANCH   7   8
HETATM    8  N   UNL     1      24.514  48.969  49.305  1.00  0.00    -0.353 N 
HETATM    9  C   UNL     1      24.052  49.814  48.323  1.00  0.00     0.251 C 
HETATM   10  O   UNL     1      24.711  50.177  47.356  1.00  0.00    -0.268 OA
HETATM   11  H   UNL     1      23.897  48.681  50.053  1.00  0.00     0.163 HD
BRANCH   9  12
HETATM   12  C   UNL     1      22.655  50.284  48.491  1.00  0.00     0.032 A 
HETATM   13  C   UNL     1      21.718  50.144  47.459  1.00  0.00     0.024 A 
HETATM   14  C   UNL     1      20.392  50.582  47.631  1.00  0.00    -0.050 A 
HETATM   15  C   UNL     1      19.417  50.396  46.497  1.00  0.00     0.049 C 
HETATM   16  C   UNL     1      20.013  51.152  48.864  1.00  0.00    -0.017 A 
HETATM   17  C   UNL     1      20.963  51.281  49.892  1.00  0.00     0.014 A 
HETATM   18  C   UNL     1      22.276  50.843  49.712  1.00  0.00     0.018 A 
BRANCH  16  19
HETATM   19  C   UNL     1      18.657  51.596  49.120  1.00  0.00     0.011 A 
HETATM   20  C   UNL     1      17.551  50.924  49.684  1.00  0.00     0.152 A 
HETATM   21  N   UNL     1      16.462  51.693  49.744  1.00  0.00    -0.187 NA
HETATM   22  N   UNL     1      16.872  52.864  49.227  1.00  0.00    -0.289 N 
HETATM   23  H   UNL     1      16.201  53.624  49.166  1.00  0.00     0.188 HD
HETATM   24  C   UNL     1      18.181  52.858  48.842  1.00  0.00     0.123 A 
ENDBRANCH  16  19
ENDBRANCH   9  12
ENDBRANCH   7   8
ENDBRANCH   1   7
BRANCH   5  25
HETATM   25  C   UNL     1      26.357  43.454  49.949  1.00  0.00     0.251 C 
HETATM   26  O   UNL     1      27.210  43.180  49.104  1.00  0.00    -0.268 OA
HETATM   27  N   UNL     1      25.492  42.487  50.418  1.00  0.00    -0.355 N 
HETATM   28  H   UNL     1      24.687  42.801  50.955  1.00  0.00     0.162 HD
BRANCH  27  29
HETATM   29  C   UNL     1      25.378  41.173  49.793  1.00  0.00     0.155 C 
BRANCH  29  30
HETATM   30  C   UNL     1      26.106  40.032  50.548  1.00  0.00     0.203 C 
HETATM   31  C   UNL     1      27.130  39.310  49.678  1.00  0.00     0.036 C 
HETATM   32  C   UNL     1      28.406  40.111  49.874  1.00  0.00     0.029 C 
HETATM   33  C   UNL     1      28.393  40.430  51.354  1.00  0.00     0.233 C 
HETATM   34  N   UNL     1      26.946  40.569  51.683  1.00  0.00    -0.069 N 
HETATM   35  H   UNL     1      26.707  41.573  51.846  1.00  0.00     0.277 HD
HETATM   36  H   UNL     1      26.709  40.117  52.573  1.00  0.00     0.277 HD
ENDBRANCH  29  30
ENDBRANCH  27  29
ENDBRANCH   5  25
TORSDOF 7
ENDMDL
MODEL 5
REMARK VINA RESULT:      -9.4      1.702      2.312
REMARK  7 active torsions:
REMARK  status: ('A' for Active; 'I' for Inactive)
REMARK    1  A    between atoms: C_4  and  C_14 
REMARK    2  A    between atoms: C_7  and  C_8 
REMARK       I    between atoms: C_14  and  N_16 
REMARK    3  A    between atoms: N_16  and  C_17 
REMARK    4  A    between atoms: C_17  and  C_18 
REMARK    5  A    between atoms: C_22  and  C_24 
REMARK       I    between atoms: C_24  and  N_26 
REMARK    6  A    between atoms: N_26  and  C_27 
REMARK    7  A    between atoms: C_27  and  C_28 
ROOT
HETATM    1  C   UNL     1      24.237  47.870  49.240  1.00  0.00    -0.040 A 
HETATM    2  C   UNL     1      25.204  48.810  48.864  1.00  0.00     0.009 A 
HETATM    3  C   UNL     1      24.846  50.139  48.637  1.00  0.00     0.002 A 
HETATM    4  C   UNL     1      23.522  50.546  48.805  1.00  0.00     0.017 A 
HETATM    5  C   UNL     1      22.546  49.625  49.202  1.00  0.00     0.032 A 
HETATM    6  C   UNL     1      22.905  48.286  49.397  1.00  0.00     0.026 A 
ENDROOT
BRANCH   1   7
HETATM    7  C   UNL     1      24.616  46.439  49.531  1.00  0.00     0.161 C 
BRANCH   7   8
HETATM    8  N   UNL     1      25.449  46.363  50.709  1.00  0.00    -0.353 N 
HETATM    9  C   UNL     1      25.183  45.492  51.741  1.00  0.00     0.251 C 
HETATM   10  O   UNL     1      24.243  44.705  51.757  1.00  0.00    -0.268 OA
HETATM   11  H   UNL     1      26.269  46.954  50.749  1.00  0.00     0.163 HD
BRANCH   9  12
HETATM   12  C   UNL     1      26.127  45.549  52.883  1.00  0.00     0.032 A 
HETATM   13  C   UNL     1      26.940  44.453  53.200  1.00  0.00     0.024 A 
HETATM   14  C   UNL     1      27.842  44.518  54.278  1.00  0.00    -0.050 A 
HETATM   15  C   UNL     1      28.706  43.319  54.571  1.00  0.00     0.049 C 
HETATM   16  C   UNL     1      27.929  45.710  55.028  1.00  0.00    -0.017 A 
HETATM   17  C   UNL     1      27.110  46.803  54.695  1.00  0.00     0.014 A 
HETATM   18  C   UNL     1      26.219  46.728  53.623  1.00  0.00     0.018 A 
BRANCH  16  19
HETATM   19  C   UNL     1      28.857  45.856  56.131  1.00  0.00     0.011 A 
HETATM   20  C   UNL     1      30.268  45.893  56.159  1.00  0.00     0.152 A 
HETATM   21  N   UNL     1      30.752  46.042  57.394  1.00  0.00    -0.187 NA
HETATM   22  N   UNL     1      29.650  46.109  58.160  1.00  0.00    -0.289 N 
HETATM   23  H   UNL     1      29.767  46.225  59.162  1.00  0.00     0.188 HD
HETATM   24  C   UNL     1      28.488  46.009  57.450  1.00  0.00     0.123 A 
ENDBRANCH  16  19
ENDBRANCH   9  12
ENDBRANCH   7   8
ENDBRANCH   1   7
BRANCH   5  25
HETATM   25  C   UNL     1      21.151  50.109  49.396  1.00  0.00     0.251 C 
HETATM   26  O   UNL     1      20.866  50.893  50.301  1.00  0.00    -0.268 OA
HETATM   27  N   UNL     1      20.180  49.649  48.530  1.00  0.00    -0.355 N 
HETATM   28  H   UNL     1      20.421  48.860  47.934  1.00  0.00     0.162 HD
BRANCH  27  29
HETATM   29  C   UNL     1      18.757  49.870  48.766  1.00  0.00     0.155 C 
BRANCH  29  30
HETATM   30  C   UNL     1      18.195  51.179  48.156  1.00  0.00     0.203 C 
HETATM   31  C   UNL     1      16.686  51.128  47.942  1.00  0.00     0.036 C 
HETATM   32  C   UNL     1      16.113  51.621  49.260  1.00  0.00     0.029 C 
HETATM   33  C   UNL     1      17.036  52.761  49.637  1.00  0.00     0.233 C 
HETATM   34  N   UNL     1      18.363  52.345  49.101  1.00  0.00    -0.069 N 
HETATM   35  H   UNL     1      18.999  52.068  49.883  1.00  0.00     0.277 HD
HETATM   36  H   UNL     1      18.858  53.124  48.653  1.00  0.00     0.277 HD
ENDBRANCH  29  30
ENDBRANCH  27  29
ENDBRANCH   5  25
TORSDOF 7
ENDMDL
MODEL 6
REMARK VINA RESULT:      -9.2      2.259      2.938
REMARK  7 active torsions:
REMARK  status: ('A' for Active; 'I' for Inactive)
REMARK    1  A    between atoms: C_4  and  C_14 
REMARK    2  A    between atoms: C_7  and  C_8 
REMARK       I    between atoms: C_14  and  N_16 
REMARK    3  A    between atoms: N_16  and  C_17 
REMARK    4  A    between atoms: C_17  and  C_18 
REMARK    5  A    between atoms: C_22  and  C_24 
REMARK       I    between atoms: C_24  and  N_26 
REMARK    6  A    between atoms: N_26  and  C_27 
REMARK    7  A    between atoms: C_27  and  C_28 
ROOT
HETATM    1  C   UNL     1      25.658  45.529  49.537  1.00  0.00    -0.040 A 
HETATM    2  C   UNL     1      26.148  46.750  50.018  1.00  0.00     0.009 A 
HETATM    3  C   UNL     1      25.352  47.895  49.976  1.00  0.00     0.002 A 
HETATM    4  C   UNL     1      24.052  47.827  49.473  1.00  0.00     0.017 A 
HETATM    5  C   UNL     1      23.539  46.611  49.009  1.00  0.00     0.032 A 
HETATM    6  C   UNL     1      24.352  45.472  49.023  1.00  0.00     0.026 A 
ENDROOT
BRANCH   1   7
HETATM    7  C   UNL     1      26.489  44.273  49.615  1.00  0.00     0.161 C 
BRANCH   7   8
HETATM    8  N   UNL     1      27.319  44.284  50.798  1.00  0.00    -0.353 N 
HETATM    9  C   UNL     1      26.861  43.846  52.020  1.00  0.00     0.251 C 
HETATM   10  O   UNL     1      25.736  43.401  52.218  1.00  0.00    -0.268 OA
HETATM   11  H   UNL     1      28.275  44.600  50.703  1.00  0.00     0.163 HD
BRANCH   9  12
HETATM   12  C   UNL     1      27.833  43.938  53.136  1.00  0.00     0.032 A 
HETATM   13  C   UNL     1      27.847  45.047  53.991  1.00  0.00     0.024 A 
HETATM   14  C   UNL     1      28.765  45.121  55.055  1.00  0.00    -0.050 A 
HETATM   15  C   UNL     1      28.731  46.328  55.956  1.00  0.00     0.049 C 
HETATM   16  C   UNL     1      29.665  44.053  55.259  1.00  0.00    -0.017 A 
HETATM   17  C   UNL     1      29.635  42.944  54.396  1.00  0.00     0.014 A 
HETATM   18  C   UNL     1      28.719  42.881  53.344  1.00  0.00     0.018 A 
BRANCH  16  19
HETATM   19  C   UNL     1      30.615  44.050  56.353  1.00  0.00     0.011 A 
HETATM   20  C   UNL     1      30.700  44.851  57.512  1.00  0.00     0.152 A 
HETATM   21  N   UNL     1      31.741  44.528  58.282  1.00  0.00    -0.187 NA
HETATM   22  N   UNL     1      32.321  43.512  57.621  1.00  0.00    -0.289 N 
HETATM   23  H   UNL     1      33.153  43.090  58.021  1.00  0.00     0.188 HD
HETATM   24  C   UNL     1      31.681  43.184  56.460  1.00  0.00     0.123 A 
ENDBRANCH  16  19
ENDBRANCH   9  12
ENDBRANCH   7   8
ENDBRANCH   1   7
BRANCH   5  25
HETATM   25  C   UNL     1      22.137  46.580  48.506  1.00  0.00     0.251 C 
HETATM   26  O   UNL     1      21.728  45.649  47.812  1.00  0.00    -0.268 OA
HETATM   27  N   UNL     1      21.306  47.631  48.838  1.00  0.00    -0.355 N 
HETATM   28  H   UNL     1      21.740  48.461  49.236  1.00  0.00     0.162 HD
BRANCH  27  29
HETATM   29  C   UNL     1      20.001  47.820  48.214  1.00  0.00     0.155 C 
BRANCH  29  30
HETATM   30  C   UNL     1      18.879  48.266  49.185  1.00  0.00     0.203 C 
HETATM   31  C   UNL     1      17.968  49.332  48.581  1.00  0.00     0.036 C 
HETATM   32  C   UNL     1      16.890  48.531  47.871  1.00  0.00     0.029 C 
HETATM   33  C   UNL     1      16.608  47.396  48.834  1.00  0.00     0.233 C 
HETATM   34  N   UNL     1      17.924  47.136  49.483  1.00  0.00    -0.069 N 
HETATM   35  H   UNL     1      18.329  46.238  49.132  1.00  0.00     0.277 HD
HETATM   36  H   UNL     1      17.830  46.978  50.492  1.00  0.00     0.277 HD
ENDBRANCH  29  30
ENDBRANCH  27  29
ENDBRANCH   5  25
TORSDOF 7
ENDMDL
MODEL 7
REMARK VINA RESULT:      -9.0      4.941      9.036
REMARK  7 active torsions:
REMARK  status: ('A' for Active; 'I' for Inactive)
REMARK    1  A    between atoms: C_4  and  C_14 
REMARK    2  A    between atoms: C_7  and  C_8 
REMARK       I    between atoms: C_14  and  N_16 
REMARK    3  A    between atoms: N_16  and  C_17 
REMARK    4  A    between atoms: C_17  and  C_18 
REMARK    5  A    between atoms: C_22  and  C_24 
REMARK       I    between atoms: C_24  and  N_26 
REMARK    6  A    between atoms: N_26  and  C_27 
REMARK    7  A    between atoms: C_27  and  C_28 
ROOT
HETATM    1  C   UNL     1      30.571  43.343  54.868  1.00  0.00    -0.040 A 
HETATM    2  C   UNL     1      31.368  43.078  55.989  1.00  0.00     0.009 A 
HETATM    3  C   UNL     1      31.290  43.893  57.118  1.00  0.00     0.002 A 
HETATM    4  C   UNL     1      30.400  44.967  57.148  1.00  0.00     0.017 A 
HETATM    5  C   UNL     1      29.579  45.232  56.046  1.00  0.00     0.032 A 
HETATM    6  C   UNL     1      29.684  44.432  54.903  1.00  0.00     0.026 A 
ENDROOT
BRANCH   1   7
HETATM    7  C   UNL     1      30.612  42.446  53.656  1.00  0.00     0.161 C 
BRANCH   7   8
HETATM    8  N   UNL     1      29.422  42.619  52.855  1.00  0.00    -0.353 N 
HETATM    9  C   UNL     1      28.795  41.562  52.235  1.00  0.00     0.251 C 
HETATM   10  O   UNL     1      29.166  40.396  52.313  1.00  0.00    -0.268 OA
HETATM   11  H   UNL     1      29.033  43.549  52.779  1.00  0.00     0.163 HD
BRANCH   9  12
HETATM   12  C   UNL     1      27.594  41.911  51.438  1.00  0.00     0.032 A 
HETATM   13  C   UNL     1      27.461  43.176  50.853  1.00  0.00     0.024 A 
HETATM   14  C   UNL     1      26.324  43.496  50.088  1.00  0.00    -0.050 A 
HETATM   15  C   UNL     1      26.232  44.866  49.467  1.00  0.00     0.049 C 
HETATM   16  C   UNL     1      25.324  42.517  49.905  1.00  0.00    -0.017 A 
HETATM   17  C   UNL     1      25.474  41.250  50.494  1.00  0.00     0.014 A 
HETATM   18  C   UNL     1      26.607  40.943  51.251  1.00  0.00     0.018 A 
BRANCH  16  19
HETATM   19  C   UNL     1      24.142  42.769  49.105  1.00  0.00     0.011 A 
HETATM   20  C   UNL     1      22.886  43.314  49.448  1.00  0.00     0.152 A 
HETATM   21  N   UNL     1      22.054  43.378  48.407  1.00  0.00    -0.187 NA
HETATM   22  N   UNL     1      22.779  42.881  47.391  1.00  0.00    -0.289 N 
HETATM   23  H   UNL     1      22.348  42.827  46.473  1.00  0.00     0.188 HD
HETATM   24  C   UNL     1      24.040  42.507  47.756  1.00  0.00     0.123 A 
ENDBRANCH  16  19
ENDBRANCH   9  12
ENDBRANCH   7   8
ENDBRANCH   1   7
BRANCH   5  25
HETATM   25  C   UNL     1      28.624  46.372  56.132  1.00  0.00     0.251 C 
HETATM   26  O   UNL     1      28.132  46.714  57.208  1.00  0.00    -0.268 OA
HETATM   27  N   UNL     1      28.300  47.035  54.966  1.00  0.00    -0.355 N 
HETATM   28  H   UNL     1      28.569  46.595  54.088  1.00  0.00     0.162 HD
BRANCH  27  29
HETATM   29  C   UNL     1      27.210  48.002  54.896  1.00  0.00     0.155 C 
BRANCH  29  30
HETATM   30  C   UNL     1      25.840  47.405  54.486  1.00  0.00     0.203 C 
HETATM   31  C   UNL     1      25.572  47.523  52.988  1.00  0.00     0.036 C 
HETATM   32  C   UNL     1      26.178  46.257  52.407  1.00  0.00     0.029 C 
HETATM   33  C   UNL     1      25.796  45.194  53.415  1.00  0.00     0.233 C 
HETATM   34  N   UNL     1      25.795  45.914  54.720  1.00  0.00    -0.069 N 
HETATM   35  H   UNL     1      26.621  45.628  55.292  1.00  0.00     0.277 HD
HETATM   36  H   UNL     1      24.994  45.649  55.304  1.00  0.00     0.277 HD
ENDBRANCH  29  30
ENDBRANCH  27  29
ENDBRANCH   5  25
TORSDOF 7
ENDMDL
MODEL 8
REMARK VINA RESULT:      -9.0      3.912     10.010
REMARK  7 active torsions:
REMARK  status: ('A' for Active; 'I' for Inactive)
REMARK    1  A    between atoms: C_4  and  C_14 
REMARK    2  A    between atoms: C_7  and  C_8 
REMARK       I    between atoms: C_14  and  N_16 
REMARK    3  A    between atoms: N_16  and  C_17 
REMARK    4  A    between atoms: C_17  and  C_18 
REMARK    5  A    between atoms: C_22  and  C_24 
REMARK       I    between atoms: C_24  and  N_26 
REMARK    6  A    between atoms: N_26  and  C_27 
REMARK    7  A    between atoms: C_27  and  C_28 
ROOT
HETATM    1  C   UNL     1      27.827  44.717  54.111  1.00  0.00    -0.040 A 
HETATM    2  C   UNL     1      28.942  44.786  54.956  1.00  0.00     0.009 A 
HETATM    3  C   UNL     1      29.902  43.775  54.942  1.00  0.00     0.002 A 
HETATM    4  C   UNL     1      29.770  42.695  54.068  1.00  0.00     0.017 A 
HETATM    5  C   UNL     1      28.674  42.621  53.200  1.00  0.00     0.032 A 
HETATM    6  C   UNL     1      27.697  43.622  53.242  1.00  0.00     0.026 A 
ENDROOT
BRANCH   1   7
HETATM    7  C   UNL     1      26.803  45.823  54.083  1.00  0.00     0.161 C 
BRANCH   7   8
HETATM    8  N   UNL     1      25.901  45.655  52.967  1.00  0.00    -0.353 N 
HETATM    9  C   UNL     1      25.729  46.628  52.009  1.00  0.00     0.251 C 
HETATM   10  O   UNL     1      26.321  47.701  51.999  1.00  0.00    -0.268 OA
HETATM   11  H   UNL     1      25.408  44.776  52.885  1.00  0.00     0.163 HD
BRANCH   9  12
HETATM   12  C   UNL     1      24.757  46.304  50.937  1.00  0.00     0.032 A 
HETATM   13  C   UNL     1      24.232  47.307  50.113  1.00  0.00     0.024 A 
HETATM   14  C   UNL     1      23.318  46.991  49.091  1.00  0.00    -0.050 A 
HETATM   15  C   UNL     1      22.792  48.103  48.221  1.00  0.00     0.049 C 
HETATM   16  C   UNL     1      22.948  45.643  48.896  1.00  0.00    -0.017 A 
HETATM   17  C   UNL     1      23.487  44.646  49.728  1.00  0.00     0.014 A 
HETATM   18  C   UNL     1      24.394  44.972  50.739  1.00  0.00     0.018 A 
BRANCH  16  19
HETATM   19  C   UNL     1      22.036  45.242  47.844  1.00  0.00     0.011 A 
HETATM   20  C   UNL     1      22.269  44.895  46.495  1.00  0.00     0.152 A 
HETATM   21  N   UNL     1      21.146  44.583  45.846  1.00  0.00    -0.187 NA
HETATM   22  N   UNL     1      20.190  44.723  46.780  1.00  0.00    -0.289 N 
HETATM   23  H   UNL     1      19.228  44.536  46.516  1.00  0.00     0.188 HD
HETATM   24  C   UNL     1      20.673  45.111  47.997  1.00  0.00     0.123 A 
ENDBRANCH  16  19
ENDBRANCH   9  12
ENDBRANCH   7   8
ENDBRANCH   1   7
BRANCH   5  25
HETATM   25  C   UNL     1      28.588  41.464  52.265  1.00  0.00     0.251 C 
HETATM   26  O   UNL     1      29.097  40.379  52.543  1.00  0.00    -0.268 OA
HETATM   27  N   UNL     1      27.922  41.646  51.070  1.00  0.00    -0.355 N 
HETATM   28  H   UNL     1      27.698  42.602  50.801  1.00  0.00     0.162 HD
BRANCH  27  29
HETATM   29  C   UNL     1      27.977  40.667  49.991  1.00  0.00     0.155 C 
BRANCH  29  30
HETATM   30  C   UNL     1      26.607  40.057  49.599  1.00  0.00     0.203 C 
HETATM   31  C   UNL     1      25.457  41.049  49.750  1.00  0.00     0.036 C 
HETATM   32  C   UNL     1      25.407  41.756  48.406  1.00  0.00     0.029 C 
HETATM   33  C   UNL     1      25.645  40.638  47.414  1.00  0.00     0.233 C 
HETATM   34  N   UNL     1      26.558  39.704  48.132  1.00  0.00    -0.069 N 
HETATM   35  H   UNL     1      27.522  39.759  47.730  1.00  0.00     0.277 HD
HETATM   36  H   UNL     1      26.295  38.723  47.989  1.00  0.00     0.277 HD
ENDBRANCH  29  30
ENDBRANCH  27  29
ENDBRANCH   5  25
TORSDOF 7
ENDMDL
MODEL 9
REMARK VINA RESULT:      -8.9      2.930     11.761
REMARK  7 active torsions:
REMARK  status: ('A' for Active; 'I' for Inactive)
REMARK    1  A    between atoms: C_4  and  C_14 
REMARK    2  A    between atoms: C_7  and  C_8 
REMARK       I    between atoms: C_14  and  N_16 
REMARK    3  A    between atoms: N_16  and  C_17 
REMARK    4  A    between atoms: C_17  and  C_18 
REMARK    5  A    between atoms: C_22  and  C_24 
REMARK       I    between atoms: C_24  and  N_26 
REMARK    6  A    between atoms: N_26  and  C_27 
REMARK    7  A    between atoms: C_27  and  C_28 
ROOT
HETATM    1  C   UNL     1      23.601  46.344  49.080  1.00  0.00    -0.040 A 
HETATM    2  C   UNL     1      23.953  47.671  49.353  1.00  0.00     0.009 A 
HETATM    3  C   UNL     1      25.190  47.970  49.924  1.00  0.00     0.002 A 
HETATM    4  C   UNL     1      26.097  46.947  50.207  1.00  0.00     0.017 A 
HETATM    5  C   UNL     1      25.771  45.617  49.919  1.00  0.00     0.032 A 
HETATM    6  C   UNL     1      24.515  45.320  49.377  1.00  0.00     0.026 A 
ENDROOT
BRANCH   1   7
HETATM    7  C   UNL     1      22.285  46.008  48.424  1.00  0.00     0.161 C 
BRANCH   7   8
HETATM    8  N   UNL     1      21.368  47.119  48.522  1.00  0.00    -0.353 N 
HETATM    9  C   UNL     1      20.008  46.941  48.634  1.00  0.00     0.251 C 
HETATM   10  O   UNL     1      19.455  45.848  48.674  1.00  0.00    -0.268 OA
HETATM   11  H   UNL     1      21.755  48.054  48.537  1.00  0.00     0.163 HD
BRANCH   9  12
HETATM   12  C   UNL     1      19.205  48.185  48.711  1.00  0.00     0.032 A 
HETATM   13  C   UNL     1      19.818  49.443  48.649  1.00  0.00     0.024 A 
HETATM   14  C   UNL     1      19.049  50.620  48.711  1.00  0.00    -0.050 A 
HETATM   15  C   UNL     1      19.753  51.949  48.626  1.00  0.00     0.049 C 
HETATM   16  C   UNL     1      17.646  50.516  48.821  1.00  0.00    -0.017 A 
HETATM   17  C   UNL     1      17.044  49.247  48.877  1.00  0.00     0.014 A 
HETATM   18  C   UNL     1      17.817  48.086  48.814  1.00  0.00     0.018 A 
BRANCH  16  19
HETATM   19  C   UNL     1      16.791  51.685  48.859  1.00  0.00     0.011 A 
HETATM   20  C   UNL     1      16.460  52.560  49.917  1.00  0.00     0.152 A 
HETATM   21  N   UNL     1      15.625  53.530  49.536  1.00  0.00    -0.187 NA
HETATM   22  N   UNL     1      15.427  53.283  48.230  1.00  0.00    -0.289 N 
HETATM   23  H   UNL     1      14.813  53.903  47.711  1.00  0.00     0.188 HD
HETATM   24  C   UNL     1      16.109  52.191  47.774  1.00  0.00     0.123 A 
ENDBRANCH  16  19
ENDBRANCH   9  12
ENDBRANCH   7   8
ENDBRANCH   1   7
BRANCH   5  25
HETATM   25  C   UNL     1      26.780  44.561  50.213  1.00  0.00     0.251 C 
HETATM   26  O   UNL     1      27.062  43.699  49.382  1.00  0.00    -0.268 OA
HETATM   27  N   UNL     1      27.389  44.574  51.452  1.00  0.00    -0.355 N 
HETATM   28  H   UNL     1      26.981  45.174  52.166  1.00  0.00     0.162 HD
BRANCH  27  29
HETATM   29  C   UNL     1      28.208  43.465  51.929  1.00  0.00     0.155 C 
BRANCH  29  30
HETATM   30  C   UNL     1      28.025  43.124  53.429  1.00  0.00     0.203 C 
HETATM   31  C   UNL     1      29.186  42.312  53.994  1.00  0.00     0.036 C 
HETATM   32  C   UNL     1      30.176  43.365  54.462  1.00  0.00     0.029 C 
HETATM   33  C   UNL     1      29.290  44.420  55.090  1.00  0.00     0.233 C 
HETATM   34  N   UNL     1      28.037  44.369  54.284  1.00  0.00    -0.069 N 
HETATM   35  H   UNL     1      27.967  45.212  53.670  1.00  0.00     0.277 HD
HETATM   36  H   UNL     1      27.199  44.430  54.872  1.00  0.00     0.277 HD
ENDBRANCH  29  30
ENDBRANCH  27  29
ENDBRANCH   5  25
TORSDOF 7
ENDMDL
MODEL 10
REMARK VINA RESULT:      -8.8      4.290      5.779
REMARK  7 active torsions:
REMARK  status: ('A' for Active; 'I' for Inactive)
REMARK    1  A    between atoms: C_4  and  C_14 
REMARK    2  A    between atoms: C_7  and  C_8 
REMARK       I    between atoms: C_14  and  N_16 
REMARK    3  A    between atoms: N_16  and  C_17 
REMARK    4  A    between atoms: C_17  and  C_18 
REMARK    5  A    between atoms: C_22  and  C_24 
REMARK       I    between atoms: C_24  and  N_26 
REMARK    6  A    between atoms: N_26  and  C_27 
REMARK    7  A    between atoms: C_27  and  C_28 
ROOT
HETATM    1  C   UNL     1      25.684  47.540  50.507  1.00  0.00    -0.040 A 
HETATM    2  C   UNL     1      26.685  48.280  49.866  1.00  0.00     0.009 A 
HETATM    3  C   UNL     1      26.363  49.145  48.820  1.00  0.00     0.002 A 
HETATM    4  C   UNL     1      25.035  49.297  48.420  1.00  0.00     0.017 A 
HETATM    5  C   UNL     1      24.019  48.584  49.065  1.00  0.00     0.032 A 
HETATM    6  C   UNL     1      24.351  47.692  50.091  1.00  0.00     0.026 A 
ENDROOT
BRANCH   1   7
HETATM    7  C   UNL     1      26.010  46.634  51.667  1.00  0.00     0.161 C 
BRANCH   7   8
HETATM    8  N   UNL     1      26.348  45.309  51.199  1.00  0.00    -0.353 N 
HETATM    9  C   UNL     1      27.128  44.447  51.937  1.00  0.00     0.251 C 
HETATM   10  O   UNL     1      27.589  44.706  53.042  1.00  0.00    -0.268 OA
HETATM   11  H   UNL     1      25.968  45.009  50.311  1.00  0.00     0.163 HD
BRANCH   9  12
HETATM   12  C   UNL     1      27.394  43.131  51.308  1.00  0.00     0.032 A 
HETATM   13  C   UNL     1      28.105  42.136  51.991  1.00  0.00     0.024 A 
HETATM   14  C   UNL     1      28.343  40.886  51.392  1.00  0.00    -0.050 A 
HETATM   15  C   UNL     1      29.100  39.842  52.172  1.00  0.00     0.049 C 
HETATM   16  C   UNL     1      27.842  40.640  50.096  1.00  0.00    -0.017 A 
HETATM   17  C   UNL     1      27.126  41.646  49.424  1.00  0.00     0.014 A 
HETATM   18  C   UNL     1      26.894  42.883  50.029  1.00  0.00     0.018 A 
BRANCH  16  19
HETATM   19  C   UNL     1      28.024  39.365  49.432  1.00  0.00     0.011 A 
HETATM   20  C   UNL     1      27.129  38.296  49.212  1.00  0.00     0.152 A 
HETATM   21  N   UNL     1      27.694  37.283  48.552  1.00  0.00    -0.187 NA
HETATM   22  N   UNL     1      28.952  37.705  48.340  1.00  0.00    -0.289 N 
HETATM   23  H   UNL     1      29.588  37.090  47.843  1.00  0.00     0.188 HD
HETATM   24  C   UNL     1      29.198  38.950  48.843  1.00  0.00     0.123 A 
ENDBRANCH  16  19
ENDBRANCH   9  12
ENDBRANCH   7   8
ENDBRANCH   1   7
BRANCH   5  25
HETATM   25  C   UNL     1      22.612  48.798  48.623  1.00  0.00     0.251 C 
HETATM   26  O   UNL     1      22.354  49.210  47.493  1.00  0.00    -0.268 OA
HETATM   27  N   UNL     1      21.602  48.524  49.522  1.00  0.00    -0.355 N 
HETATM   28  H   UNL     1      21.868  48.381  50.494  1.00  0.00     0.162 HD
BRANCH  27  29
HETATM   29  C   UNL     1      20.217  48.914  49.282  1.00  0.00     0.155 C 
BRANCH  29  30
HETATM   30  C   UNL     1      19.238  47.731  49.070  1.00  0.00     0.203 C 
HETATM   31  C   UNL     1      18.761  47.614  47.626  1.00  0.00     0.036 C 
HETATM   32  C   UNL     1      19.806  46.730  46.967  1.00  0.00     0.029 C 
HETATM   33  C   UNL     1      20.087  45.679  48.020  1.00  0.00     0.233 C 
HETATM   34  N   UNL     1      19.916  46.404  49.311  1.00  0.00    -0.069 N 
HETATM   35  H   UNL     1      20.845  46.566  49.761  1.00  0.00     0.277 HD
HETATM   36  H   UNL     1      19.408  45.842  50.003  1.00  0.00     0.277 HD
ENDBRANCH  29  30
ENDBRANCH  27  29
ENDBRANCH   5  25
TORSDOF 7
ENDMDL
