MODEL 1
REMARK VINA RESULT:      -9.7      0.000      0.000
REMARK  3 active torsions:
REMARK  status: ('A' for Active; 'I' for Inactive)
REMARK    1  A    between atoms: O_2  and  C_3 
REMARK    2  A    between atoms: C_4  and  N_5 
REMARK       I    between atoms: N_5  and  C_6 
REMARK       I    between atoms: C_6  and  N_7 
REMARK    3  A    between atoms: C_10  and  C_11 
ROOT
HETATM    1  N   UNL     1      25.593  46.649  50.255  1.00  0.00    -0.306 N 
HETATM    2  C   UNL     1      26.540  45.658  50.150  1.00  0.00     0.323 C 
HETATM    3  N   UNL     1      26.482  44.725  51.201  1.00  0.00    -0.334 N 
HETATM    4  C   UNL     1      26.214  45.188  52.566  1.00  0.00     0.128 C 
HETATM    5  C   UNL     1      25.890  44.040  53.520  1.00  0.00     0.029 C 
HETATM    6  C   UNL     1      26.958  42.941  53.497  1.00  0.00     0.024 C 
HETATM    7  C   UNL     1      27.058  42.461  52.032  1.00  0.00     0.029 C 
HETATM    8  C   UNL     1      27.416  43.608  51.090  1.00  0.00     0.128 C 
HETATM    9  O   UNL     1      27.344  45.560  49.228  1.00  0.00    -0.247 OA
HETATM   10  H   UNL     1      24.733  46.383  50.715  1.00  0.00     0.171 HD
ENDROOT
BRANCH   1  11
HETATM   11  C   UNL     1      25.512  47.845  49.514  1.00  0.00     0.072 A 
HETATM   12  C   UNL     1      24.232  48.251  49.086  1.00  0.00     0.095 A 
HETATM   13  C   UNL     1      24.070  49.428  48.350  1.00  0.00     0.042 A 
HETATM   14  C   UNL     1      25.179  50.231  48.084  1.00  0.00     0.045 A 
HETATM   15  C   UNL     1      26.435  49.843  48.541  1.00  0.00     0.118 A 
HETATM   16  C   UNL     1      26.614  48.659  49.249  1.00  0.00     0.074 A 
HETATM   17  F   UNL     1      27.490  50.630  48.295  1.00  0.00    -0.206 F 
BRANCH  12  18
HETATM   18  O   UNL     1      23.183  47.405  49.366  1.00  0.00    -0.354 OA
HETATM   19  C   UNL     1      21.958  47.816  48.764  1.00  0.00     0.210 C 
ENDBRANCH  12  18
ENDBRANCH   1  11
BRANCH   6  20
HETATM   20  C   UNL     1      28.317  43.283  54.098  1.00  0.00    -0.026 A 
HETATM   21  C   UNL     1      28.713  44.293  55.058  1.00  0.00    -0.001 A 
HETATM   22  C   UNL     1      30.096  44.181  55.239  1.00  0.00     0.042 A 
HETATM   23  C   UNL     1      28.055  45.303  55.799  1.00  0.00     0.014 A 
HETATM   24  C   UNL     1      30.838  45.021  56.081  1.00  0.00     0.030 A 
HETATM   25  N   UNL     1      30.527  43.134  54.468  1.00  0.00    -0.365 N 
HETATM   26  C   UNL     1      30.154  46.014  56.782  1.00  0.00     0.002 A 
HETATM   27  C   UNL     1      28.780  46.151  56.648  1.00  0.00     0.001 A 
HETATM   28  H   UNL     1      31.486  42.821  54.411  1.00  0.00     0.165 HD
HETATM   29  C   UNL     1      29.474  42.572  53.808  1.00  0.00     0.096 A 
ENDBRANCH   6  20
TORSDOF 3
ENDMDL
MODEL 2
REMARK VINA RESULT:      -9.5      1.797      2.381
REMARK  3 active torsions:
REMARK  status: ('A' for Active; 'I' for Inactive)
REMARK    1  A    between atoms: O_2  and  C_3 
REMARK    2  A    between atoms: C_4  and  N_5 
REMARK       I    between atoms: N_5  and  C_6 
REMARK       I    between atoms: C_6  and  N_7 
REMARK    3  A    between atoms: C_10  and  C_11 
ROOT
HETATM    1  N   UNL     1      24.007  46.543  49.898  1.00  0.00    -0.306 N 
HETATM    2  C   UNL     1      25.347  46.237  49.932  1.00  0.00     0.323 C 
HETATM    3  N   UNL     1      25.663  45.247  50.880  1.00  0.00    -0.334 N 
HETATM    4  C   UNL     1      24.993  45.254  52.185  1.00  0.00     0.128 C 
HETATM    5  C   UNL     1      25.222  43.963  52.967  1.00  0.00     0.029 C 
HETATM    6  C   UNL     1      26.709  43.616  53.100  1.00  0.00     0.024 C 
HETATM    7  C   UNL     1      27.265  43.524  51.662  1.00  0.00     0.029 C 
HETATM    8  C   UNL     1      27.062  44.830  50.898  1.00  0.00     0.128 C 
HETATM    9  O   UNL     1      26.194  46.739  49.199  1.00  0.00    -0.247 OA
HETATM   10  H   UNL     1      23.381  45.789  50.144  1.00  0.00     0.171 HD
ENDROOT
BRANCH   1  11
HETATM   11  C   UNL     1      23.388  47.624  49.239  1.00  0.00     0.072 A 
HETATM   12  C   UNL     1      22.297  47.325  48.399  1.00  0.00     0.095 A 
HETATM   13  C   UNL     1      21.628  48.343  47.714  1.00  0.00     0.042 A 
HETATM   14  C   UNL     1      22.012  49.670  47.908  1.00  0.00     0.045 A 
HETATM   15  C   UNL     1      23.067  49.962  48.768  1.00  0.00     0.118 A 
HETATM   16  C   UNL     1      23.761  48.954  49.432  1.00  0.00     0.074 A 
HETATM   17  F   UNL     1      23.417  51.241  48.960  1.00  0.00    -0.206 F 
BRANCH  12  18
HETATM   18  O   UNL     1      21.979  45.996  48.238  1.00  0.00    -0.354 OA
HETATM   19  C   UNL     1      20.592  45.725  48.427  1.00  0.00     0.210 C 
ENDBRANCH  12  18
ENDBRANCH   1  11
BRANCH   6  20
HETATM   20  C   UNL     1      27.552  44.512  54.000  1.00  0.00    -0.026 A 
HETATM   21  C   UNL     1      28.801  44.271  54.692  1.00  0.00    -0.001 A 
HETATM   22  C   UNL     1      29.120  45.435  55.401  1.00  0.00     0.042 A 
HETATM   23  C   UNL     1      29.706  43.190  54.806  1.00  0.00     0.014 A 
HETATM   24  C   UNL     1      30.253  45.560  56.217  1.00  0.00     0.030 A 
HETATM   25  N   UNL     1      28.145  46.360  55.131  1.00  0.00    -0.365 N 
HETATM   26  C   UNL     1      31.112  44.467  56.315  1.00  0.00     0.002 A 
HETATM   27  C   UNL     1      30.847  43.297  55.616  1.00  0.00     0.001 A 
HETATM   28  H   UNL     1      28.126  47.298  55.505  1.00  0.00     0.165 HD
HETATM   29  C   UNL     1      27.224  45.834  54.274  1.00  0.00     0.096 A 
ENDBRANCH   6  20
TORSDOF 3
ENDMDL
MODEL 3
REMARK VINA RESULT:      -8.8      3.843      5.053
REMARK  3 active torsions:
REMARK  status: ('A' for Active; 'I' for Inactive)
REMARK    1  A    between atoms: O_2  and  C_3 
REMARK    2  A    between atoms: C_4  and  N_5 
REMARK       I    between atoms: N_5  and  C_6 
REMARK       I    between atoms: C_6  and  N_7 
REMARK    3  A    between atoms: C_10  and  C_11 
ROOT
HETATM    1  N   UNL     1      26.160  41.748  50.855  1.00  0.00    -0.306 N 
HETATM    2  C   UNL     1      27.233  42.606  50.842  1.00  0.00     0.323 C 
HETATM    3  N   UNL     1      28.033  42.507  51.995  1.00  0.00    -0.334 N 
HETATM    4  C   UNL     1      27.397  42.325  53.304  1.00  0.00     0.128 C 
HETATM    5  C   UNL     1      28.397  41.940  54.392  1.00  0.00     0.029 C 
HETATM    6  C   UNL     1      29.579  42.912  54.471  1.00  0.00     0.024 C 
HETATM    7  C   UNL     1      30.229  42.923  53.070  1.00  0.00     0.029 C 
HETATM    8  C   UNL     1      29.231  43.342  51.992  1.00  0.00     0.128 C 
HETATM    9  O   UNL     1      27.504  43.369  49.919  1.00  0.00    -0.247 OA
HETATM   10  H   UNL     1      26.297  40.885  51.363  1.00  0.00     0.171 HD
ENDROOT
BRANCH   1  11
HETATM   11  C   UNL     1      25.053  41.741  49.982  1.00  0.00     0.072 A 
HETATM   12  C   UNL     1      24.007  42.642  50.263  1.00  0.00     0.095 A 
HETATM   13  C   UNL     1      22.878  42.698  49.442  1.00  0.00     0.042 A 
HETATM   14  C   UNL     1      22.813  41.890  48.307  1.00  0.00     0.045 A 
HETATM   15  C   UNL     1      23.866  41.028  48.015  1.00  0.00     0.118 A 
HETATM   16  C   UNL     1      24.983  40.942  48.840  1.00  0.00     0.074 A 
HETATM   17  F   UNL     1      23.801  40.269  46.912  1.00  0.00    -0.206 F 
BRANCH  12  18
HETATM   18  O   UNL     1      24.125  43.398  51.407  1.00  0.00    -0.354 OA
HETATM   19  C   UNL     1      24.258  44.793  51.144  1.00  0.00     0.210 C 
ENDBRANCH  12  18
ENDBRANCH   1  11
BRANCH   6  20
HETATM   20  C   UNL     1      29.289  44.313  54.995  1.00  0.00    -0.026 A 
HETATM   21  C   UNL     1      28.180  45.215  54.757  1.00  0.00    -0.001 A 
HETATM   22  C   UNL     1      28.432  46.390  55.474  1.00  0.00     0.042 A 
HETATM   23  C   UNL     1      26.982  45.174  54.005  1.00  0.00     0.014 A 
HETATM   24  C   UNL     1      27.583  47.505  55.458  1.00  0.00     0.030 A 
HETATM   25  N   UNL     1      29.609  46.212  56.153  1.00  0.00    -0.365 N 
HETATM   26  C   UNL     1      26.420  47.431  54.692  1.00  0.00     0.002 A 
HETATM   27  C   UNL     1      26.119  46.279  53.978  1.00  0.00     0.001 A 
HETATM   28  H   UNL     1      30.030  46.900  56.760  1.00  0.00     0.165 HD
HETATM   29  C   UNL     1      30.112  44.969  55.901  1.00  0.00     0.096 A 
ENDBRANCH   6  20
TORSDOF 3
ENDMDL
MODEL 4
REMARK VINA RESULT:      -8.7      3.384      8.269
REMARK  3 active torsions:
REMARK  status: ('A' for Active; 'I' for Inactive)
REMARK    1  A    between atoms: O_2  and  C_3 
REMARK    2  A    between atoms: C_4  and  N_5 
REMARK       I    between atoms: N_5  and  C_6 
REMARK       I    between atoms: C_6  and  N_7 
REMARK    3  A    between atoms: C_10  and  C_11 
ROOT
HETATM    1  N   UNL     1      28.342  44.077  53.429  1.00  0.00    -0.306 N 
HETATM    2  C   UNL     1      26.970  43.999  53.380  1.00  0.00     0.323 C 
HETATM    3  N   UNL     1      26.465  43.970  52.068  1.00  0.00    -0.334 N 
HETATM    4  C   UNL     1      27.077  44.815  51.037  1.00  0.00     0.128 C 
HETATM    5  C   UNL     1      26.616  44.447  49.629  1.00  0.00     0.029 C 
HETATM    6  C   UNL     1      25.089  44.420  49.502  1.00  0.00     0.024 C 
HETATM    7  C   UNL     1      24.581  43.412  50.555  1.00  0.00     0.029 C 
HETATM    8  C   UNL     1      25.018  43.805  51.964  1.00  0.00     0.128 C 
HETATM    9  O   UNL     1      26.242  43.929  54.366  1.00  0.00    -0.247 OA
HETATM   10  H   UNL     1      28.831  43.649  52.655  1.00  0.00     0.171 HD
ENDROOT
BRANCH   1  11
HETATM   11  C   UNL     1      29.149  44.345  54.552  1.00  0.00     0.072 A 
HETATM   12  C   UNL     1      29.005  45.607  55.162  1.00  0.00     0.095 A 
HETATM   13  C   UNL     1      29.768  45.945  56.283  1.00  0.00     0.042 A 
HETATM   14  C   UNL     1      30.639  45.005  56.831  1.00  0.00     0.045 A 
HETATM   15  C   UNL     1      30.751  43.747  56.246  1.00  0.00     0.118 A 
HETATM   16  C   UNL     1      30.019  43.408  55.112  1.00  0.00     0.074 A 
HETATM   17  F   UNL     1      31.578  42.845  56.791  1.00  0.00    -0.206 F 
BRANCH  12  18
HETATM   18  O   UNL     1      28.142  46.495  54.562  1.00  0.00    -0.354 OA
HETATM   19  C   UNL     1      27.440  47.311  55.497  1.00  0.00     0.210 C 
ENDBRANCH  12  18
ENDBRANCH   1  11
BRANCH   6  20
HETATM   20  C   UNL     1      24.365  45.760  49.573  1.00  0.00    -0.026 A 
HETATM   21  C   UNL     1      23.241  46.282  48.824  1.00  0.00    -0.001 A 
HETATM   22  C   UNL     1      22.998  47.582  49.281  1.00  0.00     0.042 A 
HETATM   23  C   UNL     1      22.395  45.802  47.796  1.00  0.00     0.014 A 
HETATM   24  C   UNL     1      21.996  48.413  48.760  1.00  0.00     0.030 A 
HETATM   25  N   UNL     1      23.893  47.837  50.287  1.00  0.00    -0.365 N 
HETATM   26  C   UNL     1      21.194  47.908  47.738  1.00  0.00     0.002 A 
HETATM   27  C   UNL     1      21.385  46.618  47.264  1.00  0.00     0.001 A 
HETATM   28  H   UNL     1      23.940  48.702  50.806  1.00  0.00     0.165 HD
HETATM   29  C   UNL     1      24.691  46.750  50.491  1.00  0.00     0.096 A 
ENDBRANCH   6  20
TORSDOF 3
ENDMDL
MODEL 5
REMARK VINA RESULT:      -8.7      2.812      4.598
REMARK  3 active torsions:
REMARK  status: ('A' for Active; 'I' for Inactive)
REMARK    1  A    between atoms: O_2  and  C_3 
REMARK    2  A    between atoms: C_4  and  N_5 
REMARK       I    between atoms: N_5  and  C_6 
REMARK       I    between atoms: C_6  and  N_7 
REMARK    3  A    between atoms: C_10  and  C_11 
ROOT
HETATM    1  N   UNL     1      22.423  47.787  48.751  1.00  0.00    -0.306 N 
HETATM    2  C   UNL     1      23.614  47.968  49.412  1.00  0.00     0.323 C 
HETATM    3  N   UNL     1      24.468  46.854  49.329  1.00  0.00    -0.334 N 
HETATM    4  C   UNL     1      23.906  45.502  49.420  1.00  0.00     0.128 C 
HETATM    5  C   UNL     1      24.908  44.424  49.015  1.00  0.00     0.029 C 
HETATM    6  C   UNL     1      26.231  44.536  49.782  1.00  0.00     0.024 C 
HETATM    7  C   UNL     1      26.773  45.956  49.510  1.00  0.00     0.029 C 
HETATM    8  C   UNL     1      25.779  47.030  49.948  1.00  0.00     0.128 C 
HETATM    9  O   UNL     1      23.935  48.999  49.997  1.00  0.00    -0.247 OA
HETATM   10  H   UNL     1      22.459  47.173  47.948  1.00  0.00     0.171 HD
ENDROOT
BRANCH   1  11
HETATM   11  C   UNL     1      21.270  48.593  48.816  1.00  0.00     0.072 A 
HETATM   12  C   UNL     1      20.038  47.940  49.017  1.00  0.00     0.095 A 
HETATM   13  C   UNL     1      18.850  48.672  49.096  1.00  0.00     0.042 A 
HETATM   14  C   UNL     1      18.896  50.064  49.030  1.00  0.00     0.045 A 
HETATM   15  C   UNL     1      20.120  50.706  48.868  1.00  0.00     0.118 A 
HETATM   16  C   UNL     1      21.306  49.987  48.758  1.00  0.00     0.074 A 
HETATM   17  F   UNL     1      20.153  52.045  48.822  1.00  0.00    -0.206 F 
BRANCH  12  18
HETATM   18  O   UNL     1      20.061  46.565  49.056  1.00  0.00    -0.354 OA
HETATM   19  C   UNL     1      19.238  45.963  48.059  1.00  0.00     0.210 C 
ENDBRANCH  12  18
ENDBRANCH   1  11
BRANCH   6  20
HETATM   20  C   UNL     1      26.201  44.193  51.267  1.00  0.00    -0.026 A 
HETATM   21  C   UNL     1      27.260  43.834  52.188  1.00  0.00    -0.001 A 
HETATM   22  C   UNL     1      26.670  43.597  53.435  1.00  0.00     0.042 A 
HETATM   23  C   UNL     1      28.663  43.676  52.110  1.00  0.00     0.014 A 
HETATM   24  C   UNL     1      27.389  43.195  54.569  1.00  0.00     0.030 A 
HETATM   25  N   UNL     1      25.327  43.836  53.305  1.00  0.00    -0.365 N 
HETATM   26  C   UNL     1      28.768  43.036  54.447  1.00  0.00     0.002 A 
HETATM   27  C   UNL     1      29.400  43.277  53.235  1.00  0.00     0.001 A 
HETATM   28  H   UNL     1      24.654  43.750  54.054  1.00  0.00     0.165 HD
HETATM   29  C   UNL     1      25.040  44.222  52.029  1.00  0.00     0.096 A 
ENDBRANCH   6  20
TORSDOF 3
ENDMDL
MODEL 6
REMARK VINA RESULT:      -8.6      3.114      8.874
REMARK  3 active torsions:
REMARK  status: ('A' for Active; 'I' for Inactive)
REMARK    1  A    between atoms: O_2  and  C_3 
REMARK    2  A    between atoms: C_4  and  N_5 
REMARK       I    between atoms: N_5  and  C_6 
REMARK       I    between atoms: C_6  and  N_7 
REMARK    3  A    between atoms: C_10  and  C_11 
ROOT
HETATM    1  N   UNL     1      25.715  46.147  51.406  1.00  0.00    -0.306 N 
HETATM    2  C   UNL     1      24.567  45.524  50.977  1.00  0.00     0.323 C 
HETATM    3  N   UNL     1      23.968  46.166  49.878  1.00  0.00    -0.334 N 
HETATM    4  C   UNL     1      23.939  47.631  49.822  1.00  0.00     0.128 C 
HETATM    5  C   UNL     1      23.531  48.157  48.448  1.00  0.00     0.029 C 
HETATM    6  C   UNL     1      22.214  47.548  47.956  1.00  0.00     0.024 C 
HETATM    7  C   UNL     1      22.416  46.017  47.950  1.00  0.00     0.029 C 
HETATM    8  C   UNL     1      22.790  45.496  49.335  1.00  0.00     0.128 C 
HETATM    9  O   UNL     1      24.109  44.496  51.467  1.00  0.00    -0.247 OA
HETATM   10  H   UNL     1      26.241  46.633  50.691  1.00  0.00     0.171 HD
ENDROOT
BRANCH   1  11
HETATM   11  C   UNL     1      26.431  45.909  52.595  1.00  0.00     0.072 A 
HETATM   12  C   UNL     1      27.291  44.793  52.615  1.00  0.00     0.095 A 
HETATM   13  C   UNL     1      28.038  44.492  53.758  1.00  0.00     0.042 A 
HETATM   14  C   UNL     1      27.970  45.336  54.865  1.00  0.00     0.045 A 
HETATM   15  C   UNL     1      27.146  46.457  54.827  1.00  0.00     0.118 A 
HETATM   16  C   UNL     1      26.375  46.751  53.706  1.00  0.00     0.074 A 
HETATM   17  F   UNL     1      27.101  47.271  55.890  1.00  0.00    -0.206 F 
BRANCH  12  18
HETATM   18  O   UNL     1      27.300  43.991  51.497  1.00  0.00    -0.354 OA
HETATM   19  C   UNL     1      27.360  42.601  51.805  1.00  0.00     0.210 C 
ENDBRANCH  12  18
ENDBRANCH   1  11
BRANCH   6  20
HETATM   20  C   UNL     1      20.942  47.970  48.683  1.00  0.00    -0.026 A 
HETATM   21  C   UNL     1      20.386  49.279  48.960  1.00  0.00    -0.001 A 
HETATM   22  C   UNL     1      19.205  49.089  49.686  1.00  0.00     0.042 A 
HETATM   23  C   UNL     1      20.752  50.617  48.681  1.00  0.00     0.014 A 
HETATM   24  C   UNL     1      18.407  50.141  50.157  1.00  0.00     0.030 A 
HETATM   25  N   UNL     1      19.016  47.738  49.816  1.00  0.00    -0.365 N 
HETATM   26  C   UNL     1      18.810  51.445  49.874  1.00  0.00     0.002 A 
HETATM   27  C   UNL     1      19.965  51.682  49.142  1.00  0.00     0.001 A 
HETATM   28  H   UNL     1      18.233  47.312  50.291  1.00  0.00     0.165 HD
HETATM   29  C   UNL     1      20.026  47.061  49.197  1.00  0.00     0.096 A 
ENDBRANCH   6  20
TORSDOF 3
ENDMDL
MODEL 7
REMARK VINA RESULT:      -8.6      3.459      9.003
REMARK  3 active torsions:
REMARK  status: ('A' for Active; 'I' for Inactive)
REMARK    1  A    between atoms: O_2  and  C_3 
REMARK    2  A    between atoms: C_4  and  N_5 
REMARK       I    between atoms: N_5  and  C_6 
REMARK       I    between atoms: C_6  and  N_7 
REMARK    3  A    between atoms: C_10  and  C_11 
ROOT
HETATM    1  N   UNL     1      25.489  45.494  51.082  1.00  0.00    -0.306 N 
HETATM    2  C   UNL     1      24.302  45.063  50.539  1.00  0.00     0.323 C 
HETATM    3  N   UNL     1      23.785  45.943  49.572  1.00  0.00    -0.334 N 
HETATM    4  C   UNL     1      23.882  47.391  49.784  1.00  0.00     0.128 C 
HETATM    5  C   UNL     1      23.552  48.190  48.525  1.00  0.00     0.029 C 
HETATM    6  C   UNL     1      22.199  47.799  47.922  1.00  0.00     0.024 C 
HETATM    7  C   UNL     1      22.269  46.282  47.639  1.00  0.00     0.029 C 
HETATM    8  C   UNL     1      22.566  45.488  48.909  1.00  0.00     0.128 C 
HETATM    9  O   UNL     1      23.747  44.007  50.831  1.00  0.00    -0.247 OA
HETATM   10  H   UNL     1      26.070  46.053  50.471  1.00  0.00     0.171 HD
ENDROOT
BRANCH   1  11
HETATM   11  C   UNL     1      26.155  44.982  52.213  1.00  0.00     0.072 A 
HETATM   12  C   UNL     1      26.229  45.814  53.348  1.00  0.00     0.095 A 
HETATM   13  C   UNL     1      26.870  45.375  54.509  1.00  0.00     0.042 A 
HETATM   14  C   UNL     1      27.393  44.084  54.560  1.00  0.00     0.045 A 
HETATM   15  C   UNL     1      27.285  43.253  53.448  1.00  0.00     0.118 A 
HETATM   16  C   UNL     1      26.676  43.688  52.276  1.00  0.00     0.074 A 
HETATM   17  F   UNL     1      27.776  42.008  53.514  1.00  0.00    -0.206 F 
BRANCH  12  18
HETATM   18  O   UNL     1      25.709  47.082  53.226  1.00  0.00    -0.354 OA
HETATM   19  C   UNL     1      25.930  47.890  54.380  1.00  0.00     0.210 C 
ENDBRANCH  12  18
ENDBRANCH   1  11
BRANCH   6  20
HETATM   20  C   UNL     1      20.952  48.193  48.706  1.00  0.00    -0.026 A 
HETATM   21  C   UNL     1      20.340  49.484  48.946  1.00  0.00    -0.001 A 
HETATM   22  C   UNL     1      19.218  49.273  49.756  1.00  0.00     0.042 A 
HETATM   23  C   UNL     1      20.610  50.821  48.571  1.00  0.00     0.014 A 
HETATM   24  C   UNL     1      18.391  50.306  50.219  1.00  0.00     0.030 A 
HETATM   25  N   UNL     1      19.116  47.924  49.972  1.00  0.00    -0.365 N 
HETATM   26  C   UNL     1      18.701  51.611  49.840  1.00  0.00     0.002 A 
HETATM   27  C   UNL     1      19.793  51.868  49.023  1.00  0.00     0.001 A 
HETATM   28  H   UNL     1      18.389  47.484  50.519  1.00  0.00     0.165 HD
HETATM   29  C   UNL     1      20.123  47.268  49.327  1.00  0.00     0.096 A 
ENDBRANCH   6  20
TORSDOF 3
ENDMDL
MODEL 8
REMARK VINA RESULT:      -8.5      2.984      8.275
REMARK  3 active torsions:
REMARK  status: ('A' for Active; 'I' for Inactive)
REMARK    1  A    between atoms: O_2  and  C_3 
REMARK    2  A    between atoms: C_4  and  N_5 
REMARK       I    between atoms: N_5  and  C_6 
REMARK       I    between atoms: C_6  and  N_7 
REMARK    3  A    between atoms: C_10  and  C_11 
ROOT
HETATM    1  N   UNL     1      28.153  44.375  53.988  1.00  0.00    -0.306 N 
HETATM    2  C   UNL     1      26.977  45.079  53.873  1.00  0.00     0.323 C 
HETATM    3  N   UNL     1      26.400  44.983  52.594  1.00  0.00    -0.334 N 
HETATM    4  C   UNL     1      27.260  45.010  51.406  1.00  0.00     0.128 C 
HETATM    5  C   UNL     1      26.518  44.599  50.137  1.00  0.00     0.029 C 
HETATM    6  C   UNL     1      25.235  45.410  49.921  1.00  0.00     0.024 C 
HETATM    7  C   UNL     1      24.372  45.203  51.184  1.00  0.00     0.029 C 
HETATM    8  C   UNL     1      25.108  45.648  52.446  1.00  0.00     0.128 C 
HETATM    9  O   UNL     1      26.451  45.709  54.786  1.00  0.00    -0.247 OA
HETATM   10  H   UNL     1      28.228  43.553  53.404  1.00  0.00     0.171 HD
ENDROOT
BRANCH   1  11
HETATM   11  C   UNL     1      29.091  44.433  55.037  1.00  0.00     0.072 A 
HETATM   12  C   UNL     1      30.020  43.378  55.128  1.00  0.00     0.095 A 
HETATM   13  C   UNL     1      30.985  43.366  56.139  1.00  0.00     0.042 A 
HETATM   14  C   UNL     1      31.058  44.435  57.031  1.00  0.00     0.045 A 
HETATM   15  C   UNL     1      30.161  45.492  56.914  1.00  0.00     0.118 A 
HETATM   16  C   UNL     1      29.177  45.502  55.930  1.00  0.00     0.074 A 
HETATM   17  F   UNL     1      30.252  46.522  57.766  1.00  0.00    -0.206 F 
BRANCH  12  18
HETATM   18  O   UNL     1      29.882  42.346  54.228  1.00  0.00    -0.354 OA
HETATM   19  C   UNL     1      30.364  42.671  52.926  1.00  0.00     0.210 C 
ENDBRANCH  12  18
ENDBRANCH   1  11
BRANCH   6  20
HETATM   20  C   UNL     1      25.399  46.880  49.554  1.00  0.00    -0.026 A 
HETATM   21  C   UNL     1      24.431  47.882  49.157  1.00  0.00    -0.001 A 
HETATM   22  C   UNL     1      25.131  49.069  48.912  1.00  0.00     0.042 A 
HETATM   23  C   UNL     1      23.029  47.921  48.969  1.00  0.00     0.014 A 
HETATM   24  C   UNL     1      24.520  50.253  48.476  1.00  0.00     0.030 A 
HETATM   25  N   UNL     1      26.452  48.829  49.183  1.00  0.00    -0.365 N 
HETATM   26  C   UNL     1      23.139  50.246  48.288  1.00  0.00     0.002 A 
HETATM   27  C   UNL     1      22.400  49.097  48.535  1.00  0.00     0.001 A 
HETATM   28  H   UNL     1      27.188  49.517  49.100  1.00  0.00     0.165 HD
HETATM   29  C   UNL     1      26.620  47.540  49.596  1.00  0.00     0.096 A 
ENDBRANCH   6  20
TORSDOF 3
ENDMDL
MODEL 9
REMARK VINA RESULT:      -8.3      2.009      2.807
REMARK  3 active torsions:
REMARK  status: ('A' for Active; 'I' for Inactive)
REMARK    1  A    between atoms: O_2  and  C_3 
REMARK    2  A    between atoms: C_4  and  N_5 
REMARK       I    between atoms: N_5  and  C_6 
REMARK       I    between atoms: C_6  and  N_7 
REMARK    3  A    between atoms: C_10  and  C_11 
ROOT
HETATM    1  N   UNL     1      23.604  46.910  49.516  1.00  0.00    -0.306 N 
HETATM    2  C   UNL     1      24.970  46.757  49.534  1.00  0.00     0.323 C 
HETATM    3  N   UNL     1      25.387  45.602  50.218  1.00  0.00    -0.334 N 
HETATM    4  C   UNL     1      24.701  45.201  51.451  1.00  0.00     0.128 C 
HETATM    5  C   UNL     1      25.071  43.788  51.894  1.00  0.00     0.029 C 
HETATM    6  C   UNL     1      26.587  43.588  52.004  1.00  0.00     0.024 C 
HETATM    7  C   UNL     1      27.173  43.928  50.616  1.00  0.00     0.029 C 
HETATM    8  C   UNL     1      26.827  45.354  50.195  1.00  0.00     0.128 C 
HETATM    9  O   UNL     1      25.762  47.522  48.991  1.00  0.00    -0.247 OA
HETATM   10  H   UNL     1      23.069  46.052  49.536  1.00  0.00     0.171 HD
ENDROOT
BRANCH   1  11
HETATM   11  C   UNL     1      22.870  48.046  49.121  1.00  0.00     0.072 A 
HETATM   12  C   UNL     1      21.556  47.834  48.659  1.00  0.00     0.095 A 
HETATM   13  C   UNL     1      20.763  48.910  48.253  1.00  0.00     0.042 A 
HETATM   14  C   UNL     1      21.261  50.208  48.358  1.00  0.00     0.045 A 
HETATM   15  C   UNL     1      22.546  50.415  48.850  1.00  0.00     0.118 A 
HETATM   16  C   UNL     1      23.356  49.349  49.229  1.00  0.00     0.074 A 
HETATM   17  F   UNL     1      23.008  51.667  48.962  1.00  0.00    -0.206 F 
BRANCH  12  18
HETATM   18  O   UNL     1      21.131  46.528  48.564  1.00  0.00    -0.354 OA
HETATM   19  C   UNL     1      20.739  46.162  47.243  1.00  0.00     0.210 C 
ENDBRANCH  12  18
ENDBRANCH   1  11
BRANCH   6  20
HETATM   20  C   UNL     1      27.301  44.315  53.138  1.00  0.00    -0.026 A 
HETATM   21  C   UNL     1      27.019  45.575  53.795  1.00  0.00    -0.001 A 
HETATM   22  C   UNL     1      28.014  45.778  54.759  1.00  0.00     0.042 A 
HETATM   23  C   UNL     1      26.031  46.580  53.681  1.00  0.00     0.014 A 
HETATM   24  C   UNL     1      28.082  46.916  55.574  1.00  0.00     0.030 A 
HETATM   25  N   UNL     1      28.841  44.686  54.730  1.00  0.00    -0.365 N 
HETATM   26  C   UNL     1      27.098  47.891  55.420  1.00  0.00     0.002 A 
HETATM   27  C   UNL     1      26.081  47.725  54.490  1.00  0.00     0.001 A 
HETATM   28  H   UNL     1      29.644  44.560  55.330  1.00  0.00     0.165 HD
HETATM   29  C   UNL     1      28.409  43.794  53.793  1.00  0.00     0.096 A 
ENDBRANCH   6  20
TORSDOF 3
ENDMDL
MODEL 10
REMARK VINA RESULT:      -8.1     12.545     15.460
REMARK  3 active torsions:
REMARK  status: ('A' for Active; 'I' for Inactive)
REMARK    1  A    between atoms: O_2  and  C_3 
REMARK    2  A    between atoms: C_4  and  N_5 
REMARK       I    between atoms: N_5  and  C_6 
REMARK       I    between atoms: C_6  and  N_7 
REMARK    3  A    between atoms: C_10  and  C_11 
ROOT
HETATM    1  N   UNL     1      33.439  52.460  40.054  1.00  0.00    -0.306 N 
HETATM    2  C   UNL     1      32.538  51.979  39.134  1.00  0.00     0.323 C 
HETATM    3  N   UNL     1      31.215  52.379  39.395  1.00  0.00    -0.334 N 
HETATM    4  C   UNL     1      30.730  52.420  40.778  1.00  0.00     0.128 C 
HETATM    5  C   UNL     1      29.396  53.151  40.909  1.00  0.00     0.029 C 
HETATM    6  C   UNL     1      28.330  52.600  39.955  1.00  0.00     0.024 C 
HETATM    7  C   UNL     1      28.916  52.721  38.531  1.00  0.00     0.029 C 
HETATM    8  C   UNL     1      30.233  51.959  38.399  1.00  0.00     0.128 C 
HETATM    9  O   UNL     1      32.837  51.293  38.160  1.00  0.00    -0.247 OA
HETATM   10  H   UNL     1      33.200  53.347  40.476  1.00  0.00     0.171 HD
ENDROOT
BRANCH   1  11
HETATM   11  C   UNL     1      34.785  52.079  40.222  1.00  0.00     0.072 A 
HETATM   12  C   UNL     1      35.049  51.032  41.127  1.00  0.00     0.095 A 
HETATM   13  C   UNL     1      36.358  50.595  41.345  1.00  0.00     0.042 A 
HETATM   14  C   UNL     1      37.403  51.165  40.618  1.00  0.00     0.045 A 
HETATM   15  C   UNL     1      37.132  52.173  39.698  1.00  0.00     0.118 A 
HETATM   16  C   UNL     1      35.836  52.638  39.494  1.00  0.00     0.074 A 
HETATM   17  F   UNL     1      38.141  52.702  38.994  1.00  0.00    -0.206 F 
BRANCH  12  18
HETATM   18  O   UNL     1      33.976  50.525  41.824  1.00  0.00    -0.354 OA
HETATM   19  C   UNL     1      33.624  49.203  41.423  1.00  0.00     0.210 C 
ENDBRANCH  12  18
ENDBRANCH   1  11
BRANCH   6  20
HETATM   20  C   UNL     1      27.790  51.206  40.252  1.00  0.00    -0.026 A 
HETATM   21  C   UNL     1      27.116  50.241  39.409  1.00  0.00    -0.001 A 
HETATM   22  C   UNL     1      26.815  49.127  40.201  1.00  0.00     0.042 A 
HETATM   23  C   UNL     1      26.716  50.181  38.053  1.00  0.00     0.014 A 
HETATM   24  C   UNL     1      26.131  48.000  39.727  1.00  0.00     0.030 A 
HETATM   25  N   UNL     1      27.312  49.370  41.455  1.00  0.00    -0.365 N 
HETATM   26  C   UNL     1      25.740  47.986  38.389  1.00  0.00     0.002 A 
HETATM   27  C   UNL     1      26.032  49.060  37.559  1.00  0.00     0.001 A 
HETATM   28  H   UNL     1      27.245  48.729  42.232  1.00  0.00     0.165 HD
HETATM   29  C   UNL     1      27.922  50.590  41.490  1.00  0.00     0.096 A 
ENDBRANCH   6  20
TORSDOF 3
ENDMDL
