MODEL 1
REMARK VINA RESULT:      -8.5      0.000      0.000
REMARK  5 active torsions:
REMARK  status: ('A' for Active; 'I' for Inactive)
REMARK    1  A    between atoms: C_4  and  N_5 
REMARK    2  A    between atoms: C_6  and  C_8 
REMARK    3  A    between atoms: C_6  and  O_7 
REMARK       I    between atoms: C_8  and  N_9 
REMARK    4  A    between atoms: N_9  and  C_10 
REMARK    5  A    between atoms: C_10  and  C_11 
ROOT
HETATM    1  N   UNL     1      26.310  43.440  52.119  1.00  0.00    -0.254 N 
HETATM    2  C   UNL     1      27.335  42.450  52.496  1.00  0.00     0.256 C 
HETATM    3  C   UNL     1      27.428  41.299  51.510  1.00  0.00     0.035 A 
HETATM    4  C   UNL     1      26.292  40.993  50.765  1.00  0.00     0.048 A 
HETATM    5  N   UNL     1      25.168  41.798  50.890  1.00  0.00    -0.308 N 
HETATM    6  C   UNL     1      25.131  43.004  51.530  1.00  0.00     0.330 C 
HETATM    7  O   UNL     1      24.082  43.647  51.478  1.00  0.00    -0.246 OA
HETATM    8  C   UNL     1      28.553  40.466  51.383  1.00  0.00     0.034 A 
HETATM    9  C   UNL     1      28.533  39.382  50.503  1.00  0.00     0.011 A 
HETATM   10 BR   UNL     1      30.067  38.290  50.324  1.00  0.00    -0.051 Br
HETATM   11  C   UNL     1      27.390  39.092  49.762  1.00  0.00     0.021 A 
HETATM   12  C   UNL     1      26.260  39.895  49.901  1.00  0.00     0.031 A 
HETATM   13  H   UNL     1      24.318  41.567  50.392  1.00  0.00     0.170 HD
ENDROOT
BRANCH   2  14
HETATM   14  C   UNL     1      28.771  43.073  52.762  1.00  0.00     0.279 C 
HETATM   15  N   UNL     1      29.265  42.803  54.027  1.00  0.00    -0.352 N 
HETATM   16  H   UNL     1      28.841  42.023  54.521  1.00  0.00     0.162 HD
HETATM   17  O   UNL     1      29.379  43.776  51.956  1.00  0.00    -0.268 OA
BRANCH  15  18
HETATM   18  C   UNL     1      30.556  43.272  54.461  1.00  0.00     0.168 C 
BRANCH  18  19
HETATM   19  C   UNL     1      30.337  44.186  55.623  1.00  0.00     0.000 A 
HETATM   20  S   UNL     1      31.227  43.980  57.072  1.00  0.00    -0.105 SA
HETATM   21  C   UNL     1      30.436  45.299  57.820  1.00  0.00     0.050 A 
HETATM   22  C   UNL     1      29.509  45.885  56.988  1.00  0.00     0.008 A 
HETATM   23  C   UNL     1      29.450  45.241  55.720  1.00  0.00     0.017 A 
ENDBRANCH  18  19
ENDBRANCH  15  18
ENDBRANCH   2  14
BRANCH   2  24
HETATM   24  O   UNL     1      26.883  41.853  53.728  1.00  0.00    -0.359 OA
HETATM   25  H   UNL     1      27.694  41.490  54.120  1.00  0.00     0.213 HD
ENDBRANCH   2  24
BRANCH   1  26
HETATM   26  C   UNL     1      26.326  44.724  52.752  1.00  0.00     0.042 A 
HETATM   27  C   UNL     1      26.140  44.853  54.133  1.00  0.00     0.030 A 
HETATM   28  C   UNL     1      26.164  46.113  54.736  1.00  0.00     0.002 A 
HETATM   29  C   UNL     1      26.356  47.256  53.962  1.00  0.00     0.000 A 
HETATM   30  C   UNL     1      26.509  47.140  52.583  1.00  0.00     0.002 A 
HETATM   31  C   UNL     1      26.487  45.881  51.981  1.00  0.00     0.030 A 
ENDBRANCH   1  26
TORSDOF 5
ENDMDL
MODEL 2
REMARK VINA RESULT:      -8.5      3.761      7.035
REMARK  5 active torsions:
REMARK  status: ('A' for Active; 'I' for Inactive)
REMARK    1  A    between atoms: C_4  and  N_5 
REMARK    2  A    between atoms: C_6  and  C_8 
REMARK    3  A    between atoms: C_6  and  O_7 
REMARK       I    between atoms: C_8  and  N_9 
REMARK    4  A    between atoms: N_9  and  C_10 
REMARK    5  A    between atoms: C_10  and  C_11 
ROOT
HETATM    1  N   UNL     1      27.400  43.364  52.209  1.00  0.00    -0.254 N 
HETATM    2  C   UNL     1      26.431  44.168  52.976  1.00  0.00     0.256 C 
HETATM    3  C   UNL     1      27.100  45.211  53.853  1.00  0.00     0.035 A 
HETATM    4  C   UNL     1      28.405  44.964  54.272  1.00  0.00     0.048 A 
HETATM    5  N   UNL     1      29.058  43.833  53.803  1.00  0.00    -0.308 N 
HETATM    6  C   UNL     1      28.614  43.028  52.792  1.00  0.00     0.330 C 
HETATM    7  O   UNL     1      29.351  42.113  52.424  1.00  0.00    -0.246 OA
HETATM    8  C   UNL     1      26.446  46.353  54.348  1.00  0.00     0.034 A 
HETATM    9  C   UNL     1      27.110  47.228  55.210  1.00  0.00     0.011 A 
HETATM   10 BR   UNL     1      26.224  48.775  55.841  1.00  0.00    -0.051 Br
HETATM   11  C   UNL     1      28.416  46.968  55.615  1.00  0.00     0.021 A 
HETATM   12  C   UNL     1      29.064  45.825  55.152  1.00  0.00     0.031 A 
HETATM   13  H   UNL     1      29.990  43.610  54.130  1.00  0.00     0.170 HD
ENDROOT
BRANCH   2  14
HETATM   14  C   UNL     1      25.293  44.830  52.089  1.00  0.00     0.279 C 
HETATM   15  N   UNL     1      25.729  45.918  51.352  1.00  0.00    -0.352 N 
HETATM   16  H   UNL     1      26.732  45.995  51.209  1.00  0.00     0.162 HD
HETATM   17  O   UNL     1      24.120  44.461  52.082  1.00  0.00    -0.268 OA
BRANCH  15  18
HETATM   18  C   UNL     1      24.852  46.652  50.477  1.00  0.00     0.168 C 
BRANCH  18  19
HETATM   19  C   UNL     1      25.665  47.713  49.808  1.00  0.00     0.000 A 
HETATM   20  S   UNL     1      24.901  48.974  48.936  1.00  0.00    -0.105 SA
HETATM   21  C   UNL     1      26.402  49.679  48.517  1.00  0.00     0.050 A 
HETATM   22  C   UNL     1      27.466  48.970  49.026  1.00  0.00     0.008 A 
HETATM   23  C   UNL     1      27.041  47.832  49.769  1.00  0.00     0.017 A 
ENDBRANCH  18  19
ENDBRANCH  15  18
ENDBRANCH   2  14
BRANCH   2  24
HETATM   24  O   UNL     1      25.794  43.258  53.895  1.00  0.00    -0.359 OA
HETATM   25  H   UNL     1      25.098  43.795  54.308  1.00  0.00     0.213 HD
ENDBRANCH   2  24
BRANCH   1  26
HETATM   26  C   UNL     1      26.927  42.579  51.110  1.00  0.00     0.042 A 
HETATM   27  C   UNL     1      26.969  43.068  49.799  1.00  0.00     0.030 A 
HETATM   28  C   UNL     1      26.510  42.287  48.736  1.00  0.00     0.002 A 
HETATM   29  C   UNL     1      25.985  41.018  48.976  1.00  0.00     0.000 A 
HETATM   30  C   UNL     1      25.908  40.536  50.280  1.00  0.00     0.002 A 
HETATM   31  C   UNL     1      26.370  41.316  51.341  1.00  0.00     0.030 A 
ENDBRANCH   1  26
TORSDOF 5
ENDMDL
MODEL 3
REMARK VINA RESULT:      -8.3     13.724     15.046
REMARK  5 active torsions:
REMARK  status: ('A' for Active; 'I' for Inactive)
REMARK    1  A    between atoms: C_4  and  N_5 
REMARK    2  A    between atoms: C_6  and  C_8 
REMARK    3  A    between atoms: C_6  and  O_7 
REMARK       I    between atoms: C_8  and  N_9 
REMARK    4  A    between atoms: N_9  and  C_10 
REMARK    5  A    between atoms: C_10  and  C_11 
ROOT
HETATM    1  N   UNL     1      28.908  50.962  39.235  1.00  0.00    -0.254 N 
HETATM    2  C   UNL     1      28.432  50.142  40.363  1.00  0.00     0.256 C 
HETATM    3  C   UNL     1      27.147  49.399  40.046  1.00  0.00     0.035 A 
HETATM    4  C   UNL     1      26.308  49.941  39.076  1.00  0.00     0.048 A 
HETATM    5  N   UNL     1      26.721  51.074  38.388  1.00  0.00    -0.308 N 
HETATM    6  C   UNL     1      27.981  51.602  38.425  1.00  0.00     0.330 C 
HETATM    7  O   UNL     1      28.222  52.558  37.686  1.00  0.00    -0.246 OA
HETATM    8  C   UNL     1      26.709  48.260  40.745  1.00  0.00     0.034 A 
HETATM    9  C   UNL     1      25.477  47.676  40.440  1.00  0.00     0.011 A 
HETATM   10 BR   UNL     1      24.918  46.127  41.369  1.00  0.00    -0.051 Br
HETATM   11  C   UNL     1      24.653  48.229  39.463  1.00  0.00     0.021 A 
HETATM   12  C   UNL     1      25.065  49.373  38.784  1.00  0.00     0.031 A 
HETATM   13  H   UNL     1      26.108  51.511  37.711  1.00  0.00     0.170 HD
ENDROOT
BRANCH   2  14
HETATM   14  C   UNL     1      29.523  49.146  40.946  1.00  0.00     0.279 C 
HETATM   15  N   UNL     1      30.144  49.615  42.091  1.00  0.00    -0.352 N 
HETATM   16  H   UNL     1      29.662  50.350  42.599  1.00  0.00     0.162 HD
HETATM   17  O   UNL     1      29.838  48.081  40.417  1.00  0.00    -0.268 OA
BRANCH  15  18
HETATM   18  C   UNL     1      31.157  48.856  42.778  1.00  0.00     0.168 C 
BRANCH  18  19
HETATM   19  C   UNL     1      32.484  49.440  42.415  1.00  0.00     0.000 A 
HETATM   20  S   UNL     1      33.018  50.900  43.134  1.00  0.00    -0.105 SA
HETATM   21  C   UNL     1      34.479  50.878  42.245  1.00  0.00     0.050 A 
HETATM   22  C   UNL     1      34.562  49.784  41.414  1.00  0.00     0.008 A 
HETATM   23  C   UNL     1      33.408  48.954  41.509  1.00  0.00     0.017 A 
ENDBRANCH  18  19
ENDBRANCH  15  18
ENDBRANCH   2  14
BRANCH   2  24
HETATM   24  O   UNL     1      28.082  51.067  41.412  1.00  0.00    -0.359 OA
HETATM   25  H   UNL     1      27.781  50.493  42.136  1.00  0.00     0.213 HD
ENDBRANCH   2  24
BRANCH   1  26
HETATM   26  C   UNL     1      30.252  51.452  39.258  1.00  0.00     0.042 A 
HETATM   27  C   UNL     1      30.625  52.506  40.100  1.00  0.00     0.030 A 
HETATM   28  C   UNL     1      31.944  52.968  40.115  1.00  0.00     0.002 A 
HETATM   29  C   UNL     1      32.896  52.396  39.274  1.00  0.00     0.000 A 
HETATM   30  C   UNL     1      32.527  51.370  38.408  1.00  0.00     0.002 A 
HETATM   31  C   UNL     1      31.210  50.906  38.395  1.00  0.00     0.030 A 
ENDBRANCH   1  26
TORSDOF 5
ENDMDL
MODEL 4
REMARK VINA RESULT:      -7.9      3.367      5.051
REMARK  5 active torsions:
REMARK  status: ('A' for Active; 'I' for Inactive)
REMARK    1  A    between atoms: C_4  and  N_5 
REMARK    2  A    between atoms: C_6  and  C_8 
REMARK    3  A    between atoms: C_6  and  O_7 
REMARK       I    between atoms: C_8  and  N_9 
REMARK    4  A    between atoms: N_9  and  C_10 
REMARK    5  A    between atoms: C_10  and  C_11 
ROOT
HETATM    1  N   UNL     1      26.767  42.614  50.468  1.00  0.00    -0.254 N 
HETATM    2  C   UNL     1      25.916  43.814  50.368  1.00  0.00     0.256 C 
HETATM    3  C   UNL     1      24.746  43.624  49.420  1.00  0.00     0.035 A 
HETATM    4  C   UNL     1      24.885  42.686  48.400  1.00  0.00     0.048 A 
HETATM    5  N   UNL     1      26.037  41.914  48.349  1.00  0.00    -0.308 N 
HETATM    6  C   UNL     1      26.978  41.837  49.337  1.00  0.00     0.330 C 
HETATM    7  O   UNL     1      27.900  41.035  49.188  1.00  0.00    -0.246 OA
HETATM    8  C   UNL     1      23.580  44.409  49.449  1.00  0.00     0.034 A 
HETATM    9  C   UNL     1      22.578  44.220  48.494  1.00  0.00     0.011 A 
HETATM   10 BR   UNL     1      21.003  45.265  48.568  1.00  0.00    -0.051 Br
HETATM   11  C   UNL     1      22.732  43.275  47.484  1.00  0.00     0.021 A 
HETATM   12  C   UNL     1      23.895  42.510  47.430  1.00  0.00     0.031 A 
HETATM   13  H   UNL     1      26.179  41.259  47.591  1.00  0.00     0.170 HD
ENDROOT
BRANCH   2  14
HETATM   14  C   UNL     1      25.416  44.371  51.768  1.00  0.00     0.279 C 
HETATM   15  N   UNL     1      25.932  45.616  52.084  1.00  0.00    -0.352 N 
HETATM   16  H   UNL     1      26.303  46.161  51.311  1.00  0.00     0.162 HD
HETATM   17  O   UNL     1      24.682  43.750  52.536  1.00  0.00    -0.268 OA
BRANCH  15  18
HETATM   18  C   UNL     1      25.593  46.298  53.306  1.00  0.00     0.168 C 
BRANCH  18  19
HETATM   19  C   UNL     1      26.751  46.156  54.239  1.00  0.00     0.000 A 
HETATM   20  S   UNL     1      27.621  47.535  54.764  1.00  0.00    -0.105 SA
HETATM   21  C   UNL     1      28.687  46.584  55.703  1.00  0.00     0.050 A 
HETATM   22  C   UNL     1      28.393  45.242  55.620  1.00  0.00     0.008 A 
HETATM   23  C   UNL     1      27.276  44.994  54.772  1.00  0.00     0.017 A 
ENDBRANCH  18  19
ENDBRANCH  15  18
ENDBRANCH   2  14
BRANCH   2  24
HETATM   24  O   UNL     1      26.732  44.834  49.758  1.00  0.00    -0.359 OA
HETATM   25  H   UNL     1      26.114  45.571  49.618  1.00  0.00     0.213 HD
ENDBRANCH   2  24
BRANCH   1  26
HETATM   26  C   UNL     1      27.701  42.519  51.548  1.00  0.00     0.042 A 
HETATM   27  C   UNL     1      28.801  43.381  51.633  1.00  0.00     0.030 A 
HETATM   28  C   UNL     1      29.700  43.279  52.698  1.00  0.00     0.002 A 
HETATM   29  C   UNL     1      29.519  42.303  53.676  1.00  0.00     0.000 A 
HETATM   30  C   UNL     1      28.447  41.420  53.582  1.00  0.00     0.002 A 
HETATM   31  C   UNL     1      27.547  41.523  52.520  1.00  0.00     0.030 A 
ENDBRANCH   1  26
TORSDOF 5
ENDMDL
MODEL 5
REMARK VINA RESULT:      -7.8     13.147     14.265
REMARK  5 active torsions:
REMARK  status: ('A' for Active; 'I' for Inactive)
REMARK    1  A    between atoms: C_4  and  N_5 
REMARK    2  A    between atoms: C_6  and  C_8 
REMARK    3  A    between atoms: C_6  and  O_7 
REMARK       I    between atoms: C_8  and  N_9 
REMARK    4  A    between atoms: N_9  and  C_10 
REMARK    5  A    between atoms: C_10  and  C_11 
ROOT
HETATM    1  N   UNL     1      28.610  50.152  39.681  1.00  0.00    -0.254 N 
HETATM    2  C   UNL     1      28.330  48.971  40.517  1.00  0.00     0.256 C 
HETATM    3  C   UNL     1      27.871  47.774  39.706  1.00  0.00     0.035 A 
HETATM    4  C   UNL     1      27.253  48.019  38.482  1.00  0.00     0.048 A 
HETATM    5  N   UNL     1      27.164  49.326  38.025  1.00  0.00    -0.308 N 
HETATM    6  C   UNL     1      27.816  50.397  38.568  1.00  0.00     0.330 C 
HETATM    7  O   UNL     1      27.712  51.482  37.994  1.00  0.00    -0.246 OA
HETATM    8  C   UNL     1      27.941  46.446  40.163  1.00  0.00     0.034 A 
HETATM    9  C   UNL     1      27.430  45.404  39.384  1.00  0.00     0.011 A 
HETATM   10 BR   UNL     1      27.560  43.621  40.003  1.00  0.00    -0.051 Br
HETATM   11  C   UNL     1      26.819  45.667  38.162  1.00  0.00     0.021 A 
HETATM   12  C   UNL     1      26.720  46.982  37.712  1.00  0.00     0.031 A 
HETATM   13  H   UNL     1      26.679  49.532  37.161  1.00  0.00     0.170 HD
ENDROOT
BRANCH   2  14
HETATM   14  C   UNL     1      29.522  48.567  41.485  1.00  0.00     0.279 C 
HETATM   15  N   UNL     1      30.747  48.478  40.847  1.00  0.00    -0.352 N 
HETATM   16  H   UNL     1      30.826  48.952  39.952  1.00  0.00     0.162 HD
HETATM   17  O   UNL     1      29.383  48.303  42.679  1.00  0.00    -0.268 OA
BRANCH  15  18
HETATM   18  C   UNL     1      31.955  48.133  41.551  1.00  0.00     0.168 C 
BRANCH  18  19
HETATM   19  C   UNL     1      32.566  49.402  42.049  1.00  0.00     0.000 A 
HETATM   20  S   UNL     1      33.986  50.027  41.325  1.00  0.00    -0.105 SA
HETATM   21  C   UNL     1      34.022  51.360  42.395  1.00  0.00     0.050 A 
HETATM   22  C   UNL     1      32.977  51.332  43.291  1.00  0.00     0.008 A 
HETATM   23  C   UNL     1      32.137  50.199  43.093  1.00  0.00     0.017 A 
ENDBRANCH  18  19
ENDBRANCH  15  18
ENDBRANCH   2  14
BRANCH   2  24
HETATM   24  O   UNL     1      27.200  49.322  41.341  1.00  0.00    -0.359 OA
HETATM   25  H   UNL     1      27.309  48.769  42.132  1.00  0.00     0.213 HD
ENDBRANCH   2  24
BRANCH   1  26
HETATM   26  C   UNL     1      29.352  51.237  40.245  1.00  0.00     0.042 A 
HETATM   27  C   UNL     1      28.876  51.938  41.360  1.00  0.00     0.030 A 
HETATM   28  C   UNL     1      29.616  52.991  41.903  1.00  0.00     0.002 A 
HETATM   29  C   UNL     1      30.828  53.367  41.325  1.00  0.00     0.000 A 
HETATM   30  C   UNL     1      31.293  52.697  40.197  1.00  0.00     0.002 A 
HETATM   31  C   UNL     1      30.555  51.643  39.655  1.00  0.00     0.030 A 
ENDBRANCH   1  26
TORSDOF 5
ENDMDL
MODEL 6
REMARK VINA RESULT:      -7.7      4.066      6.129
REMARK  5 active torsions:
REMARK  status: ('A' for Active; 'I' for Inactive)
REMARK    1  A    between atoms: C_4  and  N_5 
REMARK    2  A    between atoms: C_6  and  C_8 
REMARK    3  A    between atoms: C_6  and  O_7 
REMARK       I    between atoms: C_8  and  N_9 
REMARK    4  A    between atoms: N_9  and  C_10 
REMARK    5  A    between atoms: C_10  and  C_11 
ROOT
HETATM    1  N   UNL     1      26.392  42.545  51.057  1.00  0.00    -0.254 N 
HETATM    2  C   UNL     1      25.871  43.590  50.157  1.00  0.00     0.256 C 
HETATM    3  C   UNL     1      24.698  43.112  49.321  1.00  0.00     0.035 A 
HETATM    4  C   UNL     1      24.603  41.747  49.059  1.00  0.00     0.048 A 
HETATM    5  N   UNL     1      25.525  40.886  49.640  1.00  0.00    -0.308 N 
HETATM    6  C   UNL     1      26.408  41.226  50.625  1.00  0.00     0.330 C 
HETATM    7  O   UNL     1      27.100  40.329  51.107  1.00  0.00    -0.246 OA
HETATM    8  C   UNL     1      23.766  43.973  48.714  1.00  0.00     0.034 A 
HETATM    9  C   UNL     1      22.756  43.457  47.899  1.00  0.00     0.011 A 
HETATM   10 BR   UNL     1      21.494  44.628  47.115  1.00  0.00    -0.051 Br
HETATM   11  C   UNL     1      22.674  42.089  47.651  1.00  0.00     0.021 A 
HETATM   12  C   UNL     1      23.608  41.230  48.226  1.00  0.00     0.031 A 
HETATM   13  H   UNL     1      25.502  39.897  49.427  1.00  0.00     0.170 HD
ENDROOT
BRANCH   2  14
HETATM   14  C   UNL     1      25.516  44.955  50.887  1.00  0.00     0.279 C 
HETATM   15  N   UNL     1      26.324  46.012  50.505  1.00  0.00    -0.352 N 
HETATM   16  H   UNL     1      26.824  45.906  49.627  1.00  0.00     0.162 HD
HETATM   17  O   UNL     1      24.646  45.072  51.749  1.00  0.00    -0.268 OA
BRANCH  15  18
HETATM   18  C   UNL     1      26.159  47.337  51.045  1.00  0.00     0.168 C 
BRANCH  18  19
HETATM   19  C   UNL     1      26.018  48.280  49.895  1.00  0.00     0.000 A 
HETATM   20  S   UNL     1      24.472  48.653  49.259  1.00  0.00    -0.105 SA
HETATM   21  C   UNL     1      25.139  49.688  48.073  1.00  0.00     0.050 A 
HETATM   22  C   UNL     1      26.511  49.750  48.152  1.00  0.00     0.008 A 
HETATM   23  C   UNL     1      27.020  48.933  49.203  1.00  0.00     0.017 A 
ENDBRANCH  18  19
ENDBRANCH  15  18
ENDBRANCH   2  14
BRANCH   2  24
HETATM   24  O   UNL     1      26.921  43.863  49.208  1.00  0.00    -0.359 OA
HETATM   25  H   UNL     1      26.517  43.658  48.349  1.00  0.00     0.213 HD
ENDBRANCH   2  24
BRANCH   1  26
HETATM   26  C   UNL     1      27.263  42.928  52.125  1.00  0.00     0.042 A 
HETATM   27  C   UNL     1      26.759  43.261  53.388  1.00  0.00     0.030 A 
HETATM   28  C   UNL     1      27.624  43.626  54.423  1.00  0.00     0.002 A 
HETATM   29  C   UNL     1      28.998  43.681  54.199  1.00  0.00     0.000 A 
HETATM   30  C   UNL     1      29.507  43.384  52.937  1.00  0.00     0.002 A 
HETATM   31  C   UNL     1      28.643  43.017  51.904  1.00  0.00     0.030 A 
ENDBRANCH   1  26
TORSDOF 5
ENDMDL
MODEL 7
REMARK VINA RESULT:      -7.7      2.942      6.331
REMARK  5 active torsions:
REMARK  status: ('A' for Active; 'I' for Inactive)
REMARK    1  A    between atoms: C_4  and  N_5 
REMARK    2  A    between atoms: C_6  and  C_8 
REMARK    3  A    between atoms: C_6  and  O_7 
REMARK       I    between atoms: C_8  and  N_9 
REMARK    4  A    between atoms: N_9  and  C_10 
REMARK    5  A    between atoms: C_10  and  C_11 
ROOT
HETATM    1  N   UNL     1      26.912  44.189  52.363  1.00  0.00    -0.254 N 
HETATM    2  C   UNL     1      28.201  43.567  52.714  1.00  0.00     0.256 C 
HETATM    3  C   UNL     1      28.775  44.101  54.013  1.00  0.00     0.035 A 
HETATM    4  C   UNL     1      28.403  45.385  54.406  1.00  0.00     0.048 A 
HETATM    5  N   UNL     1      27.467  46.074  53.648  1.00  0.00    -0.308 N 
HETATM    6  C   UNL     1      26.707  45.532  52.650  1.00  0.00     0.330 C 
HETATM    7  O   UNL     1      25.851  46.248  52.130  1.00  0.00    -0.246 OA
HETATM    8  C   UNL     1      29.735  43.421  54.783  1.00  0.00     0.034 A 
HETATM    9  C   UNL     1      30.269  44.014  55.930  1.00  0.00     0.011 A 
HETATM   10 BR   UNL     1      31.536  43.070  56.969  1.00  0.00    -0.051 Br
HETATM   11  C   UNL     1      29.881  45.295  56.311  1.00  0.00     0.021 A 
HETATM   12  C   UNL     1      28.951  45.989  55.540  1.00  0.00     0.031 A 
HETATM   13  H   UNL     1      27.215  47.025  53.890  1.00  0.00     0.170 HD
ENDROOT
BRANCH   2  14
HETATM   14  C   UNL     1      28.172  41.980  52.727  1.00  0.00     0.279 C 
HETATM   15  N   UNL     1      28.837  41.405  51.658  1.00  0.00    -0.352 N 
HETATM   16  H   UNL     1      29.505  41.995  51.171  1.00  0.00     0.162 HD
HETATM   17  O   UNL     1      27.577  41.307  53.569  1.00  0.00    -0.268 OA
BRANCH  15  18
HETATM   18  C   UNL     1      28.933  39.978  51.493  1.00  0.00     0.168 C 
BRANCH  18  19
HETATM   19  C   UNL     1      28.583  39.662  50.075  1.00  0.00     0.000 A 
HETATM   20  S   UNL     1      28.277  38.047  49.593  1.00  0.00    -0.105 SA
HETATM   21  C   UNL     1      27.995  38.516  47.973  1.00  0.00     0.050 A 
HETATM   22  C   UNL     1      28.133  39.874  47.797  1.00  0.00     0.008 A 
HETATM   23  C   UNL     1      28.477  40.536  49.010  1.00  0.00     0.017 A 
ENDBRANCH  18  19
ENDBRANCH  15  18
ENDBRANCH   2  14
BRANCH   2  24
HETATM   24  O   UNL     1      29.134  43.977  51.695  1.00  0.00    -0.359 OA
HETATM   25  H   UNL     1      28.566  44.239  50.951  1.00  0.00     0.213 HD
ENDBRANCH   2  24
BRANCH   1  26
HETATM   26  C   UNL     1      26.097  43.571  51.362  1.00  0.00     0.042 A 
HETATM   27  C   UNL     1      26.514  43.504  50.028  1.00  0.00     0.030 A 
HETATM   28  C   UNL     1      25.710  42.891  49.064  1.00  0.00     0.002 A 
HETATM   29  C   UNL     1      24.473  42.358  49.421  1.00  0.00     0.000 A 
HETATM   30  C   UNL     1      24.034  42.449  50.739  1.00  0.00     0.002 A 
HETATM   31  C   UNL     1      24.840  43.059  51.703  1.00  0.00     0.030 A 
ENDBRANCH   1  26
TORSDOF 5
ENDMDL
MODEL 8
REMARK VINA RESULT:      -7.6      8.780     11.398
REMARK  5 active torsions:
REMARK  status: ('A' for Active; 'I' for Inactive)
REMARK    1  A    between atoms: C_4  and  N_5 
REMARK    2  A    between atoms: C_6  and  C_8 
REMARK    3  A    between atoms: C_6  and  O_7 
REMARK       I    between atoms: C_8  and  N_9 
REMARK    4  A    between atoms: N_9  and  C_10 
REMARK    5  A    between atoms: C_10  and  C_11 
ROOT
HETATM    1  N   UNL     1      21.533  49.384  49.139  1.00  0.00    -0.254 N 
HETATM    2  C   UNL     1      21.388  48.152  48.342  1.00  0.00     0.256 C 
HETATM    3  C   UNL     1      22.372  47.071  48.750  1.00  0.00     0.035 A 
HETATM    4  C   UNL     1      23.567  47.473  49.342  1.00  0.00     0.048 A 
HETATM    5  N   UNL     1      23.764  48.821  49.610  1.00  0.00    -0.308 N 
HETATM    6  C   UNL     1      22.801  49.788  49.536  1.00  0.00     0.330 C 
HETATM    7  O   UNL     1      23.104  50.926  49.895  1.00  0.00    -0.246 OA
HETATM    8  C   UNL     1      22.193  45.704  48.472  1.00  0.00     0.034 A 
HETATM    9  C   UNL     1      23.182  44.779  48.816  1.00  0.00     0.011 A 
HETATM   10 BR   UNL     1      22.910  42.942  48.461  1.00  0.00    -0.051 Br
HETATM   11  C   UNL     1      24.368  45.199  49.411  1.00  0.00     0.021 A 
HETATM   12  C   UNL     1      24.567  46.554  49.667  1.00  0.00     0.031 A 
HETATM   13  H   UNL     1      24.642  49.141  49.997  1.00  0.00     0.170 HD
ENDROOT
BRANCH   2  14
HETATM   14  C   UNL     1      19.909  47.575  48.306  1.00  0.00     0.279 C 
HETATM   15  N   UNL     1      19.273  47.758  47.090  1.00  0.00    -0.352 N 
HETATM   16  H   UNL     1      19.872  47.944  46.290  1.00  0.00     0.162 HD
HETATM   17  O   UNL     1      19.345  47.059  49.271  1.00  0.00    -0.268 OA
BRANCH  15  18
HETATM   18  C   UNL     1      17.930  47.298  46.850  1.00  0.00     0.168 C 
BRANCH  18  19
HETATM   19  C   UNL     1      17.014  48.464  47.028  1.00  0.00     0.000 A 
HETATM   20  S   UNL     1      16.555  49.423  45.685  1.00  0.00    -0.105 SA
HETATM   21  C   UNL     1      15.602  50.452  46.664  1.00  0.00     0.050 A 
HETATM   22  C   UNL     1      15.632  50.079  47.988  1.00  0.00     0.008 A 
HETATM   23  C   UNL     1      16.450  48.933  48.200  1.00  0.00     0.017 A 
ENDBRANCH  18  19
ENDBRANCH  15  18
ENDBRANCH   2  14
BRANCH   2  24
HETATM   24  O   UNL     1      21.752  48.502  46.993  1.00  0.00    -0.359 OA
HETATM   25  H   UNL     1      22.618  48.078  46.869  1.00  0.00     0.213 HD
ENDBRANCH   2  24
BRANCH   1  26
HETATM   26  C   UNL     1      20.484  50.356  49.103  1.00  0.00     0.042 A 
HETATM   27  C   UNL     1      20.354  51.242  48.028  1.00  0.00     0.030 A 
HETATM   28  C   UNL     1      19.320  52.182  48.005  1.00  0.00     0.002 A 
HETATM   29  C   UNL     1      18.420  52.258  49.066  1.00  0.00     0.000 A 
HETATM   30  C   UNL     1      18.561  51.403  50.156  1.00  0.00     0.002 A 
HETATM   31  C   UNL     1      19.592  50.462  50.177  1.00  0.00     0.030 A 
ENDBRANCH   1  26
TORSDOF 5
ENDMDL
MODEL 9
REMARK VINA RESULT:      -7.3     15.349     17.511
REMARK  5 active torsions:
REMARK  status: ('A' for Active; 'I' for Inactive)
REMARK    1  A    between atoms: C_4  and  N_5 
REMARK    2  A    between atoms: C_6  and  C_8 
REMARK    3  A    between atoms: C_6  and  O_7 
REMARK       I    between atoms: C_8  and  N_9 
REMARK    4  A    between atoms: N_9  and  C_10 
REMARK    5  A    between atoms: C_10  and  C_11 
ROOT
HETATM    1  N   UNL     1      38.065  43.119  64.338  1.00  0.00    -0.254 N 
HETATM    2  C   UNL     1      38.823  44.316  63.932  1.00  0.00     0.256 C 
HETATM    3  C   UNL     1      38.271  45.593  64.538  1.00  0.00     0.035 A 
HETATM    4  C   UNL     1      36.923  45.613  64.889  1.00  0.00     0.048 A 
HETATM    5  N   UNL     1      36.176  44.451  64.752  1.00  0.00    -0.308 N 
HETATM    6  C   UNL     1      36.688  43.210  64.496  1.00  0.00     0.330 C 
HETATM    7  O   UNL     1      35.908  42.258  64.495  1.00  0.00    -0.246 OA
HETATM    8  C   UNL     1      39.011  46.781  64.669  1.00  0.00     0.034 A 
HETATM    9  C   UNL     1      38.407  47.937  65.171  1.00  0.00     0.011 A 
HETATM   10 BR   UNL     1      39.427  49.517  65.367  1.00  0.00    -0.051 Br
HETATM   11  C   UNL     1      37.060  47.937  65.520  1.00  0.00     0.021 A 
HETATM   12  C   UNL     1      36.310  46.773  65.369  1.00  0.00     0.031 A 
HETATM   13  H   UNL     1      35.185  44.455  64.958  1.00  0.00     0.170 HD
ENDROOT
BRANCH   2  14
HETATM   14  C   UNL     1      40.387  44.208  64.187  1.00  0.00     0.279 C 
HETATM   15  N   UNL     1      40.725  44.123  65.526  1.00  0.00    -0.352 N 
HETATM   16  H   UNL     1      39.986  43.837  66.162  1.00  0.00     0.162 HD
HETATM   17  O   UNL     1      41.236  44.247  63.296  1.00  0.00    -0.268 OA
BRANCH  15  18
HETATM   18  C   UNL     1      42.091  44.009  65.966  1.00  0.00     0.168 C 
BRANCH  18  19
HETATM   19  C   UNL     1      42.622  45.392  66.157  1.00  0.00     0.000 A 
HETATM   20  S   UNL     1      44.162  45.826  65.545  1.00  0.00    -0.105 SA
HETATM   21  C   UNL     1      44.024  47.420  66.147  1.00  0.00     0.050 A 
HETATM   22  C   UNL     1      42.832  47.622  66.805  1.00  0.00     0.008 A 
HETATM   23  C   UNL     1      42.023  46.450  66.814  1.00  0.00     0.017 A 
ENDBRANCH  18  19
ENDBRANCH  15  18
ENDBRANCH   2  14
BRANCH   2  24
HETATM   24  O   UNL     1      38.621  44.456  62.512  1.00  0.00    -0.359 OA
HETATM   25  H   UNL     1      38.235  45.342  62.419  1.00  0.00     0.213 HD
ENDBRANCH   2  24
BRANCH   1  26
HETATM   26  C   UNL     1      38.645  41.828  64.124  1.00  0.00     0.042 A 
HETATM   27  C   UNL     1      38.850  41.332  62.831  1.00  0.00     0.030 A 
HETATM   28  C   UNL     1      39.423  40.073  62.638  1.00  0.00     0.002 A 
HETATM   29  C   UNL     1      39.779  39.290  63.735  1.00  0.00     0.000 A 
HETATM   30  C   UNL     1      39.549  39.762  65.025  1.00  0.00     0.002 A 
HETATM   31  C   UNL     1      38.978  41.021  65.218  1.00  0.00     0.030 A 
ENDBRANCH   1  26
TORSDOF 5
ENDMDL
MODEL 10
REMARK VINA RESULT:      -7.3      1.872      2.436
REMARK  5 active torsions:
REMARK  status: ('A' for Active; 'I' for Inactive)
REMARK    1  A    between atoms: C_4  and  N_5 
REMARK    2  A    between atoms: C_6  and  C_8 
REMARK    3  A    between atoms: C_6  and  O_7 
REMARK       I    between atoms: C_8  and  N_9 
REMARK    4  A    between atoms: N_9  and  C_10 
REMARK    5  A    between atoms: C_10  and  C_11 
ROOT
HETATM    1  N   UNL     1      26.230  43.266  49.841  1.00  0.00    -0.254 N 
HETATM    2  C   UNL     1      26.852  42.346  50.810  1.00  0.00     0.256 C 
HETATM    3  C   UNL     1      27.335  41.058  50.169  1.00  0.00     0.035 A 
HETATM    4  C   UNL     1      26.702  40.639  49.001  1.00  0.00     0.048 A 
HETATM    5  N   UNL     1      25.730  41.453  48.435  1.00  0.00    -0.308 N 
HETATM    6  C   UNL     1      25.471  42.743  48.802  1.00  0.00     0.330 C 
HETATM    7  O   UNL     1      24.641  43.370  48.143  1.00  0.00    -0.246 OA
HETATM    8  C   UNL     1      28.307  40.216  50.739  1.00  0.00     0.034 A 
HETATM    9  C   UNL     1      28.645  39.010  50.121  1.00  0.00     0.011 A 
HETATM   10 BR   UNL     1      29.975  37.906  50.886  1.00  0.00    -0.051 Br
HETATM   11  C   UNL     1      28.005  38.609  48.951  1.00  0.00     0.021 A 
HETATM   12  C   UNL     1      27.021  39.423  48.393  1.00  0.00     0.031 A 
HETATM   13  H   UNL     1      25.226  41.147  47.612  1.00  0.00     0.170 HD
ENDROOT
BRANCH   2  14
HETATM   14  C   UNL     1      28.006  43.005  51.678  1.00  0.00     0.279 C 
HETATM   15  N   UNL     1      27.745  43.005  53.038  1.00  0.00    -0.352 N 
HETATM   16  H   UNL     1      27.040  42.349  53.363  1.00  0.00     0.162 HD
HETATM   17  O   UNL     1      29.020  43.518  51.205  1.00  0.00    -0.268 OA
BRANCH  15  18
HETATM   18  C   UNL     1      28.672  43.549  53.996  1.00  0.00     0.168 C 
BRANCH  18  19
HETATM   19  C   UNL     1      28.145  44.876  54.433  1.00  0.00     0.000 A 
HETATM   20  S   UNL     1      29.022  45.838  55.546  1.00  0.00    -0.105 SA
HETATM   21  C   UNL     1      27.831  47.065  55.523  1.00  0.00     0.050 A 
HETATM   22  C   UNL     1      26.782  46.752  54.688  1.00  0.00     0.008 A 
HETATM   23  C   UNL     1      26.962  45.486  54.060  1.00  0.00     0.017 A 
ENDBRANCH  18  19
ENDBRANCH  15  18
ENDBRANCH   2  14
BRANCH   2  24
HETATM   24  O   UNL     1      25.802  41.945  51.713  1.00  0.00    -0.359 OA
HETATM   25  H   UNL     1      25.522  42.777  52.128  1.00  0.00     0.213 HD
ENDBRANCH   2  24
BRANCH   1  26
HETATM   26  C   UNL     1      26.026  44.631  50.218  1.00  0.00     0.042 A 
HETATM   27  C   UNL     1      24.994  44.996  51.091  1.00  0.00     0.030 A 
HETATM   28  C   UNL     1      24.813  46.333  51.454  1.00  0.00     0.002 A 
HETATM   29  C   UNL     1      25.649  47.319  50.933  1.00  0.00     0.000 A 
HETATM   30  C   UNL     1      26.657  46.970  50.039  1.00  0.00     0.002 A 
HETATM   31  C   UNL     1      26.840  45.634  49.678  1.00  0.00     0.030 A 
ENDBRANCH   1  26
TORSDOF 5
ENDMDL
