MODEL 1
REMARK VINA RESULT:     -10.1      0.000      0.000
REMARK  5 active torsions:
REMARK  status: ('A' for Active; 'I' for Inactive)
REMARK    1  A    between atoms: C_4  and  C_5 
REMARK    2  A    between atoms: C_17  and  C_18 
REMARK    3  A    between atoms: C_18  and  N_19 
REMARK       I    between atoms: N_19  and  C_20 
REMARK    4  A    between atoms: C_20  and  C_21 
REMARK    5  A    between atoms: C_21  and  C_22 
ROOT
HETATM    1  C   UNL     1      25.789  40.508  49.616  1.00  0.00     0.048 C 
HETATM    2  C   UNL     1      25.756  41.944  50.053  1.00  0.00    -0.060 A 
HETATM    3  C   UNL     1      26.569  42.389  51.116  1.00  0.00     0.024 A 
HETATM    4  C   UNL     1      26.583  43.736  51.534  1.00  0.00     0.034 A 
HETATM    5  C   UNL     1      25.770  44.613  50.826  1.00  0.00     0.088 A 
HETATM    6  C   UNL     1      24.969  44.186  49.774  1.00  0.00    -0.021 A 
HETATM    7  C   UNL     1      24.277  45.339  49.158  1.00  0.00     0.075 C 
HETATM    8  C   UNL     1      24.600  46.428  50.190  1.00  0.00     0.151 C 
HETATM    9  O   UNL     1      25.702  45.972  51.020  1.00  0.00    -0.342 OA
HETATM   10  C   UNL     1      24.949  42.861  49.373  1.00  0.00     0.017 A 
ENDROOT
BRANCH   8  11
HETATM   11  C   UNL     1      25.004  47.756  49.536  1.00  0.00     0.155 C 
BRANCH  11  12
HETATM   12  N   UNL     1      24.008  48.806  49.663  1.00  0.00    -0.359 N 
HETATM   13  C   UNL     1      23.783  49.722  48.660  1.00  0.00     0.219 C 
HETATM   14  O   UNL     1      24.410  49.728  47.608  1.00  0.00    -0.274 OA
HETATM   15  H   UNL     1      23.407  48.803  50.479  1.00  0.00     0.162 HD
BRANCH  13  16
HETATM   16  C   UNL     1      22.699  50.719  49.008  1.00  0.00     0.128 C 
BRANCH  16  17
HETATM   17  C   UNL     1      21.506  50.689  48.043  1.00  0.00     0.094 C 
HETATM   18  N   UNL     1      21.004  49.321  47.936  1.00  0.00    -0.362 N 
HETATM   19  C   UNL     1      20.042  48.797  48.736  1.00  0.00     0.168 C 
HETATM   20  H   UNL     1      21.504  48.657  47.355  1.00  0.00     0.162 HD
HETATM   21  S   UNL     1      19.710  47.172  48.729  1.00  0.00    -0.041 SA
HETATM   22  N   UNL     1      19.343  49.654  49.519  1.00  0.00    -0.363 N 
HETATM   23  C   UNL     1      19.641  51.068  49.672  1.00  0.00     0.081 C 
HETATM   24  H   UNL     1      18.676  49.221  50.147  1.00  0.00     0.162 HD
HETATM   25  C   UNL     1      18.366  51.853  49.966  1.00  0.00     0.032 C 
HETATM   26  C   UNL     1      20.343  51.609  48.428  1.00  0.00     0.050 C 
ENDBRANCH  16  17
ENDBRANCH  13  16
ENDBRANCH  11  12
ENDBRANCH   8  11
BRANCH   4  27
HETATM   27  C   UNL     1      27.458  44.119  52.652  1.00  0.00     0.112 A 
HETATM   28  S   UNL     1      27.078  45.444  53.684  1.00  0.00    -0.067 SA
HETATM   29  C   UNL     1      28.465  45.114  54.644  1.00  0.00     0.035 A 
HETATM   30  C   UNL     1      29.120  43.999  54.122  1.00  0.00     0.075 A 
HETATM   31  C   UNL     1      28.939  45.788  55.782  1.00  0.00     0.021 A 
HETATM   32  N   UNL     1      28.532  43.437  53.003  1.00  0.00    -0.239 NA
HETATM   33  C   UNL     1      30.291  43.541  54.759  1.00  0.00     0.033 A 
HETATM   34  C   UNL     1      30.773  44.204  55.892  1.00  0.00     0.002 A 
HETATM   35  C   UNL     1      30.102  45.313  56.396  1.00  0.00     0.002 A 
ENDBRANCH   4  27
TORSDOF 5
ENDMDL
MODEL 2
REMARK VINA RESULT:     -10.0      1.309      1.636
REMARK  5 active torsions:
REMARK  status: ('A' for Active; 'I' for Inactive)
REMARK    1  A    between atoms: C_4  and  C_5 
REMARK    2  A    between atoms: C_17  and  C_18 
REMARK    3  A    between atoms: C_18  and  N_19 
REMARK       I    between atoms: N_19  and  C_20 
REMARK    4  A    between atoms: C_20  and  C_21 
REMARK    5  A    between atoms: C_21  and  C_22 
ROOT
HETATM    1  C   UNL     1      26.696  39.834  50.086  1.00  0.00     0.048 C 
HETATM    2  C   UNL     1      26.472  41.250  50.533  1.00  0.00    -0.060 A 
HETATM    3  C   UNL     1      27.184  41.776  51.631  1.00  0.00     0.024 A 
HETATM    4  C   UNL     1      27.019  43.109  52.062  1.00  0.00     0.034 A 
HETATM    5  C   UNL     1      26.133  43.891  51.330  1.00  0.00     0.088 A 
HETATM    6  C   UNL     1      25.430  43.384  50.244  1.00  0.00    -0.021 A 
HETATM    7  C   UNL     1      24.626  44.452  49.612  1.00  0.00     0.075 C 
HETATM    8  C   UNL     1      24.776  45.559  50.665  1.00  0.00     0.151 C 
HETATM    9  O   UNL     1      25.893  45.228  51.534  1.00  0.00    -0.342 OA
HETATM   10  C   UNL     1      25.586  42.072  49.830  1.00  0.00     0.017 A 
ENDROOT
BRANCH   8  11
HETATM   11  C   UNL     1      25.040  46.934  50.039  1.00  0.00     0.155 C 
BRANCH  11  12
HETATM   12  N   UNL     1      23.916  47.851  50.129  1.00  0.00    -0.359 N 
HETATM   13  C   UNL     1      23.839  48.987  49.354  1.00  0.00     0.219 C 
HETATM   14  O   UNL     1      24.709  49.311  48.555  1.00  0.00    -0.274 OA
HETATM   15  H   UNL     1      23.132  47.594  50.716  1.00  0.00     0.162 HD
BRANCH  13  16
HETATM   16  C   UNL     1      22.581  49.789  49.611  1.00  0.00     0.128 C 
BRANCH  16  17
HETATM   17  C   UNL     1      21.376  49.319  48.786  1.00  0.00     0.094 C 
HETATM   18  N   UNL     1      20.417  48.653  49.666  1.00  0.00    -0.362 N 
HETATM   19  C   UNL     1      19.405  49.287  50.309  1.00  0.00     0.168 C 
HETATM   20  H   UNL     1      20.599  47.700  49.961  1.00  0.00     0.162 HD
HETATM   21  S   UNL     1      18.523  48.521  51.487  1.00  0.00    -0.041 SA
HETATM   22  N   UNL     1      19.123  50.558  49.934  1.00  0.00    -0.363 N 
HETATM   23  C   UNL     1      19.912  51.341  48.997  1.00  0.00     0.081 C 
HETATM   24  H   UNL     1      18.403  51.021  50.477  1.00  0.00     0.162 HD
HETATM   25  C   UNL     1      19.025  52.336  48.254  1.00  0.00     0.032 C 
HETATM   26  C   UNL     1      20.649  50.428  48.019  1.00  0.00     0.050 C 
ENDBRANCH  16  17
ENDBRANCH  13  16
ENDBRANCH  11  12
ENDBRANCH   8  11
BRANCH   4  27
HETATM   27  C   UNL     1      27.799  43.579  53.216  1.00  0.00     0.112 A 
HETATM   28  S   UNL     1      29.366  42.954  53.562  1.00  0.00    -0.067 SA
HETATM   29  C   UNL     1      29.523  44.039  54.886  1.00  0.00     0.035 A 
HETATM   30  C   UNL     1      28.373  44.822  54.965  1.00  0.00     0.075 A 
HETATM   31  C   UNL     1      30.590  44.192  55.787  1.00  0.00     0.021 A 
HETATM   32  N   UNL     1      27.410  44.562  54.006  1.00  0.00    -0.239 NA
HETATM   33  C   UNL     1      28.284  45.794  55.983  1.00  0.00     0.033 A 
HETATM   34  C   UNL     1      29.339  45.956  56.886  1.00  0.00     0.002 A 
HETATM   35  C   UNL     1      30.478  45.164  56.786  1.00  0.00     0.002 A 
ENDBRANCH   4  27
TORSDOF 5
ENDMDL
MODEL 3
REMARK VINA RESULT:     -10.0      3.295      8.353
REMARK  5 active torsions:
REMARK  status: ('A' for Active; 'I' for Inactive)
REMARK    1  A    between atoms: C_4  and  C_5 
REMARK    2  A    between atoms: C_17  and  C_18 
REMARK    3  A    between atoms: C_18  and  N_19 
REMARK       I    between atoms: N_19  and  C_20 
REMARK    4  A    between atoms: C_20  and  C_21 
REMARK    5  A    between atoms: C_21  and  C_22 
ROOT
HETATM    1  C   UNL     1      18.672  52.125  49.917  1.00  0.00     0.048 C 
HETATM    2  C   UNL     1      19.261  50.844  49.404  1.00  0.00    -0.060 A 
HETATM    3  C   UNL     1      20.660  50.674  49.336  1.00  0.00     0.024 A 
HETATM    4  C   UNL     1      21.247  49.474  48.885  1.00  0.00     0.034 A 
HETATM    5  C   UNL     1      20.375  48.451  48.532  1.00  0.00     0.088 A 
HETATM    6  C   UNL     1      18.996  48.606  48.599  1.00  0.00    -0.021 A 
HETATM    7  C   UNL     1      18.321  47.339  48.242  1.00  0.00     0.075 C 
HETATM    8  C   UNL     1      19.517  46.540  47.707  1.00  0.00     0.151 C 
HETATM    9  O   UNL     1      20.743  47.184  48.148  1.00  0.00    -0.342 OA
HETATM   10  C   UNL     1      18.421  49.789  49.032  1.00  0.00     0.017 A 
ENDROOT
BRANCH   8  11
HETATM   11  C   UNL     1      19.525  45.090  48.207  1.00  0.00     0.155 C 
BRANCH  11  12
HETATM   12  N   UNL     1      20.548  44.812  49.201  1.00  0.00    -0.359 N 
HETATM   13  C   UNL     1      21.635  44.012  48.925  1.00  0.00     0.219 C 
HETATM   14  O   UNL     1      21.806  43.470  47.840  1.00  0.00    -0.274 OA
HETATM   15  H   UNL     1      20.498  45.295  50.090  1.00  0.00     0.162 HD
BRANCH  13  16
HETATM   16  C   UNL     1      22.570  43.866  50.105  1.00  0.00     0.128 C 
BRANCH  16  17
HETATM   17  C   UNL     1      23.789  44.796  50.039  1.00  0.00     0.094 C 
HETATM   18  N   UNL     1      24.226  45.118  51.396  1.00  0.00    -0.362 N 
HETATM   19  C   UNL     1      25.137  44.396  52.095  1.00  0.00     0.168 C 
HETATM   20  H   UNL     1      23.713  45.813  51.927  1.00  0.00     0.162 HD
HETATM   21  S   UNL     1      25.389  44.666  53.712  1.00  0.00    -0.041 SA
HETATM   22  N   UNL     1      25.853  43.466  51.418  1.00  0.00    -0.363 N 
HETATM   23  C   UNL     1      25.620  43.086  50.035  1.00  0.00     0.081 C 
HETATM   24  H   UNL     1      26.478  42.904  51.984  1.00  0.00     0.162 HD
HETATM   25  C   UNL     1      26.922  42.638  49.378  1.00  0.00     0.032 C 
HETATM   26  C   UNL     1      24.984  44.237  49.259  1.00  0.00     0.050 C 
ENDBRANCH  16  17
ENDBRANCH  13  16
ENDBRANCH  11  12
ENDBRANCH   8  11
BRANCH   4  27
HETATM   27  C   UNL     1      22.714  49.378  48.844  1.00  0.00     0.112 A 
HETATM   28  S   UNL     1      23.669  50.511  47.967  1.00  0.00    -0.067 SA
HETATM   29  C   UNL     1      25.107  49.744  48.511  1.00  0.00     0.035 A 
HETATM   30  C   UNL     1      24.763  48.680  49.345  1.00  0.00     0.075 A 
HETATM   31  C   UNL     1      26.446  50.062  48.228  1.00  0.00     0.021 A 
HETATM   32  N   UNL     1      23.405  48.492  49.537  1.00  0.00    -0.239 NA
HETATM   33  C   UNL     1      25.793  47.906  49.917  1.00  0.00     0.033 A 
HETATM   34  C   UNL     1      27.130  48.213  49.642  1.00  0.00     0.002 A 
HETATM   35  C   UNL     1      27.449  49.279  48.808  1.00  0.00     0.002 A 
ENDBRANCH   4  27
TORSDOF 5
ENDMDL
MODEL 4
REMARK VINA RESULT:      -9.8      2.252     10.067
REMARK  5 active torsions:
REMARK  status: ('A' for Active; 'I' for Inactive)
REMARK    1  A    between atoms: C_4  and  C_5 
REMARK    2  A    between atoms: C_17  and  C_18 
REMARK    3  A    between atoms: C_18  and  N_19 
REMARK       I    between atoms: N_19  and  C_20 
REMARK    4  A    between atoms: C_20  and  C_21 
REMARK    5  A    between atoms: C_21  and  C_22 
ROOT
HETATM    1  C   UNL     1      26.890  50.000  48.438  1.00  0.00     0.048 C 
HETATM    2  C   UNL     1      26.086  48.921  49.104  1.00  0.00    -0.060 A 
HETATM    3  C   UNL     1      24.722  48.745  48.788  1.00  0.00     0.024 A 
HETATM    4  C   UNL     1      23.943  47.726  49.374  1.00  0.00     0.034 A 
HETATM    5  C   UNL     1      24.596  46.882  50.264  1.00  0.00     0.088 A 
HETATM    6  C   UNL     1      25.940  47.043  50.579  1.00  0.00    -0.021 A 
HETATM    7  C   UNL     1      26.386  45.963  51.485  1.00  0.00     0.075 C 
HETATM    8  C   UNL     1      25.031  45.335  51.841  1.00  0.00     0.151 C 
HETATM    9  O   UNL     1      24.042  45.783  50.876  1.00  0.00    -0.342 OA
HETATM   10  C   UNL     1      26.700  48.052  50.011  1.00  0.00     0.017 A 
ENDROOT
BRANCH   8  11
HETATM   11  C   UNL     1      25.070  43.802  51.818  1.00  0.00     0.155 C 
BRANCH  11  12
HETATM   12  N   UNL     1      26.320  43.234  52.296  1.00  0.00    -0.359 N 
HETATM   13  C   UNL     1      26.636  43.192  53.636  1.00  0.00     0.219 C 
HETATM   14  O   UNL     1      25.902  43.639  54.509  1.00  0.00    -0.274 OA
HETATM   15  H   UNL     1      26.930  42.782  51.626  1.00  0.00     0.162 HD
BRANCH  13  16
HETATM   16  C   UNL     1      27.983  42.555  53.901  1.00  0.00     0.128 C 
BRANCH  16  17
HETATM   17  C   UNL     1      29.168  43.489  53.618  1.00  0.00     0.094 C 
HETATM   18  N   UNL     1      28.775  44.867  53.900  1.00  0.00    -0.362 N 
HETATM   19  C   UNL     1      28.919  45.470  55.106  1.00  0.00     0.168 C 
HETATM   20  H   UNL     1      28.208  45.366  53.223  1.00  0.00     0.162 HD
HETATM   21  S   UNL     1      28.217  46.940  55.421  1.00  0.00    -0.041 SA
HETATM   22  N   UNL     1      29.680  44.841  56.034  1.00  0.00    -0.363 N 
HETATM   23  C   UNL     1      30.235  43.506  55.885  1.00  0.00     0.081 C 
HETATM   24  H   UNL     1      29.714  45.289  56.942  1.00  0.00     0.162 HD
HETATM   25  C   UNL     1      31.543  43.382  56.661  1.00  0.00     0.032 C 
HETATM   26  C   UNL     1      30.441  43.170  54.409  1.00  0.00     0.050 C 
ENDBRANCH  16  17
ENDBRANCH  13  16
ENDBRANCH  11  12
ENDBRANCH   8  11
BRANCH   4  27
HETATM   27  C   UNL     1      22.529  47.610  48.991  1.00  0.00     0.112 A 
HETATM   28  S   UNL     1      21.921  46.211  48.192  1.00  0.00    -0.067 SA
HETATM   29  C   UNL     1      20.331  46.864  48.226  1.00  0.00     0.035 A 
HETATM   30  C   UNL     1      20.366  48.103  48.864  1.00  0.00     0.075 A 
HETATM   31  C   UNL     1      19.135  46.317  47.731  1.00  0.00     0.021 A 
HETATM   32  N   UNL     1      21.613  48.508  49.305  1.00  0.00    -0.239 NA
HETATM   33  C   UNL     1      19.163  48.823  49.013  1.00  0.00     0.033 A 
HETATM   34  C   UNL     1      17.966  48.289  48.523  1.00  0.00     0.002 A 
HETATM   35  C   UNL     1      17.956  47.050  47.891  1.00  0.00     0.002 A 
ENDBRANCH   4  27
TORSDOF 5
ENDMDL
MODEL 5
REMARK VINA RESULT:      -9.8      1.766      2.476
REMARK  5 active torsions:
REMARK  status: ('A' for Active; 'I' for Inactive)
REMARK    1  A    between atoms: C_4  and  C_5 
REMARK    2  A    between atoms: C_17  and  C_18 
REMARK    3  A    between atoms: C_18  and  N_19 
REMARK       I    between atoms: N_19  and  C_20 
REMARK    4  A    between atoms: C_20  and  C_21 
REMARK    5  A    between atoms: C_21  and  C_22 
ROOT
HETATM    1  C   UNL     1      28.364  39.987  50.366  1.00  0.00     0.048 C 
HETATM    2  C   UNL     1      27.798  41.251  50.945  1.00  0.00    -0.060 A 
HETATM    3  C   UNL     1      28.409  41.867  52.058  1.00  0.00     0.024 A 
HETATM    4  C   UNL     1      27.921  43.069  52.610  1.00  0.00     0.034 A 
HETATM    5  C   UNL     1      26.816  43.634  51.986  1.00  0.00     0.088 A 
HETATM    6  C   UNL     1      26.209  43.039  50.887  1.00  0.00    -0.021 A 
HETATM    7  C   UNL     1      25.112  43.894  50.383  1.00  0.00     0.075 C 
HETATM    8  C   UNL     1      25.025  44.917  51.523  1.00  0.00     0.151 C 
HETATM    9  O   UNL     1      26.240  44.838  52.315  1.00  0.00    -0.342 OA
HETATM   10  C   UNL     1      26.684  41.853  50.353  1.00  0.00     0.017 A 
ENDROOT
BRANCH   8  11
HETATM   11  C   UNL     1      24.873  46.355  51.012  1.00  0.00     0.155 C 
BRANCH  11  12
HETATM   12  N   UNL     1      23.915  46.500  49.928  1.00  0.00    -0.359 N 
HETATM   13  C   UNL     1      23.489  47.736  49.494  1.00  0.00     0.219 C 
HETATM   14  O   UNL     1      23.868  48.788  49.995  1.00  0.00    -0.274 OA
HETATM   15  H   UNL     1      23.626  45.669  49.428  1.00  0.00     0.162 HD
BRANCH  13  16
HETATM   16  C   UNL     1      22.496  47.647  48.355  1.00  0.00     0.128 C 
BRANCH  16  17
HETATM   17  C   UNL     1      21.046  47.458  48.820  1.00  0.00     0.094 C 
HETATM   18  N   UNL     1      20.631  48.624  49.597  1.00  0.00    -0.362 N 
HETATM   19  C   UNL     1      20.046  49.726  49.064  1.00  0.00     0.168 C 
HETATM   20  H   UNL     1      20.938  48.711  50.559  1.00  0.00     0.162 HD
HETATM   21  S   UNL     1      19.842  51.108  49.958  1.00  0.00    -0.041 SA
HETATM   22  N   UNL     1      19.610  49.647  47.783  1.00  0.00    -0.363 N 
HETATM   23  C   UNL     1      19.848  48.522  46.894  1.00  0.00     0.081 C 
HETATM   24  H   UNL     1      19.236  50.507  47.399  1.00  0.00     0.162 HD
HETATM   25  C   UNL     1      18.707  48.384  45.891  1.00  0.00     0.032 C 
HETATM   26  C   UNL     1      20.033  47.234  47.693  1.00  0.00     0.050 C 
ENDBRANCH  16  17
ENDBRANCH  13  16
ENDBRANCH  11  12
ENDBRANCH   8  11
BRANCH   4  27
HETATM   27  C   UNL     1      28.616  43.646  53.771  1.00  0.00     0.112 A 
HETATM   28  S   UNL     1      28.051  45.079  54.540  1.00  0.00    -0.067 SA
HETATM   29  C   UNL     1      29.297  44.955  55.718  1.00  0.00     0.035 A 
HETATM   30  C   UNL     1      30.053  43.814  55.456  1.00  0.00     0.075 A 
HETATM   31  C   UNL     1      29.582  45.803  56.802  1.00  0.00     0.021 A 
HETATM   32  N   UNL     1      29.649  43.073  54.360  1.00  0.00    -0.239 NA
HETATM   33  C   UNL     1      31.134  43.507  56.308  1.00  0.00     0.033 A 
HETATM   34  C   UNL     1      31.429  44.343  57.389  1.00  0.00     0.002 A 
HETATM   35  C   UNL     1      30.660  45.477  57.631  1.00  0.00     0.002 A 
ENDBRANCH   4  27
TORSDOF 5
ENDMDL
MODEL 6
REMARK VINA RESULT:      -9.6      4.154      9.267
REMARK  5 active torsions:
REMARK  status: ('A' for Active; 'I' for Inactive)
REMARK    1  A    between atoms: C_4  and  C_5 
REMARK    2  A    between atoms: C_17  and  C_18 
REMARK    3  A    between atoms: C_18  and  N_19 
REMARK       I    between atoms: N_19  and  C_20 
REMARK    4  A    between atoms: C_20  and  C_21 
REMARK    5  A    between atoms: C_21  and  C_22 
ROOT
HETATM    1  C   UNL     1      26.476  48.897  55.917  1.00  0.00     0.048 C 
HETATM    2  C   UNL     1      26.734  47.615  55.180  1.00  0.00    -0.060 A 
HETATM    3  C   UNL     1      25.941  47.253  54.071  1.00  0.00     0.024 A 
HETATM    4  C   UNL     1      26.172  46.070  53.339  1.00  0.00     0.034 A 
HETATM    5  C   UNL     1      27.242  45.285  53.752  1.00  0.00     0.088 A 
HETATM    6  C   UNL     1      28.032  45.634  54.840  1.00  0.00    -0.021 A 
HETATM    7  C   UNL     1      29.137  44.664  55.002  1.00  0.00     0.075 C 
HETATM    8  C   UNL     1      28.688  43.580  54.012  1.00  0.00     0.151 C 
HETATM    9  O   UNL     1      27.682  44.143  53.128  1.00  0.00    -0.342 OA
HETATM   10  C   UNL     1      27.796  46.791  55.564  1.00  0.00     0.017 A 
ENDROOT
BRANCH   8  11
HETATM   11  C   UNL     1      29.845  43.051  53.155  1.00  0.00     0.155 C 
BRANCH  11  12
HETATM   12  N   UNL     1      29.448  42.054  52.176  1.00  0.00    -0.359 N 
HETATM   13  C   UNL     1      28.721  40.938  52.526  1.00  0.00     0.219 C 
HETATM   14  O   UNL     1      28.375  40.700  53.677  1.00  0.00    -0.274 OA
HETATM   15  H   UNL     1      29.640  42.236  51.198  1.00  0.00     0.162 HD
BRANCH  13  16
HETATM   16  C   UNL     1      28.417  40.041  51.346  1.00  0.00     0.128 C 
BRANCH  16  17
HETATM   17  C   UNL     1      28.485  40.764  49.994  1.00  0.00     0.094 C 
HETATM   18  N   UNL     1      28.938  39.828  48.967  1.00  0.00    -0.362 N 
HETATM   19  C   UNL     1      28.110  39.054  48.222  1.00  0.00     0.168 C 
HETATM   20  H   UNL     1      29.925  39.603  48.907  1.00  0.00     0.162 HD
HETATM   21  S   UNL     1      28.703  37.835  47.266  1.00  0.00    -0.041 SA
HETATM   22  N   UNL     1      26.784  39.332  48.266  1.00  0.00    -0.363 N 
HETATM   23  C   UNL     1      26.169  40.301  49.157  1.00  0.00     0.081 C 
HETATM   24  H   UNL     1      26.191  38.695  47.747  1.00  0.00     0.162 HD
HETATM   25  C   UNL     1      24.920  40.897  48.516  1.00  0.00     0.032 C 
HETATM   26  C   UNL     1      27.166  41.394  49.535  1.00  0.00     0.050 C 
ENDBRANCH  16  17
ENDBRANCH  13  16
ENDBRANCH  11  12
ENDBRANCH   8  11
BRANCH   4  27
HETATM   27  C   UNL     1      25.299  45.765  52.196  1.00  0.00     0.112 A 
HETATM   28  S   UNL     1      25.135  46.853  50.871  1.00  0.00    -0.067 SA
HETATM   29  C   UNL     1      24.103  45.739  50.065  1.00  0.00     0.035 A 
HETATM   30  C   UNL     1      23.966  44.599  50.855  1.00  0.00     0.075 A 
HETATM   31  C   UNL     1      23.464  45.861  48.819  1.00  0.00     0.021 A 
HETATM   32  N   UNL     1      24.659  44.620  52.053  1.00  0.00    -0.239 NA
HETATM   33  C   UNL     1      23.161  43.541  50.385  1.00  0.00     0.033 A 
HETATM   34  C   UNL     1      22.520  43.650  49.147  1.00  0.00     0.002 A 
HETATM   35  C   UNL     1      22.672  44.797  48.375  1.00  0.00     0.002 A 
ENDBRANCH   4  27
TORSDOF 5
ENDMDL
MODEL 7
REMARK VINA RESULT:      -9.6      2.061      4.502
REMARK  5 active torsions:
REMARK  status: ('A' for Active; 'I' for Inactive)
REMARK    1  A    between atoms: C_4  and  C_5 
REMARK    2  A    between atoms: C_17  and  C_18 
REMARK    3  A    between atoms: C_18  and  N_19 
REMARK       I    between atoms: N_19  and  C_20 
REMARK    4  A    between atoms: C_20  and  C_21 
REMARK    5  A    between atoms: C_21  and  C_22 
ROOT
HETATM    1  C   UNL     1      27.735  45.282  55.256  1.00  0.00     0.048 C 
HETATM    2  C   UNL     1      27.246  45.251  53.837  1.00  0.00    -0.060 A 
HETATM    3  C   UNL     1      27.514  44.140  53.011  1.00  0.00     0.024 A 
HETATM    4  C   UNL     1      27.046  44.065  51.682  1.00  0.00     0.034 A 
HETATM    5  C   UNL     1      26.283  45.135  51.233  1.00  0.00     0.088 A 
HETATM    6  C   UNL     1      26.009  46.233  52.040  1.00  0.00    -0.021 A 
HETATM    7  C   UNL     1      25.116  47.177  51.334  1.00  0.00     0.075 C 
HETATM    8  C   UNL     1      25.152  46.575  49.922  1.00  0.00     0.151 C 
HETATM    9  O   UNL     1      25.668  45.219  50.006  1.00  0.00    -0.342 OA
HETATM   10  C   UNL     1      26.478  46.309  53.341  1.00  0.00     0.017 A 
ENDROOT
BRANCH   8  11
HETATM   11  C   UNL     1      23.765  46.525  49.269  1.00  0.00     0.155 C 
BRANCH  11  12
HETATM   12  N   UNL     1      22.922  47.666  49.583  1.00  0.00    -0.359 N 
HETATM   13  C   UNL     1      22.281  48.391  48.602  1.00  0.00     0.219 C 
HETATM   14  O   UNL     1      22.389  48.139  47.408  1.00  0.00    -0.274 OA
HETATM   15  H   UNL     1      22.735  47.873  50.557  1.00  0.00     0.162 HD
BRANCH  13  16
HETATM   16  C   UNL     1      21.456  49.530  49.159  1.00  0.00     0.128 C 
BRANCH  16  17
HETATM   17  C   UNL     1      20.857  50.439  48.077  1.00  0.00     0.094 C 
HETATM   18  N   UNL     1      19.932  49.665  47.253  1.00  0.00    -0.362 N 
HETATM   19  C   UNL     1      18.607  49.533  47.512  1.00  0.00     0.168 C 
HETATM   20  H   UNL     1      20.305  49.047  46.540  1.00  0.00     0.162 HD
HETATM   21  S   UNL     1      17.676  48.435  46.688  1.00  0.00    -0.041 SA
HETATM   22  N   UNL     1      18.067  50.350  48.448  1.00  0.00    -0.363 N 
HETATM   23  C   UNL     1      18.826  51.256  49.295  1.00  0.00     0.081 C 
HETATM   24  H   UNL     1      17.091  50.181  48.660  1.00  0.00     0.162 HD
HETATM   25  C   UNL     1      17.984  52.474  49.662  1.00  0.00     0.032 C 
HETATM   26  C   UNL     1      20.124  51.675  48.608  1.00  0.00     0.050 C 
ENDBRANCH  16  17
ENDBRANCH  13  16
ENDBRANCH  11  12
ENDBRANCH   8  11
BRANCH   4  27
HETATM   27  C   UNL     1      27.370  42.871  50.887  1.00  0.00     0.112 A 
HETATM   28  S   UNL     1      27.920  41.416  51.625  1.00  0.00    -0.067 SA
HETATM   29  C   UNL     1      27.949  40.633  50.095  1.00  0.00     0.035 A 
HETATM   30  C   UNL     1      27.518  41.532  49.121  1.00  0.00     0.075 A 
HETATM   31  C   UNL     1      28.320  39.315  49.778  1.00  0.00     0.021 A 
HETATM   32  N   UNL     1      27.180  42.791  49.583  1.00  0.00    -0.239 NA
HETATM   33  C   UNL     1      27.456  41.100  47.780  1.00  0.00     0.033 A 
HETATM   34  C   UNL     1      27.823  39.791  47.452  1.00  0.00     0.002 A 
HETATM   35  C   UNL     1      28.249  38.911  48.441  1.00  0.00     0.002 A 
ENDBRANCH   4  27
TORSDOF 5
ENDMDL
MODEL 8
REMARK VINA RESULT:      -9.6      3.069     10.110
REMARK  5 active torsions:
REMARK  status: ('A' for Active; 'I' for Inactive)
REMARK    1  A    between atoms: C_4  and  C_5 
REMARK    2  A    between atoms: C_17  and  C_18 
REMARK    3  A    between atoms: C_18  and  N_19 
REMARK       I    between atoms: N_19  and  C_20 
REMARK    4  A    between atoms: C_20  and  C_21 
REMARK    5  A    between atoms: C_21  and  C_22 
ROOT
HETATM    1  C   UNL     1      28.009  49.329  49.146  1.00  0.00     0.048 C 
HETATM    2  C   UNL     1      26.803  48.476  49.414  1.00  0.00    -0.060 A 
HETATM    3  C   UNL     1      25.507  48.959  49.138  1.00  0.00     0.024 A 
HETATM    4  C   UNL     1      24.355  48.175  49.352  1.00  0.00     0.034 A 
HETATM    5  C   UNL     1      24.562  46.885  49.828  1.00  0.00     0.088 A 
HETATM    6  C   UNL     1      25.834  46.397  50.098  1.00  0.00    -0.021 A 
HETATM    7  C   UNL     1      25.761  44.980  50.513  1.00  0.00     0.075 C 
HETATM    8  C   UNL     1      24.244  44.832  50.693  1.00  0.00     0.151 C 
HETATM    9  O   UNL     1      23.584  45.940  50.023  1.00  0.00    -0.342 OA
HETATM   10  C   UNL     1      26.964  47.173  49.897  1.00  0.00     0.017 A 
ENDROOT
BRANCH   8  11
HETATM   11  C   UNL     1      23.708  43.521  50.104  1.00  0.00     0.155 C 
BRANCH  11  12
HETATM   12  N   UNL     1      24.656  42.420  50.149  1.00  0.00    -0.359 N 
HETATM   13  C   UNL     1      25.107  41.800  49.005  1.00  0.00     0.219 C 
HETATM   14  O   UNL     1      24.732  42.116  47.882  1.00  0.00    -0.274 OA
HETATM   15  H   UNL     1      25.057  42.167  51.044  1.00  0.00     0.162 HD
BRANCH  13  16
HETATM   16  C   UNL     1      26.090  40.686  49.290  1.00  0.00     0.128 C 
BRANCH  16  17
HETATM   17  C   UNL     1      27.553  41.148  49.301  1.00  0.00     0.094 C 
HETATM   18  N   UNL     1      27.915  41.576  50.650  1.00  0.00    -0.362 N 
HETATM   19  C   UNL     1      28.435  40.756  51.597  1.00  0.00     0.168 C 
HETATM   20  H   UNL     1      27.614  42.489  50.974  1.00  0.00     0.162 HD
HETATM   21  S   UNL     1      28.576  41.247  53.175  1.00  0.00    -0.041 SA
HETATM   22  N   UNL     1      28.860  39.532  51.201  1.00  0.00    -0.363 N 
HETATM   23  C   UNL     1      28.672  38.979  49.870  1.00  0.00     0.081 C 
HETATM   24  H   UNL     1      29.184  38.925  51.944  1.00  0.00     0.162 HD
HETATM   25  C   UNL     1      29.807  38.020  49.525  1.00  0.00     0.032 C 
HETATM   26  C   UNL     1      28.564  40.095  48.833  1.00  0.00     0.050 C 
ENDBRANCH  16  17
ENDBRANCH  13  16
ENDBRANCH  11  12
ENDBRANCH   8  11
BRANCH   4  27
HETATM   27  C   UNL     1      23.040  48.753  49.040  1.00  0.00     0.112 A 
HETATM   28  S   UNL     1      21.933  47.962  47.984  1.00  0.00    -0.067 SA
HETATM   29  C   UNL     1      20.765  49.193  48.261  1.00  0.00     0.035 A 
HETATM   30  C   UNL     1      21.292  50.120  49.159  1.00  0.00     0.075 A 
HETATM   31  C   UNL     1      19.472  49.326  47.729  1.00  0.00     0.021 A 
HETATM   32  N   UNL     1      22.575  49.853  49.604  1.00  0.00    -0.239 NA
HETATM   33  C   UNL     1      20.499  51.222  49.540  1.00  0.00     0.033 A 
HETATM   34  C   UNL     1      19.210  51.366  49.016  1.00  0.00     0.002 A 
HETATM   35  C   UNL     1      18.705  50.428  48.122  1.00  0.00     0.002 A 
ENDBRANCH   4  27
TORSDOF 5
ENDMDL
MODEL 9
REMARK VINA RESULT:      -9.4      3.687      8.602
REMARK  5 active torsions:
REMARK  status: ('A' for Active; 'I' for Inactive)
REMARK    1  A    between atoms: C_4  and  C_5 
REMARK    2  A    between atoms: C_17  and  C_18 
REMARK    3  A    between atoms: C_18  and  N_19 
REMARK       I    between atoms: N_19  and  C_20 
REMARK    4  A    between atoms: C_20  and  C_21 
REMARK    5  A    between atoms: C_21  and  C_22 
ROOT
HETATM    1  C   UNL     1      19.054  52.408  48.487  1.00  0.00     0.048 C 
HETATM    2  C   UNL     1      19.672  51.103  48.079  1.00  0.00    -0.060 A 
HETATM    3  C   UNL     1      21.009  50.805  48.418  1.00  0.00     0.024 A 
HETATM    4  C   UNL     1      21.613  49.578  48.075  1.00  0.00     0.034 A 
HETATM    5  C   UNL     1      20.814  48.660  47.404  1.00  0.00     0.088 A 
HETATM    6  C   UNL     1      19.495  48.941  47.070  1.00  0.00    -0.021 A 
HETATM    7  C   UNL     1      18.866  47.762  46.436  1.00  0.00     0.075 C 
HETATM    8  C   UNL     1      20.104  46.880  46.224  1.00  0.00     0.151 C 
HETATM    9  O   UNL     1      21.184  47.384  47.056  1.00  0.00    -0.342 OA
HETATM   10  C   UNL     1      18.907  50.151  47.398  1.00  0.00     0.017 A 
ENDROOT
BRANCH   8  11
HETATM   11  C   UNL     1      19.851  45.413  46.595  1.00  0.00     0.155 C 
BRANCH  11  12
HETATM   12  N   UNL     1      21.054  44.597  46.635  1.00  0.00    -0.359 N 
HETATM   13  C   UNL     1      21.611  44.179  47.824  1.00  0.00     0.219 C 
HETATM   14  O   UNL     1      21.149  44.476  48.919  1.00  0.00    -0.274 OA
HETATM   15  H   UNL     1      21.435  44.258  45.761  1.00  0.00     0.162 HD
BRANCH  13  16
HETATM   16  C   UNL     1      22.853  43.339  47.626  1.00  0.00     0.128 C 
BRANCH  16  17
HETATM   17  C   UNL     1      23.306  42.606  48.896  1.00  0.00     0.094 C 
HETATM   18  N   UNL     1      23.954  41.350  48.525  1.00  0.00    -0.362 N 
HETATM   19  C   UNL     1      25.282  41.219  48.285  1.00  0.00     0.168 C 
HETATM   20  H   UNL     1      23.378  40.558  48.262  1.00  0.00     0.162 HD
HETATM   21  S   UNL     1      25.901  39.832  47.619  1.00  0.00    -0.041 SA
HETATM   22  N   UNL     1      26.087  42.251  48.634  1.00  0.00    -0.363 N 
HETATM   23  C   UNL     1      25.620  43.541  49.115  1.00  0.00     0.081 C 
HETATM   24  H   UNL     1      27.063  42.144  48.383  1.00  0.00     0.162 HD
HETATM   25  C   UNL     1      26.643  44.159  50.063  1.00  0.00     0.032 C 
HETATM   26  C   UNL     1      24.259  43.403  49.793  1.00  0.00     0.050 C 
ENDBRANCH  16  17
ENDBRANCH  13  16
ENDBRANCH  11  12
ENDBRANCH   8  11
BRANCH   4  27
HETATM   27  C   UNL     1      23.012  49.347  48.465  1.00  0.00     0.112 A 
HETATM   28  S   UNL     1      23.468  47.992  49.426  1.00  0.00    -0.067 SA
HETATM   29  C   UNL     1      25.122  48.448  49.309  1.00  0.00     0.035 A 
HETATM   30  C   UNL     1      25.218  49.597  48.527  1.00  0.00     0.075 A 
HETATM   31  C   UNL     1      26.255  47.829  49.863  1.00  0.00     0.021 A 
HETATM   32  N   UNL     1      24.018  50.089  48.044  1.00  0.00    -0.239 NA
HETATM   33  C   UNL     1      26.493  50.151  48.289  1.00  0.00     0.033 A 
HETATM   34  C   UNL     1      27.629  49.545  48.836  1.00  0.00     0.002 A 
HETATM   35  C   UNL     1      27.508  48.398  49.613  1.00  0.00     0.002 A 
ENDBRANCH   4  27
TORSDOF 5
ENDMDL
MODEL 10
REMARK VINA RESULT:      -9.3      1.736      2.432
REMARK  5 active torsions:
REMARK  status: ('A' for Active; 'I' for Inactive)
REMARK    1  A    between atoms: C_4  and  C_5 
REMARK    2  A    between atoms: C_17  and  C_18 
REMARK    3  A    between atoms: C_18  and  N_19 
REMARK       I    between atoms: N_19  and  C_20 
REMARK    4  A    between atoms: C_20  and  C_21 
REMARK    5  A    between atoms: C_21  and  C_22 
ROOT
HETATM    1  C   UNL     1      28.905  39.327  51.372  1.00  0.00     0.048 C 
HETATM    2  C   UNL     1      28.488  40.763  51.509  1.00  0.00    -0.060 A 
HETATM    3  C   UNL     1      28.901  41.526  52.621  1.00  0.00     0.024 A 
HETATM    4  C   UNL     1      28.551  42.885  52.769  1.00  0.00     0.034 A 
HETATM    5  C   UNL     1      27.795  43.444  51.745  1.00  0.00     0.088 A 
HETATM    6  C   UNL     1      27.388  42.703  50.643  1.00  0.00    -0.021 A 
HETATM    7  C   UNL     1      26.670  43.568  49.681  1.00  0.00     0.075 C 
HETATM    8  C   UNL     1      26.505  44.835  50.533  1.00  0.00     0.151 C 
HETATM    9  O   UNL     1      27.423  44.764  51.657  1.00  0.00    -0.342 OA
HETATM   10  C   UNL     1      27.723  41.366  50.506  1.00  0.00     0.017 A 
ENDROOT
BRANCH   8  11
HETATM   11  C   UNL     1      26.803  46.116  49.744  1.00  0.00     0.155 C 
BRANCH  11  12
HETATM   12  N   UNL     1      25.835  47.179  49.954  1.00  0.00    -0.359 N 
HETATM   13  C   UNL     1      24.536  47.079  49.507  1.00  0.00     0.219 C 
HETATM   14  O   UNL     1      24.113  46.107  48.893  1.00  0.00    -0.274 OA
HETATM   15  H   UNL     1      26.107  47.973  50.521  1.00  0.00     0.162 HD
BRANCH  13  16
HETATM   16  C   UNL     1      23.705  48.300  49.840  1.00  0.00     0.128 C 
BRANCH  16  17
HETATM   17  C   UNL     1      23.183  49.042  48.602  1.00  0.00     0.094 C 
HETATM   18  N   UNL     1      22.332  48.145  47.824  1.00  0.00    -0.362 N 
HETATM   19  C   UNL     1      20.992  48.023  47.999  1.00  0.00     0.168 C 
HETATM   20  H   UNL     1      22.764  47.444  47.233  1.00  0.00     0.162 HD
HETATM   21  S   UNL     1      20.137  46.806  47.266  1.00  0.00    -0.041 SA
HETATM   22  N   UNL     1      20.374  48.949  48.772  1.00  0.00    -0.363 N 
HETATM   23  C   UNL     1      21.057  49.976  49.541  1.00  0.00     0.081 C 
HETATM   24  H   UNL     1      19.386  48.791  48.931  1.00  0.00     0.162 HD
HETATM   25  C   UNL     1      20.178  51.216  49.674  1.00  0.00     0.032 C 
HETATM   26  C   UNL     1      22.400  50.324  48.903  1.00  0.00     0.050 C 
ENDBRANCH  16  17
ENDBRANCH  13  16
ENDBRANCH  11  12
ENDBRANCH   8  11
BRANCH   4  27
HETATM   27  C   UNL     1      29.021  43.609  53.958  1.00  0.00     0.112 A 
HETATM   28  S   UNL     1      28.122  44.914  54.634  1.00  0.00    -0.067 SA
HETATM   29  C   UNL     1      29.269  45.063  55.907  1.00  0.00     0.035 A 
HETATM   30  C   UNL     1      30.255  44.093  55.741  1.00  0.00     0.075 A 
HETATM   31  C   UNL     1      29.291  45.970  56.980  1.00  0.00     0.021 A 
HETATM   32  N   UNL     1      30.096  43.267  54.642  1.00  0.00    -0.239 NA
HETATM   33  C   UNL     1      31.304  44.024  56.681  1.00  0.00     0.033 A 
HETATM   34  C   UNL     1      31.338  44.922  57.753  1.00  0.00     0.002 A 
HETATM   35  C   UNL     1      30.342  45.882  57.899  1.00  0.00     0.002 A 
ENDBRANCH   4  27
TORSDOF 5
ENDMDL
