MODEL 1
REMARK VINA RESULT:      -9.9      0.000      0.000
REMARK  5 active torsions:
REMARK  status: ('A' for Active; 'I' for Inactive)
REMARK    1  A    between atoms: C_5  and  C_6 
REMARK    2  A    between atoms: C_11  and  C_12 
REMARK       I    between atoms: C_12  and  N_13 
REMARK    3  A    between atoms: N_13  and  C_14 
REMARK    4  A    between atoms: C_16  and  O_17 
REMARK    5  A    between atoms: C_23  and  C_24 
ROOT
HETATM    1  C   UNL     1      27.330  43.529  51.838  1.00  0.00     0.118 C 
HETATM    2  N   UNL     1      27.482  44.631  50.884  1.00  0.00    -0.366 N 
HETATM    3  C   UNL     1      26.440  45.396  50.498  1.00  0.00     0.123 A 
HETATM    4  N   UNL     1      25.154  44.983  50.698  1.00  0.00    -0.240 N 
HETATM    5  N   UNL     1      24.227  45.913  50.407  1.00  0.00    -0.165 NA
HETATM    6  C   UNL     1      24.962  46.934  49.902  1.00  0.00     0.148 A 
HETATM    7  C   UNL     1      26.352  46.626  49.907  1.00  0.00     0.089 A 
HETATM    8  C   UNL     1      24.826  43.730  51.346  1.00  0.00     0.221 C 
HETATM    9  C   UNL     1      25.896  43.437  52.406  1.00  0.00     0.066 C 
HETATM   10  H   UNL     1      28.442  44.951  50.751  1.00  0.00     0.161 HD
ENDROOT
BRANCH   6  11
HETATM   11  C   UNL     1      24.344  48.204  49.474  1.00  0.00     0.276 C 
HETATM   12  N   UNL     1      22.973  48.091  49.365  1.00  0.00    -0.322 N 
HETATM   13  H   UNL     1      22.629  47.152  49.558  1.00  0.00     0.169 HD
HETATM   14  O   UNL     1      25.017  49.210  49.280  1.00  0.00    -0.266 OA
BRANCH  12  15
HETATM   15  C   UNL     1      22.032  49.093  49.073  1.00  0.00     0.037 A 
HETATM   16  C   UNL     1      21.249  49.109  47.917  1.00  0.00     0.066 A 
HETATM   17  C   UNL     1      20.354  50.156  47.701  1.00  0.00     0.067 A 
HETATM   18  C   UNL     1      20.222  51.189  48.620  1.00  0.00     0.036 A 
HETATM   19  C   UNL     1      20.998  51.178  49.776  1.00  0.00     0.005 A 
HETATM   20  C   UNL     1      21.899  50.134  50.001  1.00  0.00     0.029 A 
BRANCH  17  21
HETATM   21  O   UNL     1      19.579  50.204  46.579  1.00  0.00    -0.361 OA
HETATM   22  H   UNL     1      20.137  49.984  45.812  1.00  0.00     0.217 HD
ENDBRANCH  17  21
ENDBRANCH  12  15
ENDBRANCH   6  11
BRANCH   8  23
HETATM   23  C   UNL     1      24.693  42.628  50.322  1.00  0.00     0.409 C 
HETATM   24  F   UNL     1      25.254  42.959  49.137  1.00  0.00    -0.169 F 
HETATM   25  F   UNL     1      25.222  41.451  50.714  1.00  0.00    -0.169 F 
HETATM   26  F   UNL     1      23.378  42.395  50.072  1.00  0.00    -0.169 F 
ENDBRANCH   8  23
BRANCH   1  27
HETATM   27  C   UNL     1      28.327  43.702  52.972  1.00  0.00    -0.035 A 
HETATM   28  C   UNL     1      28.105  44.641  53.995  1.00  0.00     0.010 A 
HETATM   29  C   UNL     1      29.008  44.783  55.049  1.00  0.00     0.007 A 
HETATM   30  C   UNL     1      30.159  43.992  55.103  1.00  0.00    -0.062 A 
HETATM   31  C   UNL     1      31.111  44.117  56.256  1.00  0.00     0.048 C 
HETATM   32  C   UNL     1      30.379  43.042  54.100  1.00  0.00     0.007 A 
HETATM   33  C   UNL     1      29.475  42.900  53.042  1.00  0.00     0.010 A 
ENDBRANCH   1  27
TORSDOF 5
ENDMDL
MODEL 2
REMARK VINA RESULT:      -9.7      3.421      8.917
REMARK  5 active torsions:
REMARK  status: ('A' for Active; 'I' for Inactive)
REMARK    1  A    between atoms: C_5  and  C_6 
REMARK    2  A    between atoms: C_11  and  C_12 
REMARK       I    between atoms: C_12  and  N_13 
REMARK    3  A    between atoms: N_13  and  C_14 
REMARK    4  A    between atoms: C_16  and  O_17 
REMARK    5  A    between atoms: C_23  and  C_24 
ROOT
HETATM    1  C   UNL     1      24.169  45.489  50.017  1.00  0.00     0.118 C 
HETATM    2  N   UNL     1      24.623  45.587  51.408  1.00  0.00    -0.366 N 
HETATM    3  C   UNL     1      25.722  44.943  51.851  1.00  0.00     0.123 A 
HETATM    4  N   UNL     1      26.266  43.913  51.141  1.00  0.00    -0.240 N 
HETATM    5  N   UNL     1      27.443  43.474  51.622  1.00  0.00    -0.165 NA
HETATM    6  C   UNL     1      27.602  44.201  52.756  1.00  0.00     0.148 A 
HETATM    7  C   UNL     1      26.519  45.104  52.951  1.00  0.00     0.089 A 
HETATM    8  C   UNL     1      25.726  43.463  49.875  1.00  0.00     0.221 C 
HETATM    9  C   UNL     1      25.142  44.675  49.137  1.00  0.00     0.066 C 
HETATM   10  H   UNL     1      24.230  46.370  51.932  1.00  0.00     0.161 HD
ENDROOT
BRANCH   6  11
HETATM   11  C   UNL     1      28.801  44.067  53.606  1.00  0.00     0.276 C 
HETATM   12  N   UNL     1      28.663  44.759  54.793  1.00  0.00    -0.322 N 
HETATM   13  H   UNL     1      27.784  45.269  54.861  1.00  0.00     0.169 HD
HETATM   14  O   UNL     1      29.761  43.390  53.258  1.00  0.00    -0.266 OA
BRANCH  12  15
HETATM   15  C   UNL     1      29.541  44.801  55.889  1.00  0.00     0.037 A 
HETATM   16  C   UNL     1      30.534  43.848  56.125  1.00  0.00     0.066 A 
HETATM   17  C   UNL     1      31.348  43.960  57.251  1.00  0.00     0.067 A 
HETATM   18  C   UNL     1      31.192  45.009  58.148  1.00  0.00     0.036 A 
HETATM   19  C   UNL     1      30.205  45.964  57.918  1.00  0.00     0.005 A 
HETATM   20  C   UNL     1      29.383  45.860  56.793  1.00  0.00     0.029 A 
BRANCH  17  21
HETATM   21  O   UNL     1      32.323  43.042  57.514  1.00  0.00    -0.361 OA
HETATM   22  H   UNL     1      32.130  42.237  57.003  1.00  0.00     0.217 HD
ENDBRANCH  17  21
ENDBRANCH  12  15
ENDBRANCH   6  11
BRANCH   8  23
HETATM   23  C   UNL     1      24.712  42.365  50.098  1.00  0.00     0.409 C 
HETATM   24  F   UNL     1      25.269  41.135  50.046  1.00  0.00    -0.169 F 
HETATM   25  F   UNL     1      24.044  42.467  51.265  1.00  0.00    -0.169 F 
HETATM   26  F   UNL     1      23.775  42.404  49.113  1.00  0.00    -0.169 F 
ENDBRANCH   8  23
BRANCH   1  27
HETATM   27  C   UNL     1      23.995  46.887  49.445  1.00  0.00    -0.035 A 
HETATM   28  C   UNL     1      22.797  47.266  48.813  1.00  0.00     0.010 A 
HETATM   29  C   UNL     1      22.628  48.557  48.309  1.00  0.00     0.007 A 
HETATM   30  C   UNL     1      23.655  49.498  48.421  1.00  0.00    -0.062 A 
HETATM   31  C   UNL     1      23.460  50.897  47.914  1.00  0.00     0.048 C 
HETATM   32  C   UNL     1      24.843  49.134  49.065  1.00  0.00     0.007 A 
HETATM   33  C   UNL     1      25.014  47.841  49.569  1.00  0.00     0.010 A 
ENDBRANCH   1  27
TORSDOF 5
ENDMDL
MODEL 3
REMARK VINA RESULT:      -9.6      1.982      2.734
REMARK  5 active torsions:
REMARK  status: ('A' for Active; 'I' for Inactive)
REMARK    1  A    between atoms: C_5  and  C_6 
REMARK    2  A    between atoms: C_11  and  C_12 
REMARK       I    between atoms: C_12  and  N_13 
REMARK    3  A    between atoms: N_13  and  C_14 
REMARK    4  A    between atoms: C_16  and  O_17 
REMARK    5  A    between atoms: C_23  and  C_24 
ROOT
HETATM    1  C   UNL     1      28.956  43.081  53.113  1.00  0.00     0.118 C 
HETATM    2  N   UNL     1      28.801  44.074  52.045  1.00  0.00    -0.366 N 
HETATM    3  C   UNL     1      27.653  44.206  51.348  1.00  0.00     0.123 A 
HETATM    4  N   UNL     1      26.709  43.220  51.357  1.00  0.00    -0.240 N 
HETATM    5  N   UNL     1      25.557  43.556  50.750  1.00  0.00    -0.165 NA
HETATM    6  C   UNL     1      25.823  44.785  50.243  1.00  0.00     0.148 A 
HETATM    7  C   UNL     1      27.144  45.205  50.566  1.00  0.00     0.089 A 
HETATM    8  C   UNL     1      26.861  41.997  52.119  1.00  0.00     0.221 C 
HETATM    9  C   UNL     1      27.645  42.315  53.398  1.00  0.00     0.066 C 
HETATM   10  H   UNL     1      29.496  44.821  52.052  1.00  0.00     0.161 HD
ENDROOT
BRANCH   6  11
HETATM   11  C   UNL     1      24.807  45.563  49.510  1.00  0.00     0.276 C 
HETATM   12  N   UNL     1      24.881  46.908  49.809  1.00  0.00    -0.322 N 
HETATM   13  H   UNL     1      25.590  47.127  50.507  1.00  0.00     0.169 HD
HETATM   14  O   UNL     1      24.034  45.027  48.723  1.00  0.00    -0.266 OA
BRANCH  12  15
HETATM   15  C   UNL     1      24.150  47.971  49.253  1.00  0.00     0.037 A 
HETATM   16  C   UNL     1      22.758  47.977  49.133  1.00  0.00     0.066 A 
HETATM   17  C   UNL     1      22.119  49.069  48.549  1.00  0.00     0.067 A 
HETATM   18  C   UNL     1      22.841  50.160  48.082  1.00  0.00     0.036 A 
HETATM   19  C   UNL     1      24.228  50.161  48.199  1.00  0.00     0.005 A 
HETATM   20  C   UNL     1      24.879  49.071  48.782  1.00  0.00     0.029 A 
BRANCH  17  21
HETATM   21  O   UNL     1      20.761  49.104  48.412  1.00  0.00    -0.361 OA
HETATM   22  H   UNL     1      20.523  48.616  47.604  1.00  0.00     0.217 HD
ENDBRANCH  17  21
ENDBRANCH  12  15
ENDBRANCH   6  11
BRANCH   8  23
HETATM   23  C   UNL     1      27.520  40.932  51.274  1.00  0.00     0.409 C 
HETATM   24  F   UNL     1      28.543  40.327  51.918  1.00  0.00    -0.169 F 
HETATM   25  F   UNL     1      26.675  39.971  50.849  1.00  0.00    -0.169 F 
HETATM   26  F   UNL     1      28.051  41.499  50.158  1.00  0.00    -0.169 F 
ENDBRANCH   8  23
BRANCH   1  27
HETATM   27  C   UNL     1      29.440  43.772  54.377  1.00  0.00    -0.035 A 
HETATM   28  C   UNL     1      28.799  44.926  54.861  1.00  0.00     0.010 A 
HETATM   29  C   UNL     1      29.229  45.547  56.036  1.00  0.00     0.007 A 
HETATM   30  C   UNL     1      30.312  45.031  56.751  1.00  0.00    -0.062 A 
HETATM   31  C   UNL     1      30.749  45.675  58.034  1.00  0.00     0.048 C 
HETATM   32  C   UNL     1      30.943  43.872  56.286  1.00  0.00     0.007 A 
HETATM   33  C   UNL     1      30.515  43.250  55.109  1.00  0.00     0.010 A 
ENDBRANCH   1  27
TORSDOF 5
ENDMDL
MODEL 4
REMARK VINA RESULT:      -9.3      5.031      7.281
REMARK  5 active torsions:
REMARK  status: ('A' for Active; 'I' for Inactive)
REMARK    1  A    between atoms: C_5  and  C_6 
REMARK    2  A    between atoms: C_11  and  C_12 
REMARK       I    between atoms: C_12  and  N_13 
REMARK    3  A    between atoms: N_13  and  C_14 
REMARK    4  A    between atoms: C_16  and  O_17 
REMARK    5  A    between atoms: C_23  and  C_24 
ROOT
HETATM    1  C   UNL     1      27.223  43.584  53.210  1.00  0.00     0.118 C 
HETATM    2  N   UNL     1      27.252  42.230  52.647  1.00  0.00    -0.366 N 
HETATM    3  C   UNL     1      27.224  42.004  51.318  1.00  0.00     0.123 A 
HETATM    4  N   UNL     1      26.828  42.979  50.448  1.00  0.00    -0.240 N 
HETATM    5  N   UNL     1      27.001  42.664  49.152  1.00  0.00    -0.165 NA
HETATM    6  C   UNL     1      27.438  41.381  49.203  1.00  0.00     0.148 A 
HETATM    7  C   UNL     1      27.551  40.923  50.546  1.00  0.00     0.089 A 
HETATM    8  C   UNL     1      26.439  44.305  50.883  1.00  0.00     0.221 C 
HETATM    9  C   UNL     1      27.270  44.675  52.118  1.00  0.00     0.066 C 
HETATM   10  H   UNL     1      27.568  41.506  53.293  1.00  0.00     0.161 HD
ENDROOT
BRANCH   6  11
HETATM   11  C   UNL     1      27.794  40.630  47.985  1.00  0.00     0.276 C 
HETATM   12  N   UNL     1      27.266  41.216  46.852  1.00  0.00    -0.322 N 
HETATM   13  H   UNL     1      26.696  42.035  47.052  1.00  0.00     0.169 HD
HETATM   14  O   UNL     1      28.497  39.626  48.033  1.00  0.00    -0.266 OA
BRANCH  12  15
HETATM   15  C   UNL     1      27.455  40.852  45.508  1.00  0.00     0.037 A 
HETATM   16  C   UNL     1      28.575  41.215  44.756  1.00  0.00     0.066 A 
HETATM   17  C   UNL     1      28.669  40.824  43.421  1.00  0.00     0.067 A 
HETATM   18  C   UNL     1      27.665  40.075  42.820  1.00  0.00     0.036 A 
HETATM   19  C   UNL     1      26.547  39.709  43.564  1.00  0.00     0.005 A 
HETATM   20  C   UNL     1      26.443  40.096  44.903  1.00  0.00     0.029 A 
BRANCH  17  21
HETATM   21  O   UNL     1      29.746  41.167  42.657  1.00  0.00    -0.361 OA
HETATM   22  H   UNL     1      29.765  40.586  41.877  1.00  0.00     0.217 HD
ENDBRANCH  17  21
ENDBRANCH  12  15
ENDBRANCH   6  11
BRANCH   8  23
HETATM   23  C   UNL     1      24.951  44.358  51.137  1.00  0.00     0.409 C 
HETATM   24  F   UNL     1      24.428  43.135  51.376  1.00  0.00    -0.169 F 
HETATM   25  F   UNL     1      24.600  45.164  52.160  1.00  0.00    -0.169 F 
HETATM   26  F   UNL     1      24.317  44.838  50.034  1.00  0.00    -0.169 F 
ENDBRANCH   8  23
BRANCH   1  27
HETATM   27  C   UNL     1      28.391  43.756  54.168  1.00  0.00    -0.035 A 
HETATM   28  C   UNL     1      28.503  44.903  54.974  1.00  0.00     0.010 A 
HETATM   29  C   UNL     1      29.561  45.050  55.872  1.00  0.00     0.007 A 
HETATM   30  C   UNL     1      30.537  44.055  55.981  1.00  0.00    -0.062 A 
HETATM   31  C   UNL     1      31.654  44.195  56.973  1.00  0.00     0.048 C 
HETATM   32  C   UNL     1      30.423  42.902  55.196  1.00  0.00     0.007 A 
HETATM   33  C   UNL     1      29.364  42.755  54.295  1.00  0.00     0.010 A 
ENDBRANCH   1  27
TORSDOF 5
ENDMDL
MODEL 5
REMARK VINA RESULT:      -9.3      4.497      9.195
REMARK  5 active torsions:
REMARK  status: ('A' for Active; 'I' for Inactive)
REMARK    1  A    between atoms: C_5  and  C_6 
REMARK    2  A    between atoms: C_11  and  C_12 
REMARK       I    between atoms: C_12  and  N_13 
REMARK    3  A    between atoms: N_13  and  C_14 
REMARK    4  A    between atoms: C_16  and  O_17 
REMARK    5  A    between atoms: C_23  and  C_24 
ROOT
HETATM    1  C   UNL     1      24.966  44.593  48.889  1.00  0.00     0.118 C 
HETATM    2  N   UNL     1      26.205  44.005  49.407  1.00  0.00    -0.366 N 
HETATM    3  C   UNL     1      26.621  44.207  50.673  1.00  0.00     0.123 A 
HETATM    4  N   UNL     1      26.111  45.226  51.426  1.00  0.00    -0.240 N 
HETATM    5  N   UNL     1      26.502  45.208  52.713  1.00  0.00    -0.165 NA
HETATM    6  C   UNL     1      27.386  44.181  52.752  1.00  0.00     0.148 A 
HETATM    7  C   UNL     1      27.514  43.556  51.479  1.00  0.00     0.089 A 
HETATM    8  C   UNL     1      25.091  46.128  50.933  1.00  0.00     0.221 C 
HETATM    9  C   UNL     1      24.175  45.352  49.978  1.00  0.00     0.066 C 
HETATM   10  H   UNL     1      26.574  43.230  48.853  1.00  0.00     0.161 HD
ENDROOT
BRANCH   6  11
HETATM   11  C   UNL     1      28.052  43.772  54.003  1.00  0.00     0.276 C 
HETATM   12  N   UNL     1      28.915  44.746  54.463  1.00  0.00    -0.322 N 
HETATM   13  H   UNL     1      28.974  45.554  53.847  1.00  0.00     0.169 HD
HETATM   14  O   UNL     1      27.807  42.695  54.537  1.00  0.00    -0.266 OA
BRANCH  12  15
HETATM   15  C   UNL     1      29.657  44.767  55.656  1.00  0.00     0.037 A 
HETATM   16  C   UNL     1      30.680  43.862  55.949  1.00  0.00     0.066 A 
HETATM   17  C   UNL     1      31.350  43.947  57.169  1.00  0.00     0.067 A 
HETATM   18  C   UNL     1      31.020  44.920  58.103  1.00  0.00     0.036 A 
HETATM   19  C   UNL     1      30.003  45.826  57.817  1.00  0.00     0.005 A 
HETATM   20  C   UNL     1      29.324  45.749  56.598  1.00  0.00     0.029 A 
BRANCH  17  21
HETATM   21  O   UNL     1      32.350  43.075  57.489  1.00  0.00    -0.361 OA
HETATM   22  H   UNL     1      32.628  43.252  58.404  1.00  0.00     0.217 HD
ENDBRANCH  17  21
ENDBRANCH  12  15
ENDBRANCH   6  11
BRANCH   8  23
HETATM   23  C   UNL     1      25.727  47.337  50.287  1.00  0.00     0.409 C 
HETATM   24  F   UNL     1      26.524  48.015  51.142  1.00  0.00    -0.169 F 
HETATM   25  F   UNL     1      26.452  47.050  49.187  1.00  0.00    -0.169 F 
HETATM   26  F   UNL     1      24.758  48.205  49.893  1.00  0.00    -0.169 F 
ENDBRANCH   8  23
BRANCH   1  27
HETATM   27  C   UNL     1      24.101  43.498  48.287  1.00  0.00    -0.035 A 
HETATM   28  C   UNL     1      24.299  42.149  48.630  1.00  0.00     0.010 A 
HETATM   29  C   UNL     1      23.488  41.145  48.097  1.00  0.00     0.007 A 
HETATM   30  C   UNL     1      22.463  41.466  47.203  1.00  0.00    -0.062 A 
HETATM   31  C   UNL     1      21.567  40.393  46.659  1.00  0.00     0.048 C 
HETATM   32  C   UNL     1      22.247  42.808  46.871  1.00  0.00     0.007 A 
HETATM   33  C   UNL     1      23.060  43.814  47.403  1.00  0.00     0.010 A 
ENDBRANCH   1  27
TORSDOF 5
ENDMDL
MODEL 6
REMARK VINA RESULT:      -9.1      4.994      8.117
REMARK  5 active torsions:
REMARK  status: ('A' for Active; 'I' for Inactive)
REMARK    1  A    between atoms: C_5  and  C_6 
REMARK    2  A    between atoms: C_11  and  C_12 
REMARK       I    between atoms: C_12  and  N_13 
REMARK    3  A    between atoms: N_13  and  C_14 
REMARK    4  A    between atoms: C_16  and  O_17 
REMARK    5  A    between atoms: C_23  and  C_24 
ROOT
HETATM    1  C   UNL     1      27.213  43.618  53.209  1.00  0.00     0.118 C 
HETATM    2  N   UNL     1      27.248  42.273  52.625  1.00  0.00    -0.366 N 
HETATM    3  C   UNL     1      27.210  42.068  51.292  1.00  0.00     0.123 A 
HETATM    4  N   UNL     1      26.799  43.054  50.441  1.00  0.00    -0.240 N 
HETATM    5  N   UNL     1      26.964  42.760  49.139  1.00  0.00    -0.165 NA
HETATM    6  C   UNL     1      27.411  41.481  49.166  1.00  0.00     0.148 A 
HETATM    7  C   UNL     1      27.538  41.002  50.501  1.00  0.00     0.089 A 
HETATM    8  C   UNL     1      26.404  44.370  50.900  1.00  0.00     0.221 C 
HETATM    9  C   UNL     1      27.243  44.727  52.134  1.00  0.00     0.066 C 
HETATM   10  H   UNL     1      27.574  41.541  53.256  1.00  0.00     0.161 HD
ENDROOT
BRANCH   6  11
HETATM   11  C   UNL     1      27.762  40.751  47.933  1.00  0.00     0.276 C 
HETATM   12  N   UNL     1      27.256  39.467  47.939  1.00  0.00    -0.322 N 
HETATM   13  H   UNL     1      26.767  39.232  48.800  1.00  0.00     0.169 HD
HETATM   14  O   UNL     1      28.407  41.283  47.035  1.00  0.00    -0.266 OA
BRANCH  12  15
HETATM   15  C   UNL     1      27.301  38.503  46.918  1.00  0.00     0.037 A 
HETATM   16  C   UNL     1      28.156  37.399  46.930  1.00  0.00     0.066 A 
HETATM   17  C   UNL     1      28.145  36.503  45.862  1.00  0.00     0.067 A 
HETATM   18  C   UNL     1      27.293  36.685  44.780  1.00  0.00     0.036 A 
HETATM   19  C   UNL     1      26.437  37.783  44.762  1.00  0.00     0.005 A 
HETATM   20  C   UNL     1      26.441  38.688  45.827  1.00  0.00     0.029 A 
BRANCH  17  21
HETATM   21  O   UNL     1      28.972  35.417  45.840  1.00  0.00    -0.361 OA
HETATM   22  H   UNL     1      29.303  35.304  44.932  1.00  0.00     0.217 HD
ENDBRANCH  17  21
ENDBRANCH  12  15
ENDBRANCH   6  11
BRANCH   8  23
HETATM   23  C   UNL     1      24.918  44.407  51.168  1.00  0.00     0.409 C 
HETATM   24  F   UNL     1      24.404  43.175  51.380  1.00  0.00    -0.169 F 
HETATM   25  F   UNL     1      24.570  45.185  52.213  1.00  0.00    -0.169 F 
HETATM   26  F   UNL     1      24.272  44.910  50.082  1.00  0.00    -0.169 F 
ENDBRANCH   8  23
BRANCH   1  27
HETATM   27  C   UNL     1      28.388  43.784  54.160  1.00  0.00    -0.035 A 
HETATM   28  C   UNL     1      28.535  44.951  54.930  1.00  0.00     0.010 A 
HETATM   29  C   UNL     1      29.600  45.093  55.822  1.00  0.00     0.007 A 
HETATM   30  C   UNL     1      30.545  44.073  55.961  1.00  0.00    -0.062 A 
HETATM   31  C   UNL     1      31.668  44.209  56.947  1.00  0.00     0.048 C 
HETATM   32  C   UNL     1      30.395  42.901  55.212  1.00  0.00     0.007 A 
HETATM   33  C   UNL     1      29.330  42.758  54.317  1.00  0.00     0.010 A 
ENDBRANCH   1  27
TORSDOF 5
ENDMDL
MODEL 7
REMARK VINA RESULT:      -9.0      2.767      3.723
REMARK  5 active torsions:
REMARK  status: ('A' for Active; 'I' for Inactive)
REMARK    1  A    between atoms: C_5  and  C_6 
REMARK    2  A    between atoms: C_11  and  C_12 
REMARK       I    between atoms: C_12  and  N_13 
REMARK    3  A    between atoms: N_13  and  C_14 
REMARK    4  A    between atoms: C_16  and  O_17 
REMARK    5  A    between atoms: C_23  and  C_24 
ROOT
HETATM    1  C   UNL     1      26.704  43.134  52.699  1.00  0.00     0.118 C 
HETATM    2  N   UNL     1      25.499  43.570  51.987  1.00  0.00    -0.366 N 
HETATM    3  C   UNL     1      25.311  44.852  51.612  1.00  0.00     0.123 A 
HETATM    4  N   UNL     1      26.050  45.860  52.161  1.00  0.00    -0.240 N 
HETATM    5  N   UNL     1      25.864  47.058  51.579  1.00  0.00    -0.165 NA
HETATM    6  C   UNL     1      24.880  46.814  50.678  1.00  0.00     0.148 A 
HETATM    7  C   UNL     1      24.482  45.447  50.701  1.00  0.00     0.089 A 
HETATM    8  C   UNL     1      27.082  45.625  53.149  1.00  0.00     0.221 C 
HETATM    9  C   UNL     1      27.739  44.270  52.854  1.00  0.00     0.066 C 
HETATM   10  H   UNL     1      24.959  42.817  51.560  1.00  0.00     0.161 HD
ENDROOT
BRANCH   6  11
HETATM   11  C   UNL     1      24.373  47.863  49.774  1.00  0.00     0.276 C 
HETATM   12  N   UNL     1      22.993  47.891  49.750  1.00  0.00    -0.322 N 
HETATM   13  H   UNL     1      22.566  47.166  50.323  1.00  0.00     0.169 HD
HETATM   14  O   UNL     1      25.134  48.606  49.164  1.00  0.00    -0.266 OA
BRANCH  12  15
HETATM   15  C   UNL     1      22.146  48.795  49.087  1.00  0.00     0.037 A 
HETATM   16  C   UNL     1      21.168  48.411  48.167  1.00  0.00     0.066 A 
HETATM   17  C   UNL     1      20.386  49.381  47.543  1.00  0.00     0.067 A 
HETATM   18  C   UNL     1      20.559  50.731  47.819  1.00  0.00     0.036 A 
HETATM   19  C   UNL     1      21.531  51.121  48.736  1.00  0.00     0.005 A 
HETATM   20  C   UNL     1      22.321  50.156  49.367  1.00  0.00     0.029 A 
BRANCH  17  21
HETATM   21  O   UNL     1      19.425  49.039  46.635  1.00  0.00    -0.361 OA
HETATM   22  H   UNL     1      18.726  48.549  47.101  1.00  0.00     0.217 HD
ENDBRANCH  17  21
ENDBRANCH  12  15
ENDBRANCH   6  11
BRANCH   8  23
HETATM   23  C   UNL     1      26.503  45.707  54.542  1.00  0.00     0.409 C 
HETATM   24  F   UNL     1      25.174  45.465  54.560  1.00  0.00    -0.169 F 
HETATM   25  F   UNL     1      27.086  44.873  55.427  1.00  0.00    -0.169 F 
HETATM   26  F   UNL     1      26.671  46.965  55.031  1.00  0.00    -0.169 F 
ENDBRANCH   8  23
BRANCH   1  27
HETATM   27  C   UNL     1      27.328  41.960  51.962  1.00  0.00    -0.035 A 
HETATM   28  C   UNL     1      26.893  41.601  50.673  1.00  0.00     0.010 A 
HETATM   29  C   UNL     1      27.483  40.539  49.986  1.00  0.00     0.007 A 
HETATM   30  C   UNL     1      28.518  39.807  50.573  1.00  0.00    -0.062 A 
HETATM   31  C   UNL     1      29.178  38.690  49.819  1.00  0.00     0.048 C 
HETATM   32  C   UNL     1      28.969  40.169  51.847  1.00  0.00     0.007 A 
HETATM   33  C   UNL     1      28.378  41.232  52.537  1.00  0.00     0.010 A 
ENDBRANCH   1  27
TORSDOF 5
ENDMDL
MODEL 8
REMARK VINA RESULT:      -8.8      1.986      2.853
REMARK  5 active torsions:
REMARK  status: ('A' for Active; 'I' for Inactive)
REMARK    1  A    between atoms: C_5  and  C_6 
REMARK    2  A    between atoms: C_11  and  C_12 
REMARK       I    between atoms: C_12  and  N_13 
REMARK    3  A    between atoms: N_13  and  C_14 
REMARK    4  A    between atoms: C_16  and  O_17 
REMARK    5  A    between atoms: C_23  and  C_24 
ROOT
HETATM    1  C   UNL     1      25.673  43.464  50.367  1.00  0.00     0.118 C 
HETATM    2  N   UNL     1      25.411  44.692  49.610  1.00  0.00    -0.366 N 
HETATM    3  C   UNL     1      24.162  45.075  49.274  1.00  0.00     0.123 A 
HETATM    4  N   UNL     1      23.122  44.192  49.314  1.00  0.00    -0.240 N 
HETATM    5  N   UNL     1      21.917  44.752  49.106  1.00  0.00    -0.165 NA
HETATM    6  C   UNL     1      22.222  46.042  48.821  1.00  0.00     0.148 A 
HETATM    7  C   UNL     1      23.626  46.269  48.878  1.00  0.00     0.089 A 
HETATM    8  C   UNL     1      23.280  42.815  49.734  1.00  0.00     0.221 C 
HETATM    9  C   UNL     1      24.373  42.757  50.809  1.00  0.00     0.066 C 
HETATM   10  H   UNL     1      26.183  45.359  49.598  1.00  0.00     0.161 HD
ENDROOT
BRANCH   6  11
HETATM   11  C   UNL     1      21.178  47.050  48.553  1.00  0.00     0.276 C 
HETATM   12  N   UNL     1      21.368  48.192  49.304  1.00  0.00    -0.322 N 
HETATM   13  H   UNL     1      22.163  48.130  49.936  1.00  0.00     0.169 HD
HETATM   14  O   UNL     1      20.289  46.848  47.732  1.00  0.00    -0.266 OA
BRANCH  12  15
HETATM   15  C   UNL     1      20.644  49.396  49.265  1.00  0.00     0.037 A 
HETATM   16  C   UNL     1      19.384  49.563  49.844  1.00  0.00     0.066 A 
HETATM   17  C   UNL     1      18.731  50.790  49.739  1.00  0.00     0.067 A 
HETATM   18  C   UNL     1      19.313  51.858  49.068  1.00  0.00     0.036 A 
HETATM   19  C   UNL     1      20.569  51.699  48.490  1.00  0.00     0.005 A 
HETATM   20  C   UNL     1      21.232  50.473  48.589  1.00  0.00     0.029 A 
BRANCH  17  21
HETATM   21  O   UNL     1      17.497  50.984  50.288  1.00  0.00    -0.361 OA
HETATM   22  H   UNL     1      16.892  51.275  49.584  1.00  0.00     0.217 HD
ENDBRANCH  17  21
ENDBRANCH  12  15
ENDBRANCH   6  11
BRANCH   8  23
HETATM   23  C   UNL     1      23.577  41.934  48.543  1.00  0.00     0.409 C 
HETATM   24  F   UNL     1      22.454  41.428  47.987  1.00  0.00    -0.169 F 
HETATM   25  F   UNL     1      24.278  42.550  47.570  1.00  0.00    -0.169 F 
HETATM   26  F   UNL     1      24.324  40.869  48.940  1.00  0.00    -0.169 F 
ENDBRANCH   8  23
BRANCH   1  27
HETATM   27  C   UNL     1      26.524  43.794  51.583  1.00  0.00    -0.035 A 
HETATM   28  C   UNL     1      27.871  43.394  51.654  1.00  0.00     0.010 A 
HETATM   29  C   UNL     1      28.659  43.719  52.760  1.00  0.00     0.007 A 
HETATM   30  C   UNL     1      28.118  44.447  53.823  1.00  0.00    -0.062 A 
HETATM   31  C   UNL     1      28.975  44.829  54.993  1.00  0.00     0.048 C 
HETATM   32  C   UNL     1      26.785  44.865  53.751  1.00  0.00     0.007 A 
HETATM   33  C   UNL     1      25.994  44.539  52.645  1.00  0.00     0.010 A 
ENDBRANCH   1  27
TORSDOF 5
ENDMDL
MODEL 9
REMARK VINA RESULT:      -8.6      4.540     10.300
REMARK  5 active torsions:
REMARK  status: ('A' for Active; 'I' for Inactive)
REMARK    1  A    between atoms: C_5  and  C_6 
REMARK    2  A    between atoms: C_11  and  C_12 
REMARK       I    between atoms: C_12  and  N_13 
REMARK    3  A    between atoms: N_13  and  C_14 
REMARK    4  A    between atoms: C_16  and  O_17 
REMARK    5  A    between atoms: C_23  and  C_24 
ROOT
HETATM    1  C   UNL     1      20.318  50.792  48.277  1.00  0.00     0.118 C 
HETATM    2  N   UNL     1      20.278  49.509  47.568  1.00  0.00    -0.366 N 
HETATM    3  C   UNL     1      21.042  48.461  47.936  1.00  0.00     0.123 A 
HETATM    4  N   UNL     1      22.124  48.633  48.750  1.00  0.00    -0.240 N 
HETATM    5  N   UNL     1      22.694  47.484  49.158  1.00  0.00    -0.165 NA
HETATM    6  C   UNL     1      21.994  46.538  48.485  1.00  0.00     0.148 A 
HETATM    7  C   UNL     1      20.976  47.119  47.678  1.00  0.00     0.089 A 
HETATM    8  C   UNL     1      22.506  49.924  49.283  1.00  0.00     0.221 C 
HETATM    9  C   UNL     1      21.233  50.747  49.521  1.00  0.00     0.066 C 
HETATM   10  H   UNL     1      19.458  49.375  46.975  1.00  0.00     0.161 HD
ENDROOT
BRANCH   6  11
HETATM   11  C   UNL     1      22.264  45.098  48.658  1.00  0.00     0.276 C 
HETATM   12  N   UNL     1      23.596  44.858  48.928  1.00  0.00    -0.322 N 
HETATM   13  H   UNL     1      24.166  45.702  48.923  1.00  0.00     0.169 HD
HETATM   14  O   UNL     1      21.367  44.265  48.585  1.00  0.00    -0.266 OA
BRANCH  12  15
HETATM   15  C   UNL     1      24.221  43.639  49.240  1.00  0.00     0.037 A 
HETATM   16  C   UNL     1      24.882  43.391  50.445  1.00  0.00     0.066 A 
HETATM   17  C   UNL     1      25.491  42.156  50.660  1.00  0.00     0.067 A 
HETATM   18  C   UNL     1      25.452  41.158  49.694  1.00  0.00     0.036 A 
HETATM   19  C   UNL     1      24.794  41.397  48.491  1.00  0.00     0.005 A 
HETATM   20  C   UNL     1      24.181  42.633  48.266  1.00  0.00     0.029 A 
BRANCH  17  21
HETATM   21  O   UNL     1      26.150  41.885  51.824  1.00  0.00    -0.361 OA
HETATM   22  H   UNL     1      25.631  41.230  52.323  1.00  0.00     0.217 HD
ENDBRANCH  17  21
ENDBRANCH  12  15
ENDBRANCH   6  11
BRANCH   8  23
HETATM   23  C   UNL     1      23.484  50.606  48.356  1.00  0.00     0.409 C 
HETATM   24  F   UNL     1      24.769  50.371  48.703  1.00  0.00    -0.169 F 
HETATM   25  F   UNL     1      23.337  50.265  47.060  1.00  0.00    -0.169 F 
HETATM   26  F   UNL     1      23.309  51.953  48.421  1.00  0.00    -0.169 F 
ENDBRANCH   8  23
BRANCH   1  27
HETATM   27  C   UNL     1      18.908  51.189  48.682  1.00  0.00    -0.035 A 
HETATM   28  C   UNL     1      18.685  52.234  49.596  1.00  0.00     0.010 A 
HETATM   29  C   UNL     1      17.389  52.615  49.949  1.00  0.00     0.007 A 
HETATM   30  C   UNL     1      16.286  51.956  49.401  1.00  0.00    -0.062 A 
HETATM   31  C   UNL     1      14.893  52.391  49.750  1.00  0.00     0.048 C 
HETATM   32  C   UNL     1      16.499  50.928  48.476  1.00  0.00     0.007 A 
HETATM   33  C   UNL     1      17.796  50.544  48.123  1.00  0.00     0.010 A 
ENDBRANCH   1  27
TORSDOF 5
ENDMDL
MODEL 10
REMARK VINA RESULT:      -8.4     12.713     15.294
REMARK  5 active torsions:
REMARK  status: ('A' for Active; 'I' for Inactive)
REMARK    1  A    between atoms: C_5  and  C_6 
REMARK    2  A    between atoms: C_11  and  C_12 
REMARK       I    between atoms: C_12  and  N_13 
REMARK    3  A    between atoms: N_13  and  C_14 
REMARK    4  A    between atoms: C_16  and  O_17 
REMARK    5  A    between atoms: C_23  and  C_24 
ROOT
HETATM    1  C   UNL     1      30.220  50.127  40.038  1.00  0.00     0.118 C 
HETATM    2  N   UNL     1      31.661  50.041  39.780  1.00  0.00    -0.366 N 
HETATM    3  C   UNL     1      32.570  50.630  40.583  1.00  0.00     0.123 A 
HETATM    4  N   UNL     1      32.201  51.605  41.464  1.00  0.00    -0.240 N 
HETATM    5  N   UNL     1      33.180  51.986  42.305  1.00  0.00    -0.165 NA
HETATM    6  C   UNL     1      34.253  51.284  41.865  1.00  0.00     0.148 A 
HETATM    7  C   UNL     1      33.914  50.453  40.760  1.00  0.00     0.089 A 
HETATM    8  C   UNL     1      30.831  52.051  41.611  1.00  0.00     0.221 C 
HETATM    9  C   UNL     1      29.902  50.856  41.362  1.00  0.00     0.066 C 
HETATM   10  H   UNL     1      31.936  49.299  39.136  1.00  0.00     0.161 HD
ENDROOT
BRANCH   6  11
HETATM   11  C   UNL     1      35.567  51.369  42.531  1.00  0.00     0.276 C 
HETATM   12  N   UNL     1      35.781  52.617  43.079  1.00  0.00    -0.322 N 
HETATM   13  H   UNL     1      35.022  53.271  42.898  1.00  0.00     0.169 HD
HETATM   14  O   UNL     1      36.323  50.404  42.582  1.00  0.00    -0.266 OA
BRANCH  12  15
HETATM   15  C   UNL     1      36.862  53.057  43.862  1.00  0.00     0.037 A 
HETATM   16  C   UNL     1      37.174  52.531  45.117  1.00  0.00     0.066 A 
HETATM   17  C   UNL     1      38.256  53.043  45.833  1.00  0.00     0.067 A 
HETATM   18  C   UNL     1      39.035  54.072  45.318  1.00  0.00     0.036 A 
HETATM   19  C   UNL     1      38.729  54.600  44.067  1.00  0.00     0.005 A 
HETATM   20  C   UNL     1      37.647  54.094  43.342  1.00  0.00     0.029 A 
BRANCH  17  21
HETATM   21  O   UNL     1      38.585  52.556  47.064  1.00  0.00    -0.361 OA
HETATM   22  H   UNL     1      38.393  53.243  47.726  1.00  0.00     0.217 HD
ENDBRANCH  17  21
ENDBRANCH  12  15
ENDBRANCH   6  11
BRANCH   8  23
HETATM   23  C   UNL     1      30.555  53.213  40.686  1.00  0.00     0.409 C 
HETATM   24  F   UNL     1      30.998  54.386  41.192  1.00  0.00    -0.169 F 
HETATM   25  F   UNL     1      31.084  53.069  39.455  1.00  0.00    -0.169 F 
HETATM   26  F   UNL     1      29.213  53.351  40.515  1.00  0.00    -0.169 F 
ENDBRANCH   8  23
BRANCH   1  27
HETATM   27  C   UNL     1      29.628  48.727  40.060  1.00  0.00    -0.035 A 
HETATM   28  C   UNL     1      30.260  47.663  39.392  1.00  0.00     0.010 A 
HETATM   29  C   UNL     1      29.730  46.372  39.433  1.00  0.00     0.007 A 
HETATM   30  C   UNL     1      28.552  46.115  40.139  1.00  0.00    -0.062 A 
HETATM   31  C   UNL     1      28.003  44.721  40.216  1.00  0.00     0.048 C 
HETATM   32  C   UNL     1      27.927  47.165  40.822  1.00  0.00     0.007 A 
HETATM   33  C   UNL     1      28.456  48.458  40.780  1.00  0.00     0.010 A 
ENDBRANCH   1  27
TORSDOF 5
ENDMDL
