MODEL 1
REMARK VINA RESULT:      -9.0      0.000      0.000
REMARK  5 active torsions:
REMARK  status: ('A' for Active; 'I' for Inactive)
REMARK    1  A    between atoms: C_5  and  C_6 
REMARK    2  A    between atoms: C_9  and  O_10 
REMARK    3  A    between atoms: N_14  and  C_15 
REMARK    4  A    between atoms: C_15  and  C_16 
REMARK       I    between atoms: C_16  and  N_17 
REMARK    5  A    between atoms: N_17  and  C_18 
ROOT
HETATM    1  C   UNL     1      28.159  47.716  54.816  1.00  0.00     0.156 C 
HETATM    2  N   UNL     1      27.938  46.324  54.508  1.00  0.00    -0.346 N 
HETATM    3  C   UNL     1      26.905  45.825  53.790  1.00  0.00     0.113 A 
HETATM    4  C   UNL     1      27.034  44.466  53.682  1.00  0.00     0.014 A 
HETATM    5  C   UNL     1      25.917  43.907  52.877  1.00  0.00     0.158 C 
HETATM    6  N   UNL     1      25.270  45.168  52.441  1.00  0.00    -0.325 N 
HETATM    7  C   UNL     1      25.780  46.308  53.060  1.00  0.00     0.272 C 
HETATM    8  O   UNL     1      25.361  47.449  52.969  1.00  0.00    -0.266 OA
HETATM    9  C   UNL     1      28.224  44.085  54.328  1.00  0.00     0.002 A 
HETATM   10  C   UNL     1      28.792  45.274  54.833  1.00  0.00     0.045 A 
HETATM   11  C   UNL     1      28.910  42.870  54.507  1.00  0.00     0.014 A 
HETATM   12  C   UNL     1      30.140  42.864  55.174  1.00  0.00     0.001 A 
HETATM   13  C   UNL     1      30.686  44.046  55.665  1.00  0.00     0.002 A 
HETATM   14  C   UNL     1      30.025  45.268  55.507  1.00  0.00     0.030 A 
ENDROOT
BRANCH   6  15
HETATM   15  C   UNL     1      24.187  45.186  51.476  1.00  0.00     0.229 C 
BRANCH  15  16
HETATM   16  C   UNL     1      24.532  45.879  50.164  1.00  0.00     0.235 C 
HETATM   17  N   UNL     1      24.655  47.253  50.243  1.00  0.00    -0.355 N 
HETATM   18  H   UNL     1      24.643  47.663  51.172  1.00  0.00     0.162 HD
HETATM   19  O   UNL     1      24.796  45.239  49.147  1.00  0.00    -0.272 OA
BRANCH  17  20
HETATM   20  C   UNL     1      25.313  47.973  49.173  1.00  0.00     0.084 C 
HETATM   21  C   UNL     1      24.656  49.304  48.838  1.00  0.00     0.025 C 
HETATM   22  C   UNL     1      25.737  50.014  48.035  1.00  0.00     0.002 C 
HETATM   23  C   UNL     1      27.049  49.620  48.707  1.00  0.00     0.002 C 
HETATM   24  C   UNL     1      26.748  48.369  49.532  1.00  0.00     0.025 C 
ENDBRANCH  17  20
ENDBRANCH  15  16
ENDBRANCH   6  15
BRANCH   5  25
HETATM   25  C   UNL     1      26.512  43.073  51.771  1.00  0.00    -0.030 A 
HETATM   26  C   UNL     1      26.489  41.674  51.884  1.00  0.00     0.012 A 
HETATM   27  C   UNL     1      27.024  40.869  50.875  1.00  0.00     0.037 A 
HETATM   28  C   UNL     1      27.585  41.438  49.732  1.00  0.00     0.068 A 
HETATM   29  C   UNL     1      27.620  42.827  49.610  1.00  0.00     0.037 A 
HETATM   30  C   UNL     1      27.090  43.636  50.622  1.00  0.00     0.012 A 
BRANCH  28  31
HETATM   31  O   UNL     1      28.063  40.538  48.821  1.00  0.00    -0.356 OA
HETATM   32  C   UNL     1      28.713  39.386  49.342  1.00  0.00     0.210 C 
ENDBRANCH  28  31
ENDBRANCH   5  25
TORSDOF 5
ENDMDL
MODEL 2
REMARK VINA RESULT:      -8.4     11.300     12.821
REMARK  5 active torsions:
REMARK  status: ('A' for Active; 'I' for Inactive)
REMARK    1  A    between atoms: C_5  and  C_6 
REMARK    2  A    between atoms: C_9  and  O_10 
REMARK    3  A    between atoms: N_14  and  C_15 
REMARK    4  A    between atoms: C_15  and  C_16 
REMARK       I    between atoms: C_16  and  N_17 
REMARK    5  A    between atoms: N_17  and  C_18 
ROOT
HETATM    1  C   UNL     1      30.213  52.277  39.058  1.00  0.00     0.156 C 
HETATM    2  N   UNL     1      29.756  51.166  39.857  1.00  0.00    -0.346 N 
HETATM    3  C   UNL     1      28.585  50.505  39.698  1.00  0.00     0.113 A 
HETATM    4  C   UNL     1      28.498  49.496  40.621  1.00  0.00     0.014 A 
HETATM    5  C   UNL     1      27.227  48.747  40.444  1.00  0.00     0.158 C 
HETATM    6  N   UNL     1      26.728  49.393  39.206  1.00  0.00    -0.325 N 
HETATM    7  C   UNL     1      27.468  50.507  38.812  1.00  0.00     0.272 C 
HETATM    8  O   UNL     1      27.215  51.280  37.905  1.00  0.00    -0.266 OA
HETATM    9  C   UNL     1      29.685  49.489  41.376  1.00  0.00     0.002 A 
HETATM   10  C   UNL     1      30.476  50.543  40.872  1.00  0.00     0.045 A 
HETATM   11  C   UNL     1      30.199  48.681  42.407  1.00  0.00     0.014 A 
HETATM   12  C   UNL     1      31.482  48.932  42.905  1.00  0.00     0.001 A 
HETATM   13  C   UNL     1      32.250  49.975  42.394  1.00  0.00     0.002 A 
HETATM   14  C   UNL     1      31.763  50.798  41.374  1.00  0.00     0.030 A 
ENDROOT
BRANCH   6  15
HETATM   15  C   UNL     1      25.558  48.908  38.500  1.00  0.00     0.229 C 
BRANCH  15  16
HETATM   16  C   UNL     1      24.271  48.967  39.312  1.00  0.00     0.235 C 
HETATM   17  N   UNL     1      23.602  50.175  39.264  1.00  0.00    -0.355 N 
HETATM   18  H   UNL     1      23.941  50.861  38.597  1.00  0.00     0.162 HD
HETATM   19  O   UNL     1      23.813  47.968  39.866  1.00  0.00    -0.272 OA
BRANCH  17  20
HETATM   20  C   UNL     1      22.221  50.243  39.692  1.00  0.00     0.084 C 
HETATM   21  C   UNL     1      21.857  51.553  40.376  1.00  0.00     0.025 C 
HETATM   22  C   UNL     1      20.336  51.540  40.330  1.00  0.00     0.002 C 
HETATM   23  C   UNL     1      19.987  50.918  38.981  1.00  0.00     0.002 C 
HETATM   24  C   UNL     1      21.242  50.177  38.516  1.00  0.00     0.025 C 
ENDBRANCH  17  20
ENDBRANCH  15  16
ENDBRANCH   6  15
BRANCH   5  25
HETATM   25  C   UNL     1      27.563  47.284  40.316  1.00  0.00    -0.030 A 
HETATM   26  C   UNL     1      28.602  46.895  39.457  1.00  0.00     0.012 A 
HETATM   27  C   UNL     1      28.946  45.548  39.319  1.00  0.00     0.037 A 
HETATM   28  C   UNL     1      28.269  44.562  40.037  1.00  0.00     0.068 A 
HETATM   29  C   UNL     1      27.231  44.934  40.891  1.00  0.00     0.037 A 
HETATM   30  C   UNL     1      26.880  46.283  41.026  1.00  0.00     0.012 A 
BRANCH  28  31
HETATM   31  O   UNL     1      28.712  43.288  39.815  1.00  0.00    -0.356 OA
HETATM   32  C   UNL     1      27.987  42.240  40.445  1.00  0.00     0.210 C 
ENDBRANCH  28  31
ENDBRANCH   5  25
TORSDOF 5
ENDMDL
MODEL 3
REMARK VINA RESULT:      -8.2      6.903     10.967
REMARK  5 active torsions:
REMARK  status: ('A' for Active; 'I' for Inactive)
REMARK    1  A    between atoms: C_5  and  C_6 
REMARK    2  A    between atoms: C_9  and  O_10 
REMARK    3  A    between atoms: N_14  and  C_15 
REMARK    4  A    between atoms: C_15  and  C_16 
REMARK       I    between atoms: C_16  and  N_17 
REMARK    5  A    between atoms: N_17  and  C_18 
ROOT
HETATM    1  C   UNL     1      23.330  45.659  49.308  1.00  0.00     0.156 C 
HETATM    2  N   UNL     1      22.658  46.807  48.750  1.00  0.00    -0.346 N 
HETATM    3  C   UNL     1      21.354  46.866  48.391  1.00  0.00     0.113 A 
HETATM    4  C   UNL     1      21.062  48.119  47.922  1.00  0.00     0.014 A 
HETATM    5  C   UNL     1      19.628  48.203  47.544  1.00  0.00     0.158 C 
HETATM    6  N   UNL     1      19.165  46.878  48.023  1.00  0.00    -0.325 N 
HETATM    7  C   UNL     1      20.197  46.034  48.430  1.00  0.00     0.272 C 
HETATM    8  O   UNL     1      20.109  44.864  48.760  1.00  0.00    -0.266 OA
HETATM    9  C   UNL     1      22.223  48.907  48.024  1.00  0.00     0.002 A 
HETATM   10  C   UNL     1      23.220  48.067  48.563  1.00  0.00     0.045 A 
HETATM   11  C   UNL     1      22.533  50.254  47.760  1.00  0.00     0.014 A 
HETATM   12  C   UNL     1      23.817  50.734  48.041  1.00  0.00     0.001 A 
HETATM   13  C   UNL     1      24.788  49.891  48.574  1.00  0.00     0.002 A 
HETATM   14  C   UNL     1      24.510  48.547  48.842  1.00  0.00     0.030 A 
ENDROOT
BRANCH   6  15
HETATM   15  C   UNL     1      17.763  46.507  48.033  1.00  0.00     0.229 C 
BRANCH  15  16
HETATM   16  C   UNL     1      17.013  46.870  46.759  1.00  0.00     0.235 C 
HETATM   17  N   UNL     1      15.835  47.566  46.951  1.00  0.00    -0.355 N 
HETATM   18  H   UNL     1      15.641  47.890  47.894  1.00  0.00     0.162 HD
HETATM   19  O   UNL     1      17.493  46.658  45.646  1.00  0.00    -0.272 OA
BRANCH  17  20
HETATM   20  C   UNL     1      15.227  48.262  45.837  1.00  0.00     0.084 C 
HETATM   21  C   UNL     1      13.711  48.140  45.794  1.00  0.00     0.025 C 
HETATM   22  C   UNL     1      13.316  49.260  44.841  1.00  0.00     0.002 C 
HETATM   23  C   UNL     1      14.279  50.402  45.154  1.00  0.00     0.002 C 
HETATM   24  C   UNL     1      15.458  49.774  45.897  1.00  0.00     0.025 C 
ENDBRANCH  17  20
ENDBRANCH  15  16
ENDBRANCH   6  15
BRANCH   5  25
HETATM   25  C   UNL     1      19.028  49.390  48.254  1.00  0.00    -0.030 A 
HETATM   26  C   UNL     1      18.636  50.508  47.502  1.00  0.00     0.012 A 
HETATM   27  C   UNL     1      18.069  51.623  48.126  1.00  0.00     0.037 A 
HETATM   28  C   UNL     1      17.874  51.644  49.507  1.00  0.00     0.068 A 
HETATM   29  C   UNL     1      18.264  50.542  50.267  1.00  0.00     0.037 A 
HETATM   30  C   UNL     1      18.838  49.426  49.645  1.00  0.00     0.012 A 
BRANCH  28  31
HETATM   31  O   UNL     1      17.303  52.790  49.985  1.00  0.00    -0.356 OA
HETATM   32  C   UNL     1      15.882  52.839  50.001  1.00  0.00     0.210 C 
ENDBRANCH  28  31
ENDBRANCH   5  25
TORSDOF 5
ENDMDL
MODEL 4
REMARK VINA RESULT:      -8.2      5.027      7.745
REMARK  5 active torsions:
REMARK  status: ('A' for Active; 'I' for Inactive)
REMARK    1  A    between atoms: C_5  and  C_6 
REMARK    2  A    between atoms: C_9  and  O_10 
REMARK    3  A    between atoms: N_14  and  C_15 
REMARK    4  A    between atoms: C_15  and  C_16 
REMARK       I    between atoms: C_16  and  N_17 
REMARK    5  A    between atoms: N_17  and  C_18 
ROOT
HETATM    1  C   UNL     1      26.743  49.350  48.589  1.00  0.00     0.156 C 
HETATM    2  N   UNL     1      25.607  48.567  49.013  1.00  0.00    -0.346 N 
HETATM    3  C   UNL     1      24.306  48.884  48.812  1.00  0.00     0.113 A 
HETATM    4  C   UNL     1      23.508  47.899  49.329  1.00  0.00     0.014 A 
HETATM    5  C   UNL     1      22.077  48.223  49.096  1.00  0.00     0.158 C 
HETATM    6  N   UNL     1      22.230  49.430  48.248  1.00  0.00    -0.325 N 
HETATM    7  C   UNL     1      23.542  49.894  48.159  1.00  0.00     0.272 C 
HETATM    8  O   UNL     1      23.929  50.919  47.624  1.00  0.00    -0.266 OA
HETATM    9  C   UNL     1      24.338  46.889  49.850  1.00  0.00     0.002 A 
HETATM   10  C   UNL     1      25.663  47.321  49.629  1.00  0.00     0.045 A 
HETATM   11  C   UNL     1      24.118  45.635  50.447  1.00  0.00     0.014 A 
HETATM   12  C   UNL     1      25.212  44.839  50.804  1.00  0.00     0.001 A 
HETATM   13  C   UNL     1      26.513  45.279  50.577  1.00  0.00     0.002 A 
HETATM   14  C   UNL     1      26.763  46.524  49.991  1.00  0.00     0.030 A 
ENDROOT
BRANCH   6  15
HETATM   15  C   UNL     1      21.100  50.067  47.601  1.00  0.00     0.229 C 
BRANCH  15  16
HETATM   16  C   UNL     1      20.173  50.809  48.554  1.00  0.00     0.235 C 
HETATM   17  N   UNL     1      18.856  50.891  48.145  1.00  0.00    -0.355 N 
HETATM   18  H   UNL     1      18.592  50.344  47.330  1.00  0.00     0.162 HD
HETATM   19  O   UNL     1      20.558  51.195  49.657  1.00  0.00    -0.272 OA
BRANCH  17  20
HETATM   20  C   UNL     1      17.831  51.249  49.103  1.00  0.00     0.084 C 
HETATM   21  C   UNL     1      17.686  52.750  49.311  1.00  0.00     0.025 C 
HETATM   22  C   UNL     1      16.328  52.860  49.990  1.00  0.00     0.002 C 
HETATM   23  C   UNL     1      15.464  51.796  49.320  1.00  0.00     0.002 C 
HETATM   24  C   UNL     1      16.433  50.819  48.651  1.00  0.00     0.025 C 
ENDBRANCH  17  20
ENDBRANCH  15  16
ENDBRANCH   6  15
BRANCH   5  25
HETATM   25  C   UNL     1      21.435  47.039  48.420  1.00  0.00    -0.030 A 
HETATM   26  C   UNL     1      20.192  46.580  48.883  1.00  0.00     0.012 A 
HETATM   27  C   UNL     1      19.564  45.490  48.276  1.00  0.00     0.037 A 
HETATM   28  C   UNL     1      20.155  44.839  47.193  1.00  0.00     0.068 A 
HETATM   29  C   UNL     1      21.393  45.281  46.727  1.00  0.00     0.037 A 
HETATM   30  C   UNL     1      22.027  46.369  47.337  1.00  0.00     0.012 A 
BRANCH  28  31
HETATM   31  O   UNL     1      19.430  43.795  46.689  1.00  0.00    -0.356 OA
HETATM   32  C   UNL     1      20.102  42.926  45.786  1.00  0.00     0.210 C 
ENDBRANCH  28  31
ENDBRANCH   5  25
TORSDOF 5
ENDMDL
MODEL 5
REMARK VINA RESULT:      -8.0      4.347      7.372
REMARK  5 active torsions:
REMARK  status: ('A' for Active; 'I' for Inactive)
REMARK    1  A    between atoms: C_5  and  C_6 
REMARK    2  A    between atoms: C_9  and  O_10 
REMARK    3  A    between atoms: N_14  and  C_15 
REMARK    4  A    between atoms: C_15  and  C_16 
REMARK       I    between atoms: C_16  and  N_17 
REMARK    5  A    between atoms: N_17  and  C_18 
ROOT
HETATM    1  C   UNL     1      27.312  45.960  49.828  1.00  0.00     0.156 C 
HETATM    2  N   UNL     1      25.870  45.897  49.790  1.00  0.00    -0.346 N 
HETATM    3  C   UNL     1      25.040  46.923  49.488  1.00  0.00     0.113 A 
HETATM    4  C   UNL     1      23.742  46.491  49.529  1.00  0.00     0.014 A 
HETATM    5  C   UNL     1      22.820  47.602  49.179  1.00  0.00     0.158 C 
HETATM    6  N   UNL     1      23.811  48.635  48.792  1.00  0.00    -0.325 N 
HETATM    7  C   UNL     1      25.131  48.283  49.072  1.00  0.00     0.272 C 
HETATM    8  O   UNL     1      26.122  48.983  48.960  1.00  0.00    -0.266 OA
HETATM    9  C   UNL     1      23.746  45.117  49.832  1.00  0.00     0.002 A 
HETATM   10  C   UNL     1      25.101  44.754  49.980  1.00  0.00     0.045 A 
HETATM   11  C   UNL     1      22.754  44.127  49.958  1.00  0.00     0.014 A 
HETATM   12  C   UNL     1      23.129  42.804  50.219  1.00  0.00     0.001 A 
HETATM   13  C   UNL     1      24.472  42.463  50.361  1.00  0.00     0.002 A 
HETATM   14  C   UNL     1      25.478  43.427  50.247  1.00  0.00     0.030 A 
ENDROOT
BRANCH   6  15
HETATM   15  C   UNL     1      23.418  49.901  48.204  1.00  0.00     0.229 C 
BRANCH  15  16
HETATM   16  C   UNL     1      22.459  50.716  49.061  1.00  0.00     0.235 C 
HETATM   17  N   UNL     1      21.266  51.051  48.449  1.00  0.00    -0.355 N 
HETATM   18  H   UNL     1      21.074  50.620  47.550  1.00  0.00     0.162 HD
HETATM   19  O   UNL     1      22.692  50.947  50.247  1.00  0.00    -0.272 OA
BRANCH  17  20
HETATM   20  C   UNL     1      20.153  51.505  49.255  1.00  0.00     0.084 C 
HETATM   21  C   UNL     1      19.180  52.401  48.503  1.00  0.00     0.025 C 
HETATM   22  C   UNL     1      17.948  52.376  49.398  1.00  0.00     0.002 C 
HETATM   23  C   UNL     1      17.876  50.949  49.931  1.00  0.00     0.002 C 
HETATM   24  C   UNL     1      19.269  50.349  49.733  1.00  0.00     0.025 C 
ENDBRANCH  17  20
ENDBRANCH  15  16
ENDBRANCH   6  15
BRANCH   5  25
HETATM   25  C   UNL     1      21.919  47.127  48.067  1.00  0.00    -0.030 A 
HETATM   26  C   UNL     1      20.568  47.508  48.074  1.00  0.00     0.012 A 
HETATM   27  C   UNL     1      19.706  47.093  47.056  1.00  0.00     0.037 A 
HETATM   28  C   UNL     1      20.171  46.299  46.008  1.00  0.00     0.068 A 
HETATM   29  C   UNL     1      21.509  45.908  45.992  1.00  0.00     0.037 A 
HETATM   30  C   UNL     1      22.374  46.318  47.014  1.00  0.00     0.012 A 
BRANCH  28  31
HETATM   31  O   UNL     1      19.226  45.973  45.076  1.00  0.00    -0.356 OA
HETATM   32  C   UNL     1      19.675  45.817  43.736  1.00  0.00     0.210 C 
ENDBRANCH  28  31
ENDBRANCH   5  25
TORSDOF 5
ENDMDL
MODEL 6
REMARK VINA RESULT:      -8.0      3.670      6.510
REMARK  5 active torsions:
REMARK  status: ('A' for Active; 'I' for Inactive)
REMARK    1  A    between atoms: C_5  and  C_6 
REMARK    2  A    between atoms: C_9  and  O_10 
REMARK    3  A    between atoms: N_14  and  C_15 
REMARK    4  A    between atoms: C_15  and  C_16 
REMARK       I    between atoms: C_16  and  N_17 
REMARK    5  A    between atoms: N_17  and  C_18 
ROOT
HETATM    1  C   UNL     1      28.731  40.982  53.390  1.00  0.00     0.156 C 
HETATM    2  N   UNL     1      28.067  42.015  52.632  1.00  0.00    -0.346 N 
HETATM    3  C   UNL     1      27.677  41.922  51.339  1.00  0.00     0.113 A 
HETATM    4  C   UNL     1      27.061  43.085  50.960  1.00  0.00     0.014 A 
HETATM    5  C   UNL     1      26.607  42.989  49.549  1.00  0.00     0.158 C 
HETATM    6  N   UNL     1      26.925  41.565  49.282  1.00  0.00    -0.325 N 
HETATM    7  C   UNL     1      27.655  40.949  50.297  1.00  0.00     0.272 C 
HETATM    8  O   UNL     1      28.138  39.831  50.287  1.00  0.00    -0.266 OA
HETATM    9  C   UNL     1      27.021  43.943  52.074  1.00  0.00     0.002 A 
HETATM   10  C   UNL     1      27.649  43.246  53.127  1.00  0.00     0.045 A 
HETATM   11  C   UNL     1      26.485  45.220  52.322  1.00  0.00     0.014 A 
HETATM   12  C   UNL     1      26.579  45.770  53.606  1.00  0.00     0.001 A 
HETATM   13  C   UNL     1      27.200  45.067  54.634  1.00  0.00     0.002 A 
HETATM   14  C   UNL     1      27.748  43.799  54.415  1.00  0.00     0.030 A 
ENDROOT
BRANCH   6  15
HETATM   15  C   UNL     1      26.524  40.901  48.056  1.00  0.00     0.229 C 
BRANCH  15  16
HETATM   16  C   UNL     1      27.550  40.989  46.935  1.00  0.00     0.235 C 
HETATM   17  N   UNL     1      27.029  40.919  45.657  1.00  0.00    -0.355 N 
HETATM   18  H   UNL     1      26.018  40.953  45.571  1.00  0.00     0.162 HD
HETATM   19  O   UNL     1      28.736  41.226  47.163  1.00  0.00    -0.272 OA
BRANCH  17  20
HETATM   20  C   UNL     1      27.838  41.338  44.532  1.00  0.00     0.084 C 
HETATM   21  C   UNL     1      28.661  40.215  43.919  1.00  0.00     0.025 C 
HETATM   22  C   UNL     1      29.053  40.793  42.566  1.00  0.00     0.002 C 
HETATM   23  C   UNL     1      27.832  41.583  42.106  1.00  0.00     0.002 C 
HETATM   24  C   UNL     1      26.991  41.836  43.358  1.00  0.00     0.025 C 
ENDBRANCH  17  20
ENDBRANCH  15  16
ENDBRANCH   6  15
BRANCH   5  25
HETATM   25  C   UNL     1      25.143  43.341  49.504  1.00  0.00    -0.030 A 
HETATM   26  C   UNL     1      24.739  44.493  48.812  1.00  0.00     0.012 A 
HETATM   27  C   UNL     1      23.389  44.846  48.743  1.00  0.00     0.037 A 
HETATM   28  C   UNL     1      22.414  44.057  49.355  1.00  0.00     0.068 A 
HETATM   29  C   UNL     1      22.802  42.914  50.051  1.00  0.00     0.037 A 
HETATM   30  C   UNL     1      24.155  42.561  50.126  1.00  0.00     0.012 A 
BRANCH  28  31
HETATM   31  O   UNL     1      21.133  44.512  49.203  1.00  0.00    -0.356 OA
HETATM   32  C   UNL     1      20.962  45.694  48.431  1.00  0.00     0.210 C 
ENDBRANCH  28  31
ENDBRANCH   5  25
TORSDOF 5
ENDMDL
MODEL 7
REMARK VINA RESULT:      -8.0      4.666      9.802
REMARK  5 active torsions:
REMARK  status: ('A' for Active; 'I' for Inactive)
REMARK    1  A    between atoms: C_5  and  C_6 
REMARK    2  A    between atoms: C_9  and  O_10 
REMARK    3  A    between atoms: N_14  and  C_15 
REMARK    4  A    between atoms: C_15  and  C_16 
REMARK       I    between atoms: C_16  and  N_17 
REMARK    5  A    between atoms: N_17  and  C_18 
ROOT
HETATM    1  C   UNL     1      17.413  49.504  45.658  1.00  0.00     0.156 C 
HETATM    2  N   UNL     1      18.353  49.387  46.747  1.00  0.00    -0.346 N 
HETATM    3  C   UNL     1      19.261  48.395  46.907  1.00  0.00     0.113 A 
HETATM    4  C   UNL     1      19.996  48.623  48.040  1.00  0.00     0.014 A 
HETATM    5  C   UNL     1      21.011  47.553  48.217  1.00  0.00     0.158 C 
HETATM    6  N   UNL     1      20.821  46.817  46.943  1.00  0.00    -0.325 N 
HETATM    7  C   UNL     1      19.716  47.240  46.206  1.00  0.00     0.272 C 
HETATM    8  O   UNL     1      19.270  46.740  45.189  1.00  0.00    -0.266 OA
HETATM    9  C   UNL     1      19.564  49.836  48.607  1.00  0.00     0.002 A 
HETATM   10  C   UNL     1      18.534  50.314  47.770  1.00  0.00     0.045 A 
HETATM   11  C   UNL     1      19.958  50.608  49.715  1.00  0.00     0.014 A 
HETATM   12  C   UNL     1      19.327  51.833  49.961  1.00  0.00     0.001 A 
HETATM   13  C   UNL     1      18.314  52.290  49.124  1.00  0.00     0.002 A 
HETATM   14  C   UNL     1      17.898  51.541  48.018  1.00  0.00     0.030 A 
ENDROOT
BRANCH   6  15
HETATM   15  C   UNL     1      21.702  45.739  46.536  1.00  0.00     0.229 C 
BRANCH  15  16
HETATM   16  C   UNL     1      21.835  44.621  47.561  1.00  0.00     0.235 C 
HETATM   17  N   UNL     1      23.132  44.282  47.892  1.00  0.00    -0.355 N 
HETATM   18  H   UNL     1      23.869  44.884  47.538  1.00  0.00     0.162 HD
HETATM   19  O   UNL     1      20.852  44.148  48.130  1.00  0.00    -0.272 OA
BRANCH  17  20
HETATM   20  C   UNL     1      23.384  43.502  49.086  1.00  0.00     0.084 C 
HETATM   21  C   UNL     1      24.531  42.513  48.939  1.00  0.00     0.025 C 
HETATM   22  C   UNL     1      24.850  42.160  50.386  1.00  0.00     0.002 C 
HETATM   23  C   UNL     1      24.668  43.463  51.159  1.00  0.00     0.002 C 
HETATM   24  C   UNL     1      23.817  44.371  50.270  1.00  0.00     0.025 C 
ENDBRANCH  17  20
ENDBRANCH  15  16
ENDBRANCH   6  15
BRANCH   5  25
HETATM   25  C   UNL     1      22.357  48.211  48.384  1.00  0.00    -0.030 A 
HETATM   26  C   UNL     1      22.624  49.403  47.694  1.00  0.00     0.012 A 
HETATM   27  C   UNL     1      23.857  50.045  47.832  1.00  0.00     0.037 A 
HETATM   28  C   UNL     1      24.846  49.519  48.663  1.00  0.00     0.068 A 
HETATM   29  C   UNL     1      24.596  48.331  49.350  1.00  0.00     0.037 A 
HETATM   30  C   UNL     1      23.363  47.683  49.209  1.00  0.00     0.012 A 
BRANCH  28  31
HETATM   31  O   UNL     1      26.000  50.250  48.713  1.00  0.00    -0.356 OA
HETATM   32  C   UNL     1      27.216  49.521  48.807  1.00  0.00     0.210 C 
ENDBRANCH  28  31
ENDBRANCH   5  25
TORSDOF 5
ENDMDL
MODEL 8
REMARK VINA RESULT:      -7.7      2.655      3.378
REMARK  5 active torsions:
REMARK  status: ('A' for Active; 'I' for Inactive)
REMARK    1  A    between atoms: C_5  and  C_6 
REMARK    2  A    between atoms: C_9  and  O_10 
REMARK    3  A    between atoms: N_14  and  C_15 
REMARK    4  A    between atoms: C_15  and  C_16 
REMARK       I    between atoms: C_16  and  N_17 
REMARK    5  A    between atoms: N_17  and  C_18 
ROOT
HETATM    1  C   UNL     1      26.447  47.128  52.704  1.00  0.00     0.156 C 
HETATM    2  N   UNL     1      26.422  45.688  52.602  1.00  0.00    -0.346 N 
HETATM    3  C   UNL     1      25.639  44.966  51.766  1.00  0.00     0.113 A 
HETATM    4  C   UNL     1      25.900  43.632  51.930  1.00  0.00     0.014 A 
HETATM    5  C   UNL     1      25.064  42.828  51.002  1.00  0.00     0.158 C 
HETATM    6  N   UNL     1      24.443  43.922  50.216  1.00  0.00    -0.325 N 
HETATM    7  C   UNL     1      24.692  45.195  50.726  1.00  0.00     0.272 C 
HETATM    8  O   UNL     1      24.217  46.250  50.344  1.00  0.00    -0.266 OA
HETATM    9  C   UNL     1      26.923  43.499  52.887  1.00  0.00     0.002 A 
HETATM   10  C   UNL     1      27.252  44.810  53.292  1.00  0.00     0.045 A 
HETATM   11  C   UNL     1      27.640  42.416  53.427  1.00  0.00     0.014 A 
HETATM   12  C   UNL     1      28.666  42.658  54.348  1.00  0.00     0.001 A 
HETATM   13  C   UNL     1      28.978  43.958  54.735  1.00  0.00     0.002 A 
HETATM   14  C   UNL     1      28.279  45.054  54.219  1.00  0.00     0.030 A 
ENDROOT
BRANCH   6  15
HETATM   15  C   UNL     1      23.631  43.664  49.042  1.00  0.00     0.229 C 
BRANCH  15  16
HETATM   16  C   UNL     1      22.332  44.457  48.995  1.00  0.00     0.235 C 
HETATM   17  N   UNL     1      22.279  45.438  48.025  1.00  0.00    -0.355 N 
HETATM   18  H   UNL     1      23.037  45.458  47.349  1.00  0.00     0.162 HD
HETATM   19  O   UNL     1      21.367  44.153  49.696  1.00  0.00    -0.272 OA
BRANCH  17  20
HETATM   20  C   UNL     1      21.001  46.006  47.653  1.00  0.00     0.084 C 
HETATM   21  C   UNL     1      20.923  47.514  47.846  1.00  0.00     0.025 C 
HETATM   22  C   UNL     1      19.704  47.891  47.015  1.00  0.00     0.002 C 
HETATM   23  C   UNL     1      19.765  46.983  45.791  1.00  0.00     0.002 C 
HETATM   24  C   UNL     1      20.693  45.826  46.163  1.00  0.00     0.025 C 
ENDBRANCH  17  20
ENDBRANCH  15  16
ENDBRANCH   6  15
BRANCH   5  25
HETATM   25  C   UNL     1      25.976  41.915  50.225  1.00  0.00    -0.030 A 
HETATM   26  C   UNL     1      26.030  40.554  50.564  1.00  0.00     0.012 A 
HETATM   27  C   UNL     1      26.859  39.676  49.860  1.00  0.00     0.037 A 
HETATM   28  C   UNL     1      27.644  40.132  48.801  1.00  0.00     0.068 A 
HETATM   29  C   UNL     1      27.604  41.483  48.458  1.00  0.00     0.037 A 
HETATM   30  C   UNL     1      26.779  42.366  49.165  1.00  0.00     0.012 A 
BRANCH  28  31
HETATM   31  O   UNL     1      28.400  39.168  48.195  1.00  0.00    -0.356 OA
HETATM   32  C   UNL     1      29.328  38.472  49.016  1.00  0.00     0.210 C 
ENDBRANCH  28  31
ENDBRANCH   5  25
TORSDOF 5
ENDMDL
MODEL 9
REMARK VINA RESULT:      -7.5      6.752     10.826
REMARK  5 active torsions:
REMARK  status: ('A' for Active; 'I' for Inactive)
REMARK    1  A    between atoms: C_5  and  C_6 
REMARK    2  A    between atoms: C_9  and  O_10 
REMARK    3  A    between atoms: N_14  and  C_15 
REMARK    4  A    between atoms: C_15  and  C_16 
REMARK       I    between atoms: C_16  and  N_17 
REMARK    5  A    between atoms: N_17  and  C_18 
ROOT
HETATM    1  C   UNL     1      23.330  45.674  49.454  1.00  0.00     0.156 C 
HETATM    2  N   UNL     1      22.704  46.807  48.816  1.00  0.00    -0.346 N 
HETATM    3  C   UNL     1      21.415  46.875  48.407  1.00  0.00     0.113 A 
HETATM    4  C   UNL     1      21.169  48.109  47.867  1.00  0.00     0.014 A 
HETATM    5  C   UNL     1      19.751  48.205  47.434  1.00  0.00     0.158 C 
HETATM    6  N   UNL     1      19.241  46.916  47.961  1.00  0.00    -0.325 N 
HETATM    7  C   UNL     1      20.238  46.071  48.446  1.00  0.00     0.272 C 
HETATM    8  O   UNL     1      20.112  44.922  48.830  1.00  0.00    -0.266 OA
HETATM    9  C   UNL     1      22.343  48.877  47.972  1.00  0.00     0.002 A 
HETATM   10  C   UNL     1      23.301  48.043  48.587  1.00  0.00     0.045 A 
HETATM   11  C   UNL     1      22.693  50.202  47.652  1.00  0.00     0.014 A 
HETATM   12  C   UNL     1      23.977  50.667  47.955  1.00  0.00     0.001 A 
HETATM   13  C   UNL     1      24.909  49.832  48.564  1.00  0.00     0.002 A 
HETATM   14  C   UNL     1      24.592  48.509  48.888  1.00  0.00     0.030 A 
ENDROOT
BRANCH   6  15
HETATM   15  C   UNL     1      17.832  46.576  47.939  1.00  0.00     0.229 C 
BRANCH  15  16
HETATM   16  C   UNL     1      17.202  46.617  46.553  1.00  0.00     0.235 C 
HETATM   17  N   UNL     1      17.474  45.524  45.753  1.00  0.00    -0.355 N 
HETATM   18  H   UNL     1      17.946  44.739  46.193  1.00  0.00     0.162 HD
HETATM   19  O   UNL     1      16.414  47.505  46.230  1.00  0.00    -0.272 OA
BRANCH  17  20
HETATM   20  C   UNL     1      16.666  45.281  44.577  1.00  0.00     0.084 C 
HETATM   21  C   UNL     1      17.249  45.871  43.302  1.00  0.00     0.025 C 
HETATM   22  C   UNL     1      16.478  45.136  42.214  1.00  0.00     0.002 C 
HETATM   23  C   UNL     1      16.310  43.715  42.742  1.00  0.00     0.002 C 
HETATM   24  C   UNL     1      16.544  43.789  44.251  1.00  0.00     0.025 C 
ENDBRANCH  17  20
ENDBRANCH  15  16
ENDBRANCH   6  15
BRANCH   5  25
HETATM   25  C   UNL     1      19.154  49.438  48.062  1.00  0.00    -0.030 A 
HETATM   26  C   UNL     1      18.954  49.467  49.451  1.00  0.00     0.012 A 
HETATM   27  C   UNL     1      18.410  50.596  50.069  1.00  0.00     0.037 A 
HETATM   28  C   UNL     1      18.063  51.721  49.321  1.00  0.00     0.068 A 
HETATM   29  C   UNL     1      18.251  51.703  47.940  1.00  0.00     0.037 A 
HETATM   30  C   UNL     1      18.790  50.571  47.317  1.00  0.00     0.012 A 
BRANCH  28  31
HETATM   31  O   UNL     1      17.551  52.757  50.051  1.00  0.00    -0.356 OA
HETATM   32  C   UNL     1      16.134  52.869  50.097  1.00  0.00     0.210 C 
ENDBRANCH  28  31
ENDBRANCH   5  25
TORSDOF 5
ENDMDL
MODEL 10
REMARK VINA RESULT:      -7.4      3.094      7.062
REMARK  5 active torsions:
REMARK  status: ('A' for Active; 'I' for Inactive)
REMARK    1  A    between atoms: C_5  and  C_6 
REMARK    2  A    between atoms: C_9  and  O_10 
REMARK    3  A    between atoms: N_14  and  C_15 
REMARK    4  A    between atoms: C_15  and  C_16 
REMARK       I    between atoms: C_16  and  N_17 
REMARK    5  A    between atoms: N_17  and  C_18 
ROOT
HETATM    1  C   UNL     1      28.384  41.338  53.528  1.00  0.00     0.156 C 
HETATM    2  N   UNL     1      27.839  42.415  52.737  1.00  0.00    -0.346 N 
HETATM    3  C   UNL     1      27.529  42.353  51.421  1.00  0.00     0.113 A 
HETATM    4  C   UNL     1      27.015  43.555  51.013  1.00  0.00     0.014 A 
HETATM    5  C   UNL     1      26.650  43.495  49.574  1.00  0.00     0.158 C 
HETATM    6  N   UNL     1      26.892  42.054  49.316  1.00  0.00    -0.325 N 
HETATM    7  C   UNL     1      27.513  41.389  50.371  1.00  0.00     0.272 C 
HETATM    8  O   UNL     1      27.923  40.241  50.383  1.00  0.00    -0.266 OA
HETATM    9  C   UNL     1      26.957  44.409  52.129  1.00  0.00     0.002 A 
HETATM   10  C   UNL     1      27.469  43.668  53.215  1.00  0.00     0.045 A 
HETATM   11  C   UNL     1      26.489  45.717  52.353  1.00  0.00     0.014 A 
HETATM   12  C   UNL     1      26.534  46.254  53.645  1.00  0.00     0.001 A 
HETATM   13  C   UNL     1      27.041  45.508  54.705  1.00  0.00     0.002 A 
HETATM   14  C   UNL     1      27.518  44.208  54.511  1.00  0.00     0.030 A 
ENDROOT
BRANCH   6  15
HETATM   15  C   UNL     1      26.530  41.423  48.061  1.00  0.00     0.229 C 
BRANCH  15  16
HETATM   16  C   UNL     1      27.682  40.709  47.367  1.00  0.00     0.235 C 
HETATM   17  N   UNL     1      27.528  39.343  47.232  1.00  0.00    -0.355 N 
HETATM   18  H   UNL     1      26.621  38.956  47.476  1.00  0.00     0.162 HD
HETATM   19  O   UNL     1      28.617  41.332  46.864  1.00  0.00    -0.272 OA
BRANCH  17  20
HETATM   20  C   UNL     1      28.365  38.619  46.299  1.00  0.00     0.084 C 
HETATM   21  C   UNL     1      28.674  37.194  46.734  1.00  0.00     0.025 C 
HETATM   22  C   UNL     1      29.170  36.554  45.444  1.00  0.00     0.002 C 
HETATM   23  C   UNL     1      28.303  37.161  44.345  1.00  0.00     0.002 C 
HETATM   24  C   UNL     1      27.693  38.433  44.935  1.00  0.00     0.025 C 
ENDBRANCH  17  20
ENDBRANCH  15  16
ENDBRANCH   6  15
BRANCH   5  25
HETATM   25  C   UNL     1      25.217  43.941  49.438  1.00  0.00    -0.030 A 
HETATM   26  C   UNL     1      24.189  43.021  49.697  1.00  0.00     0.012 A 
HETATM   27  C   UNL     1      22.848  43.401  49.588  1.00  0.00     0.037 A 
HETATM   28  C   UNL     1      22.504  44.704  49.228  1.00  0.00     0.068 A 
HETATM   29  C   UNL     1      23.516  45.626  48.962  1.00  0.00     0.037 A 
HETATM   30  C   UNL     1      24.859  45.246  49.064  1.00  0.00     0.012 A 
BRANCH  28  31
HETATM   31  O   UNL     1      21.160  44.944  49.167  1.00  0.00    -0.356 OA
HETATM   32  C   UNL     1      20.550  44.852  47.886  1.00  0.00     0.210 C 
ENDBRANCH  28  31
ENDBRANCH   5  25
TORSDOF 5
ENDMDL
