MODEL 1
REMARK VINA RESULT:     -10.7      0.000      0.000
REMARK  9 active torsions:
REMARK  status: ('A' for Active; 'I' for Inactive)
REMARK    1  A    between atoms: C_3  and  C_4 
REMARK    2  A    between atoms: C_4  and  C_5 
REMARK    3  A    between atoms: C_5  and  N_6 
REMARK       I    between atoms: N_6  and  C_7 
REMARK    4  A    between atoms: C_7  and  C_8 
REMARK    5  A    between atoms: C_8  and  C_9 
REMARK    6  A    between atoms: C_9  and  C_10 
REMARK    7  A    between atoms: C_9  and  C_26 
REMARK    8  A    between atoms: C_14  and  C_15 
REMARK    9  A    between atoms: C_28  and  N_29 
ROOT
HETATM    1  C   UNL     1      28.180  43.793  53.593  1.00  0.00     0.062 C 
ENDROOT
BRANCH   1   2
HETATM    2  C   UNL     1      26.814  43.931  54.303  1.00  0.00     0.116 C 
BRANCH   2   3
HETATM    3  C   UNL     1      25.779  44.765  53.564  1.00  0.00     0.218 C 
HETATM    4  N   UNL     1      26.234  45.977  53.101  1.00  0.00    -0.361 N 
HETATM    5  H   UNL     1      27.206  46.229  53.245  1.00  0.00     0.162 HD
HETATM    6  O   UNL     1      24.618  44.387  53.421  1.00  0.00    -0.274 OA
BRANCH   4   7
HETATM    7  C   UNL     1      25.388  46.946  52.431  1.00  0.00     0.128 C 
BRANCH   7   8
HETATM    8  C   UNL     1      25.314  46.747  50.914  1.00  0.00     0.079 C 
BRANCH   8   9
HETATM    9  C   UNL     1      25.675  47.910  50.020  1.00  0.00     0.035 A 
HETATM   10  C   UNL     1      26.990  48.232  49.696  1.00  0.00     0.027 A 
HETATM   11  C   UNL     1      27.235  49.262  48.791  1.00  0.00     0.003 A 
HETATM   12  C   UNL     1      26.169  49.935  48.213  1.00  0.00     0.019 A 
HETATM   13  C   UNL     1      24.891  49.550  48.570  1.00  0.00     0.117 A 
HETATM   14  N   UNL     1      24.621  48.569  49.461  1.00  0.00    -0.266 NA
ENDBRANCH   8   9
ENDBRANCH   7   8
ENDBRANCH   4   7
ENDBRANCH   2   3
ENDBRANCH   1   2
BRANCH   1  15
HETATM   15  C   UNL     1      28.315  42.516  52.783  1.00  0.00    -0.021 C 
HETATM   16  C   UNL     1      27.678  42.325  51.499  1.00  0.00    -0.001 A 
HETATM   17  C   UNL     1      27.662  40.961  51.235  1.00  0.00     0.043 A 
HETATM   18  C   UNL     1      26.985  43.176  50.621  1.00  0.00     0.015 A 
HETATM   19  C   UNL     1      26.882  40.389  50.214  1.00  0.00     0.044 A 
HETATM   20  N   UNL     1      28.462  40.366  52.179  1.00  0.00    -0.365 N 
HETATM   21  C   UNL     1      26.085  41.230  49.410  1.00  0.00    -0.005 A 
HETATM   22  C   UNL     1      26.203  42.619  49.600  1.00  0.00     0.015 A 
HETATM   23  H   UNL     1      28.599  39.368  52.270  1.00  0.00     0.165 HD
HETATM   24  C   UNL     1      28.909  41.302  53.080  1.00  0.00     0.097 C 
BRANCH  21  25
HETATM   25  C   UNL     1      25.091  40.701  48.441  1.00  0.00     0.066 A 
HETATM   26  N   UNL     1      25.549  39.712  47.627  1.00  0.00    -0.260 NA
HETATM   27  C   UNL     1      24.727  39.230  46.671  1.00  0.00     0.117 A 
HETATM   28  C   UNL     1      23.440  39.684  46.467  1.00  0.00     0.019 A 
HETATM   29  C   UNL     1      22.965  40.686  47.304  1.00  0.00     0.004 A 
HETATM   30  C   UNL     1      23.794  41.198  48.303  1.00  0.00     0.032 A 
ENDBRANCH  21  25
ENDBRANCH   1  15
BRANCH   1  31
HETATM   31  C   UNL     1      29.318  44.016  54.585  1.00  0.00    -0.047 A 
HETATM   32  C   UNL     1      29.149  45.002  55.579  1.00  0.00     0.043 A 
HETATM   33  C   UNL     1      30.065  45.117  56.638  1.00  0.00     0.103 A 
HETATM   34  C   UNL     1      31.184  44.283  56.709  1.00  0.00     0.036 A 
HETATM   35  C   UNL     1      31.365  43.309  55.732  1.00  0.00     0.003 A 
HETATM   36  C   UNL     1      30.429  43.164  54.702  1.00  0.00     0.008 A 
BRANCH  33  37
HETATM   37  N   UNL     1      29.811  46.080  57.716  1.00  0.00    -0.116 N 
HETATM   38  O   UNL     1      30.786  46.510  58.350  1.00  0.00    -0.532 OA
HETATM   39  O   UNL     1      28.636  46.420  57.925  1.00  0.00    -0.532 OA
ENDBRANCH  33  37
ENDBRANCH   1  31
TORSDOF 9
ENDMDL
MODEL 2
REMARK VINA RESULT:     -10.6      1.723      5.589
REMARK  9 active torsions:
REMARK  status: ('A' for Active; 'I' for Inactive)
REMARK    1  A    between atoms: C_3  and  C_4 
REMARK    2  A    between atoms: C_4  and  C_5 
REMARK    3  A    between atoms: C_5  and  N_6 
REMARK       I    between atoms: N_6  and  C_7 
REMARK    4  A    between atoms: C_7  and  C_8 
REMARK    5  A    between atoms: C_8  and  C_9 
REMARK    6  A    between atoms: C_9  and  C_10 
REMARK    7  A    between atoms: C_9  and  C_26 
REMARK    8  A    between atoms: C_14  and  C_15 
REMARK    9  A    between atoms: C_28  and  N_29 
ROOT
HETATM    1  C   UNL     1      28.185  42.881  53.523  1.00  0.00     0.062 C 
ENDROOT
BRANCH   1   2
HETATM    2  C   UNL     1      28.809  42.500  52.162  1.00  0.00     0.116 C 
BRANCH   2   3
HETATM    3  C   UNL     1      28.349  41.171  51.585  1.00  0.00     0.218 C 
HETATM    4  N   UNL     1      27.277  41.250  50.728  1.00  0.00    -0.361 N 
HETATM    5  H   UNL     1      26.883  42.159  50.511  1.00  0.00     0.162 HD
HETATM    6  O   UNL     1      28.883  40.107  51.891  1.00  0.00    -0.274 OA
BRANCH   4   7
HETATM    7  C   UNL     1      26.646  40.091  50.127  1.00  0.00     0.128 C 
BRANCH   7   8
HETATM    8  C   UNL     1      25.623  40.446  49.043  1.00  0.00     0.079 C 
BRANCH   8   9
HETATM    9  C   UNL     1      24.896  41.766  49.147  1.00  0.00     0.035 A 
HETATM   10  C   UNL     1      24.606  42.556  48.038  1.00  0.00     0.027 A 
HETATM   11  C   UNL     1      23.852  43.716  48.206  1.00  0.00     0.003 A 
HETATM   12  C   UNL     1      23.385  44.052  49.468  1.00  0.00     0.019 A 
HETATM   13  C   UNL     1      23.698  43.212  50.519  1.00  0.00     0.117 A 
HETATM   14  N   UNL     1      24.446  42.092  50.391  1.00  0.00    -0.266 NA
ENDBRANCH   8   9
ENDBRANCH   7   8
ENDBRANCH   4   7
ENDBRANCH   2   3
ENDBRANCH   1   2
BRANCH   1  15
HETATM   15  C   UNL     1      26.924  43.717  53.399  1.00  0.00    -0.021 C 
HETATM   16  C   UNL     1      26.616  44.511  52.231  1.00  0.00    -0.001 A 
HETATM   17  C   UNL     1      25.645  45.436  52.593  1.00  0.00     0.043 A 
HETATM   18  C   UNL     1      27.188  44.620  50.951  1.00  0.00     0.015 A 
HETATM   19  C   UNL     1      25.306  46.542  51.793  1.00  0.00     0.044 A 
HETATM   20  N   UNL     1      25.198  45.073  53.840  1.00  0.00    -0.365 N 
HETATM   21  C   UNL     1      25.970  46.724  50.562  1.00  0.00    -0.005 A 
HETATM   22  C   UNL     1      26.860  45.718  50.144  1.00  0.00     0.015 A 
HETATM   23  H   UNL     1      24.524  45.594  54.383  1.00  0.00     0.165 HD
HETATM   24  C   UNL     1      25.920  44.002  54.308  1.00  0.00     0.097 C 
BRANCH  21  25
HETATM   25  C   UNL     1      25.817  47.957  49.747  1.00  0.00     0.066 A 
HETATM   26  N   UNL     1      24.533  48.345  49.525  1.00  0.00    -0.260 NA
HETATM   27  C   UNL     1      24.309  49.416  48.733  1.00  0.00     0.117 A 
HETATM   28  C   UNL     1      25.313  50.144  48.128  1.00  0.00     0.019 A 
HETATM   29  C   UNL     1      26.626  49.757  48.362  1.00  0.00     0.004 A 
HETATM   30  C   UNL     1      26.884  48.656  49.180  1.00  0.00     0.032 A 
ENDBRANCH  21  25
ENDBRANCH   1  15
BRANCH   1  31
HETATM   31  C   UNL     1      29.242  43.494  54.438  1.00  0.00    -0.047 A 
HETATM   32  C   UNL     1      28.871  44.598  55.234  1.00  0.00     0.043 A 
HETATM   33  C   UNL     1      29.729  45.078  56.238  1.00  0.00     0.103 A 
HETATM   34  C   UNL     1      30.983  44.498  56.444  1.00  0.00     0.036 A 
HETATM   35  C   UNL     1      31.364  43.412  55.661  1.00  0.00     0.003 A 
HETATM   36  C   UNL     1      30.491  42.904  54.692  1.00  0.00     0.008 A 
BRANCH  33  37
HETATM   37  N   UNL     1      29.277  46.159  57.123  1.00  0.00    -0.116 N 
HETATM   38  O   UNL     1      29.949  46.394  58.138  1.00  0.00    -0.532 OA
HETATM   39  O   UNL     1      28.256  46.784  56.799  1.00  0.00    -0.532 OA
ENDBRANCH  33  37
ENDBRANCH   1  31
TORSDOF 9
ENDMDL
MODEL 3
REMARK VINA RESULT:     -10.4      2.714      7.623
REMARK  9 active torsions:
REMARK  status: ('A' for Active; 'I' for Inactive)
REMARK    1  A    between atoms: C_3  and  C_4 
REMARK    2  A    between atoms: C_4  and  C_5 
REMARK    3  A    between atoms: C_5  and  N_6 
REMARK       I    between atoms: N_6  and  C_7 
REMARK    4  A    between atoms: C_7  and  C_8 
REMARK    5  A    between atoms: C_8  and  C_9 
REMARK    6  A    between atoms: C_9  and  C_10 
REMARK    7  A    between atoms: C_9  and  C_26 
REMARK    8  A    between atoms: C_14  and  C_15 
REMARK    9  A    between atoms: C_28  and  N_29 
ROOT
HETATM    1  C   UNL     1      26.410  44.075  52.295  1.00  0.00     0.062 C 
ENDROOT
BRANCH   1   2
HETATM    2  C   UNL     1      25.807  44.392  53.681  1.00  0.00     0.116 C 
BRANCH   2   3
HETATM    3  C   UNL     1      26.274  45.697  54.309  1.00  0.00     0.218 C 
HETATM    4  N   UNL     1      27.531  45.655  54.865  1.00  0.00    -0.361 N 
HETATM    5  H   UNL     1      28.071  44.799  54.804  1.00  0.00     0.162 HD
HETATM    6  O   UNL     1      25.563  46.699  54.337  1.00  0.00    -0.274 OA
BRANCH   4   7
HETATM    7  C   UNL     1      28.130  46.771  55.570  1.00  0.00     0.128 C 
BRANCH   7   8
HETATM    8  C   UNL     1      28.774  46.377  56.903  1.00  0.00     0.079 C 
BRANCH   8   9
HETATM    9  C   UNL     1      29.891  45.360  56.888  1.00  0.00     0.035 A 
HETATM   10  C   UNL     1      30.703  45.116  57.992  1.00  0.00     0.027 A 
HETATM   11  C   UNL     1      31.651  44.097  57.928  1.00  0.00     0.003 A 
HETATM   12  C   UNL     1      31.757  43.330  56.776  1.00  0.00     0.019 A 
HETATM   13  C   UNL     1      30.906  43.620  55.727  1.00  0.00     0.117 A 
HETATM   14  N   UNL     1      29.991  44.615  55.751  1.00  0.00    -0.266 NA
ENDBRANCH   8   9
ENDBRANCH   7   8
ENDBRANCH   4   7
ENDBRANCH   2   3
ENDBRANCH   1   2
BRANCH   1  15
HETATM   15  C   UNL     1      25.411  44.191  51.158  1.00  0.00    -0.021 C 
HETATM   16  C   UNL     1      25.123  45.439  50.487  1.00  0.00    -0.001 A 
HETATM   17  C   UNL     1      23.918  45.287  49.812  1.00  0.00     0.043 A 
HETATM   18  C   UNL     1      25.703  46.719  50.522  1.00  0.00     0.015 A 
HETATM   19  C   UNL     1      23.196  46.371  49.281  1.00  0.00     0.044 A 
HETATM   20  N   UNL     1      23.605  43.950  49.857  1.00  0.00    -0.365 N 
HETATM   21  C   UNL     1      23.716  47.674  49.426  1.00  0.00    -0.005 A 
HETATM   22  C   UNL     1      24.995  47.808  49.998  1.00  0.00     0.015 A 
HETATM   23  H   UNL     1      22.753  43.547  49.493  1.00  0.00     0.165 HD
HETATM   24  C   UNL     1      24.530  43.273  50.614  1.00  0.00     0.097 C 
BRANCH  21  25
HETATM   25  C   UNL     1      22.937  48.889  49.070  1.00  0.00     0.066 A 
HETATM   26  N   UNL     1      21.586  48.741  49.120  1.00  0.00    -0.260 NA
HETATM   27  C   UNL     1      20.808  49.778  48.740  1.00  0.00     0.117 A 
HETATM   28  C   UNL     1      21.306  50.987  48.299  1.00  0.00     0.019 A 
HETATM   29  C   UNL     1      22.685  51.144  48.257  1.00  0.00     0.004 A 
HETATM   30  C   UNL     1      23.510  50.089  48.648  1.00  0.00     0.032 A 
ENDBRANCH  21  25
ENDBRANCH   1  15
BRANCH   1  31
HETATM   31  C   UNL     1      27.146  42.738  52.331  1.00  0.00    -0.047 A 
HETATM   32  C   UNL     1      27.310  42.036  51.119  1.00  0.00     0.043 A 
HETATM   33  C   UNL     1      28.146  40.909  51.049  1.00  0.00     0.103 A 
HETATM   34  C   UNL     1      28.804  40.436  52.187  1.00  0.00     0.036 A 
HETATM   35  C   UNL     1      28.647  41.116  53.392  1.00  0.00     0.003 A 
HETATM   36  C   UNL     1      27.850  42.265  53.451  1.00  0.00     0.008 A 
BRANCH  33  37
HETATM   37  N   UNL     1      28.383  40.260  49.754  1.00  0.00    -0.116 N 
HETATM   38  O   UNL     1      28.690  39.059  49.757  1.00  0.00    -0.532 OA
HETATM   39  O   UNL     1      28.250  40.946  48.729  1.00  0.00    -0.532 OA
ENDBRANCH  33  37
ENDBRANCH   1  31
TORSDOF 9
ENDMDL
MODEL 4
REMARK VINA RESULT:     -10.3      2.051      6.540
REMARK  9 active torsions:
REMARK  status: ('A' for Active; 'I' for Inactive)
REMARK    1  A    between atoms: C_3  and  C_4 
REMARK    2  A    between atoms: C_4  and  C_5 
REMARK    3  A    between atoms: C_5  and  N_6 
REMARK       I    between atoms: N_6  and  C_7 
REMARK    4  A    between atoms: C_7  and  C_8 
REMARK    5  A    between atoms: C_8  and  C_9 
REMARK    6  A    between atoms: C_9  and  C_10 
REMARK    7  A    between atoms: C_9  and  C_26 
REMARK    8  A    between atoms: C_14  and  C_15 
REMARK    9  A    between atoms: C_28  and  N_29 
ROOT
HETATM    1  C   UNL     1      28.097  42.842  53.526  1.00  0.00     0.062 C 
ENDROOT
BRANCH   1   2
HETATM    2  C   UNL     1      28.672  42.408  52.158  1.00  0.00     0.116 C 
BRANCH   2   3
HETATM    3  C   UNL     1      28.095  41.120  51.591  1.00  0.00     0.218 C 
HETATM    4  N   UNL     1      29.018  40.134  51.337  1.00  0.00    -0.361 N 
HETATM    5  H   UNL     1      29.993  40.299  51.561  1.00  0.00     0.162 HD
HETATM    6  O   UNL     1      26.896  40.992  51.354  1.00  0.00    -0.274 OA
BRANCH   4   7
HETATM    7  C   UNL     1      28.681  38.859  50.734  1.00  0.00     0.128 C 
BRANCH   7   8
HETATM    8  C   UNL     1      29.388  38.610  49.398  1.00  0.00     0.079 C 
BRANCH   8   9
HETATM    9  C   UNL     1      28.725  39.101  48.133  1.00  0.00     0.035 A 
HETATM   10  C   UNL     1      28.436  40.444  47.907  1.00  0.00     0.027 A 
HETATM   11  C   UNL     1      27.908  40.829  46.676  1.00  0.00     0.003 A 
HETATM   12  C   UNL     1      27.699  39.875  45.691  1.00  0.00     0.019 A 
HETATM   13  C   UNL     1      28.025  38.564  45.982  1.00  0.00     0.117 A 
HETATM   14  N   UNL     1      28.519  38.156  47.173  1.00  0.00    -0.266 NA
ENDBRANCH   8   9
ENDBRANCH   7   8
ENDBRANCH   4   7
ENDBRANCH   2   3
ENDBRANCH   1   2
BRANCH   1  15
HETATM   15  C   UNL     1      26.866  43.722  53.414  1.00  0.00    -0.021 C 
HETATM   16  C   UNL     1      26.573  44.524  52.247  1.00  0.00    -0.001 A 
HETATM   17  C   UNL     1      25.640  45.484  52.618  1.00  0.00     0.043 A 
HETATM   18  C   UNL     1      27.133  44.610  50.961  1.00  0.00     0.015 A 
HETATM   19  C   UNL     1      25.332  46.600  51.819  1.00  0.00     0.044 A 
HETATM   20  N   UNL     1      25.195  45.140  53.871  1.00  0.00    -0.365 N 
HETATM   21  C   UNL     1      25.987  46.756  50.580  1.00  0.00    -0.005 A 
HETATM   22  C   UNL     1      26.836  45.717  50.155  1.00  0.00     0.015 A 
HETATM   23  H   UNL     1      24.546  45.687  54.421  1.00  0.00     0.165 HD
HETATM   24  C   UNL     1      25.884  44.046  54.334  1.00  0.00     0.097 C 
BRANCH  21  25
HETATM   25  C   UNL     1      25.869  47.992  49.764  1.00  0.00     0.066 A 
HETATM   26  N   UNL     1      24.595  48.399  49.516  1.00  0.00    -0.260 NA
HETATM   27  C   UNL     1      24.403  49.473  48.721  1.00  0.00     0.117 A 
HETATM   28  C   UNL     1      25.430  50.187  48.138  1.00  0.00     0.019 A 
HETATM   29  C   UNL     1      26.732  49.780  48.398  1.00  0.00     0.004 A 
HETATM   30  C   UNL     1      26.957  48.675  49.220  1.00  0.00     0.032 A 
ENDBRANCH  21  25
ENDBRANCH   1  15
BRANCH   1  31
HETATM   31  C   UNL     1      29.200  43.435  54.399  1.00  0.00    -0.047 A 
HETATM   32  C   UNL     1      28.880  44.541  55.213  1.00  0.00     0.043 A 
HETATM   33  C   UNL     1      29.784  45.004  56.184  1.00  0.00     0.103 A 
HETATM   34  C   UNL     1      31.037  44.403  56.337  1.00  0.00     0.036 A 
HETATM   35  C   UNL     1      31.368  43.314  55.536  1.00  0.00     0.003 A 
HETATM   36  C   UNL     1      30.449  42.824  54.601  1.00  0.00     0.008 A 
BRANCH  33  37
HETATM   37  N   UNL     1      29.386  46.088  57.089  1.00  0.00    -0.116 N 
HETATM   38  O   UNL     1      30.160  46.385  58.012  1.00  0.00    -0.532 OA
HETATM   39  O   UNL     1      28.304  46.655  56.874  1.00  0.00    -0.532 OA
ENDBRANCH  33  37
ENDBRANCH   1  31
TORSDOF 9
ENDMDL
MODEL 5
REMARK VINA RESULT:     -10.2      3.005      8.165
REMARK  9 active torsions:
REMARK  status: ('A' for Active; 'I' for Inactive)
REMARK    1  A    between atoms: C_3  and  C_4 
REMARK    2  A    between atoms: C_4  and  C_5 
REMARK    3  A    between atoms: C_5  and  N_6 
REMARK       I    between atoms: N_6  and  C_7 
REMARK    4  A    between atoms: C_7  and  C_8 
REMARK    5  A    between atoms: C_8  and  C_9 
REMARK    6  A    between atoms: C_9  and  C_10 
REMARK    7  A    between atoms: C_9  and  C_26 
REMARK    8  A    between atoms: C_14  and  C_15 
REMARK    9  A    between atoms: C_28  and  N_29 
ROOT
HETATM    1  C   UNL     1      25.947  45.020  50.693  1.00  0.00     0.062 C 
ENDROOT
BRANCH   1   2
HETATM    2  C   UNL     1      26.697  45.936  49.699  1.00  0.00     0.116 C 
BRANCH   2   3
HETATM    3  C   UNL     1      26.464  47.427  49.888  1.00  0.00     0.218 C 
HETATM    4  N   UNL     1      26.759  48.203  48.792  1.00  0.00    -0.361 N 
HETATM    5  H   UNL     1      27.076  47.756  47.939  1.00  0.00     0.162 HD
HETATM    6  O   UNL     1      26.067  47.896  50.953  1.00  0.00    -0.274 OA
BRANCH   4   7
HETATM    7  C   UNL     1      26.668  49.651  48.790  1.00  0.00     0.128 C 
BRANCH   7   8
HETATM    8  C   UNL     1      25.566  50.192  47.874  1.00  0.00     0.079 C 
BRANCH   8   9
HETATM    9  C   UNL     1      24.131  50.063  48.324  1.00  0.00     0.035 A 
HETATM   10  C   UNL     1      23.264  51.150  48.402  1.00  0.00     0.027 A 
HETATM   11  C   UNL     1      21.929  50.934  48.738  1.00  0.00     0.003 A 
HETATM   12  C   UNL     1      21.481  49.642  48.969  1.00  0.00     0.019 A 
HETATM   13  C   UNL     1      22.394  48.611  48.858  1.00  0.00     0.117 A 
HETATM   14  N   UNL     1      23.700  48.790  48.554  1.00  0.00    -0.266 NA
ENDBRANCH   8   9
ENDBRANCH   7   8
ENDBRANCH   4   7
ENDBRANCH   2   3
ENDBRANCH   1   2
BRANCH   1  15
HETATM   15  C   UNL     1      26.824  43.939  51.300  1.00  0.00    -0.021 C 
HETATM   16  C   UNL     1      27.286  43.977  52.669  1.00  0.00    -0.001 A 
HETATM   17  C   UNL     1      28.357  43.097  52.777  1.00  0.00     0.043 A 
HETATM   18  C   UNL     1      26.986  44.790  53.776  1.00  0.00     0.015 A 
HETATM   19  C   UNL     1      29.223  43.079  53.885  1.00  0.00     0.044 A 
HETATM   20  N   UNL     1      28.394  42.375  51.609  1.00  0.00    -0.365 N 
HETATM   21  C   UNL     1      28.998  43.983  54.943  1.00  0.00    -0.005 A 
HETATM   22  C   UNL     1      27.842  44.782  54.885  1.00  0.00     0.015 A 
HETATM   23  H   UNL     1      29.103  41.692  51.378  1.00  0.00     0.165 HD
HETATM   24  C   UNL     1      27.437  42.834  50.738  1.00  0.00     0.097 C 
BRANCH  21  25
HETATM   25  C   UNL     1      29.966  44.167  56.056  1.00  0.00     0.066 A 
HETATM   26  N   UNL     1      29.741  45.254  56.841  1.00  0.00    -0.260 NA
HETATM   27  C   UNL     1      30.619  45.530  57.829  1.00  0.00     0.117 A 
HETATM   28  C   UNL     1      31.741  44.770  58.091  1.00  0.00     0.019 A 
HETATM   29  C   UNL     1      31.967  43.653  57.298  1.00  0.00     0.004 A 
HETATM   30  C   UNL     1      31.072  43.344  56.273  1.00  0.00     0.032 A 
ENDBRANCH  21  25
ENDBRANCH   1  15
BRANCH   1  31
HETATM   31  C   UNL     1      24.665  44.488  50.059  1.00  0.00    -0.047 A 
HETATM   32  C   UNL     1      24.299  44.978  48.788  1.00  0.00     0.043 A 
HETATM   33  C   UNL     1      23.250  44.386  48.065  1.00  0.00     0.103 A 
HETATM   34  C   UNL     1      22.520  43.325  48.606  1.00  0.00     0.036 A 
HETATM   35  C   UNL     1      22.867  42.835  49.862  1.00  0.00     0.003 A 
HETATM   36  C   UNL     1      23.942  43.394  50.562  1.00  0.00     0.008 A 
BRANCH  33  37
HETATM   37  N   UNL     1      22.957  44.845  46.702  1.00  0.00    -0.116 N 
HETATM   38  O   UNL     1      22.350  45.918  46.571  1.00  0.00    -0.532 OA
HETATM   39  O   UNL     1      23.345  44.141  45.758  1.00  0.00    -0.532 OA
ENDBRANCH  33  37
ENDBRANCH   1  31
TORSDOF 9
ENDMDL
MODEL 6
REMARK VINA RESULT:     -10.0      3.788      8.634
REMARK  9 active torsions:
REMARK  status: ('A' for Active; 'I' for Inactive)
REMARK    1  A    between atoms: C_3  and  C_4 
REMARK    2  A    between atoms: C_4  and  C_5 
REMARK    3  A    between atoms: C_5  and  N_6 
REMARK       I    between atoms: N_6  and  C_7 
REMARK    4  A    between atoms: C_7  and  C_8 
REMARK    5  A    between atoms: C_8  and  C_9 
REMARK    6  A    between atoms: C_9  and  C_10 
REMARK    7  A    between atoms: C_9  and  C_26 
REMARK    8  A    between atoms: C_14  and  C_15 
REMARK    9  A    between atoms: C_28  and  N_29 
ROOT
HETATM    1  C   UNL     1      24.042  45.048  50.045  1.00  0.00     0.062 C 
ENDROOT
BRANCH   1   2
HETATM    2  C   UNL     1      25.037  46.082  49.472  1.00  0.00     0.116 C 
BRANCH   2   3
HETATM    3  C   UNL     1      24.721  47.535  49.793  1.00  0.00     0.218 C 
HETATM    4  N   UNL     1      23.621  48.046  49.146  1.00  0.00    -0.361 N 
HETATM    5  H   UNL     1      23.081  47.442  48.535  1.00  0.00     0.162 HD
HETATM    6  O   UNL     1      25.420  48.201  50.554  1.00  0.00    -0.274 OA
BRANCH   4   7
HETATM    7  C   UNL     1      23.193  49.426  49.265  1.00  0.00     0.128 C 
BRANCH   7   8
HETATM    8  C   UNL     1      22.045  49.793  48.320  1.00  0.00     0.079 C 
BRANCH   8   9
HETATM    9  C   UNL     1      20.802  50.417  48.909  1.00  0.00     0.035 A 
HETATM   10  C   UNL     1      20.309  51.651  48.492  1.00  0.00     0.027 A 
HETATM   11  C   UNL     1      19.106  52.116  49.019  1.00  0.00     0.003 A 
HETATM   12  C   UNL     1      18.410  51.336  49.931  1.00  0.00     0.019 A 
HETATM   13  C   UNL     1      18.952  50.116  50.285  1.00  0.00     0.117 A 
HETATM   14  N   UNL     1      20.128  49.647  49.808  1.00  0.00    -0.266 NA
ENDBRANCH   8   9
ENDBRANCH   7   8
ENDBRANCH   4   7
ENDBRANCH   2   3
ENDBRANCH   1   2
BRANCH   1  15
HETATM   15  C   UNL     1      24.711  43.936  50.834  1.00  0.00    -0.021 C 
HETATM   16  C   UNL     1      25.483  44.174  52.033  1.00  0.00    -0.001 A 
HETATM   17  C   UNL     1      26.267  43.051  52.260  1.00  0.00     0.043 A 
HETATM   18  C   UNL     1      25.690  45.301  52.848  1.00  0.00     0.015 A 
HETATM   19  C   UNL     1      27.337  43.036  53.174  1.00  0.00     0.044 A 
HETATM   20  N   UNL     1      25.824  42.078  51.398  1.00  0.00    -0.365 N 
HETATM   21  C   UNL     1      27.628  44.207  53.904  1.00  0.00    -0.005 A 
HETATM   22  C   UNL     1      26.753  45.300  53.761  1.00  0.00     0.015 A 
HETATM   23  H   UNL     1      26.243  41.163  51.299  1.00  0.00     0.165 HD
HETATM   24  C   UNL     1      24.847  42.584  50.576  1.00  0.00     0.097 C 
BRANCH  21  25
HETATM   25  C   UNL     1      28.847  44.344  54.741  1.00  0.00     0.066 A 
HETATM   26  N   UNL     1      29.653  43.248  54.768  1.00  0.00    -0.260 NA
HETATM   27  C   UNL     1      30.743  43.267  55.564  1.00  0.00     0.117 A 
HETATM   28  C   UNL     1      31.091  44.339  56.361  1.00  0.00     0.019 A 
HETATM   29  C   UNL     1      30.276  45.463  56.327  1.00  0.00     0.004 A 
HETATM   30  C   UNL     1      29.145  45.470  55.509  1.00  0.00     0.032 A 
ENDBRANCH  21  25
ENDBRANCH   1  15
BRANCH   1  31
HETATM   31  C   UNL     1      23.108  44.546  48.947  1.00  0.00    -0.047 A 
HETATM   32  C   UNL     1      21.738  44.870  49.042  1.00  0.00     0.043 A 
HETATM   33  C   UNL     1      20.865  44.615  47.970  1.00  0.00     0.103 A 
HETATM   34  C   UNL     1      21.327  44.000  46.803  1.00  0.00     0.036 A 
HETATM   35  C   UNL     1      22.675  43.671  46.699  1.00  0.00     0.003 A 
HETATM   36  C   UNL     1      23.554  43.967  47.748  1.00  0.00     0.008 A 
BRANCH  33  37
HETATM   37  N   UNL     1      19.468  45.056  48.052  1.00  0.00    -0.116 N 
HETATM   38  O   UNL     1      19.246  46.199  48.480  1.00  0.00    -0.532 OA
HETATM   39  O   UNL     1      18.588  44.266  47.677  1.00  0.00    -0.532 OA
ENDBRANCH  33  37
ENDBRANCH   1  31
TORSDOF 9
ENDMDL
MODEL 7
REMARK VINA RESULT:      -9.8     11.016     14.355
REMARK  9 active torsions:
REMARK  status: ('A' for Active; 'I' for Inactive)
REMARK    1  A    between atoms: C_3  and  C_4 
REMARK    2  A    between atoms: C_4  and  C_5 
REMARK    3  A    between atoms: C_5  and  N_6 
REMARK       I    between atoms: N_6  and  C_7 
REMARK    4  A    between atoms: C_7  and  C_8 
REMARK    5  A    between atoms: C_8  and  C_9 
REMARK    6  A    between atoms: C_9  and  C_10 
REMARK    7  A    between atoms: C_9  and  C_26 
REMARK    8  A    between atoms: C_14  and  C_15 
REMARK    9  A    between atoms: C_28  and  N_29 
ROOT
HETATM    1  C   UNL     1      27.074  48.157  40.403  1.00  0.00     0.062 C 
ENDROOT
BRANCH   1   2
HETATM    2  C   UNL     1      26.468  49.007  39.263  1.00  0.00     0.116 C 
BRANCH   2   3
HETATM    3  C   UNL     1      27.143  50.350  39.027  1.00  0.00     0.218 C 
HETATM    4  N   UNL     1      27.492  51.033  40.167  1.00  0.00    -0.361 N 
HETATM    5  H   UNL     1      27.315  50.608  41.072  1.00  0.00     0.162 HD
HETATM    6  O   UNL     1      27.331  50.795  37.896  1.00  0.00    -0.274 OA
BRANCH   4   7
HETATM    7  C   UNL     1      28.083  52.357  40.158  1.00  0.00     0.128 C 
BRANCH   7   8
HETATM    8  C   UNL     1      29.455  52.418  40.836  1.00  0.00     0.079 C 
BRANCH   8   9
HETATM    9  C   UNL     1      30.685  52.203  39.987  1.00  0.00     0.035 A 
HETATM   10  C   UNL     1      31.908  52.806  40.266  1.00  0.00     0.027 A 
HETATM   11  C   UNL     1      33.019  52.485  39.489  1.00  0.00     0.003 A 
HETATM   12  C   UNL     1      32.895  51.556  38.467  1.00  0.00     0.019 A 
HETATM   13  C   UNL     1      31.654  50.986  38.259  1.00  0.00     0.117 A 
HETATM   14  N   UNL     1      30.553  51.293  38.982  1.00  0.00    -0.266 NA
ENDBRANCH   8   9
ENDBRANCH   7   8
ENDBRANCH   4   7
ENDBRANCH   2   3
ENDBRANCH   1   2
BRANCH   1  15
HETATM   15  C   UNL     1      28.501  47.713  40.135  1.00  0.00    -0.021 C 
HETATM   16  C   UNL     1      29.620  48.127  40.951  1.00  0.00    -0.001 A 
HETATM   17  C   UNL     1      30.781  47.895  40.223  1.00  0.00     0.043 A 
HETATM   18  C   UNL     1      29.733  48.813  42.173  1.00  0.00     0.015 A 
HETATM   19  C   UNL     1      32.031  48.426  40.588  1.00  0.00     0.044 A 
HETATM   20  N   UNL     1      30.418  47.152  39.126  1.00  0.00    -0.365 N 
HETATM   21  C   UNL     1      32.124  49.222  41.748  1.00  0.00    -0.005 A 
HETATM   22  C   UNL     1      30.972  49.348  42.547  1.00  0.00     0.015 A 
HETATM   23  H   UNL     1      31.048  46.877  38.385  1.00  0.00     0.165 HD
HETATM   24  C   UNL     1      29.055  46.987  39.097  1.00  0.00     0.097 C 
BRANCH  21  25
HETATM   25  C   UNL     1      33.353  49.977  42.102  1.00  0.00     0.066 A 
HETATM   26  N   UNL     1      33.186  50.936  43.053  1.00  0.00    -0.260 NA
HETATM   27  C   UNL     1      34.241  51.714  43.377  1.00  0.00     0.117 A 
HETATM   28  C   UNL     1      35.487  51.597  42.796  1.00  0.00     0.019 A 
HETATM   29  C   UNL     1      35.663  50.612  41.833  1.00  0.00     0.004 A 
HETATM   30  C   UNL     1      34.590  49.791  41.483  1.00  0.00     0.032 A 
ENDBRANCH  21  25
ENDBRANCH   1  15
BRANCH   1  31
HETATM   31  C   UNL     1      26.132  47.012  40.766  1.00  0.00    -0.047 A 
HETATM   32  C   UNL     1      26.701  45.789  41.179  1.00  0.00     0.043 A 
HETATM   33  C   UNL     1      25.898  44.769  41.717  1.00  0.00     0.103 A 
HETATM   34  C   UNL     1      24.514  44.929  41.820  1.00  0.00     0.036 A 
HETATM   35  C   UNL     1      23.939  46.129  41.412  1.00  0.00     0.003 A 
HETATM   36  C   UNL     1      24.743  47.162  40.918  1.00  0.00     0.008 A 
BRANCH  33  37
HETATM   37  N   UNL     1      26.526  43.548  42.236  1.00  0.00    -0.116 N 
HETATM   38  O   UNL     1      25.875  42.857  43.033  1.00  0.00    -0.532 OA
HETATM   39  O   UNL     1      27.668  43.271  41.839  1.00  0.00    -0.532 OA
ENDBRANCH  33  37
ENDBRANCH   1  31
TORSDOF 9
ENDMDL
MODEL 8
REMARK VINA RESULT:      -9.7      3.434      8.342
REMARK  9 active torsions:
REMARK  status: ('A' for Active; 'I' for Inactive)
REMARK    1  A    between atoms: C_3  and  C_4 
REMARK    2  A    between atoms: C_4  and  C_5 
REMARK    3  A    between atoms: C_5  and  N_6 
REMARK       I    between atoms: N_6  and  C_7 
REMARK    4  A    between atoms: C_7  and  C_8 
REMARK    5  A    between atoms: C_8  and  C_9 
REMARK    6  A    between atoms: C_9  and  C_10 
REMARK    7  A    between atoms: C_9  and  C_26 
REMARK    8  A    between atoms: C_14  and  C_15 
REMARK    9  A    between atoms: C_28  and  N_29 
ROOT
HETATM    1  C   UNL     1      25.306  44.980  50.569  1.00  0.00     0.062 C 
ENDROOT
BRANCH   1   2
HETATM    2  C   UNL     1      25.008  45.399  52.026  1.00  0.00     0.116 C 
BRANCH   2   3
HETATM    3  C   UNL     1      25.873  46.527  52.566  1.00  0.00     0.218 C 
HETATM    4  N   UNL     1      26.579  46.223  53.706  1.00  0.00    -0.361 N 
HETATM    5  H   UNL     1      26.512  45.289  54.095  1.00  0.00     0.162 HD
HETATM    6  O   UNL     1      25.909  47.634  52.032  1.00  0.00    -0.274 OA
BRANCH   4   7
HETATM    7  C   UNL     1      27.407  47.180  54.414  1.00  0.00     0.128 C 
BRANCH   7   8
HETATM    8  C   UNL     1      28.088  46.598  55.656  1.00  0.00     0.079 C 
BRANCH   8   9
HETATM    9  C   UNL     1      29.071  45.467  55.471  1.00  0.00     0.035 A 
HETATM   10  C   UNL     1      30.234  45.348  56.228  1.00  0.00     0.027 A 
HETATM   11  C   UNL     1      31.044  44.226  56.061  1.00  0.00     0.003 A 
HETATM   12  C   UNL     1      30.669  43.238  55.162  1.00  0.00     0.019 A 
HETATM   13  C   UNL     1      29.494  43.417  54.458  1.00  0.00     0.117 A 
HETATM   14  N   UNL     1      28.698  44.504  54.582  1.00  0.00    -0.266 NA
ENDBRANCH   8   9
ENDBRANCH   7   8
ENDBRANCH   4   7
ENDBRANCH   2   3
ENDBRANCH   1   2
BRANCH   1  15
HETATM   15  C   UNL     1      24.108  45.109  49.645  1.00  0.00    -0.021 C 
HETATM   16  C   UNL     1      23.551  46.383  49.250  1.00  0.00    -0.001 A 
HETATM   17  C   UNL     1      22.271  46.152  48.763  1.00  0.00     0.043 A 
HETATM   18  C   UNL     1      23.967  47.717  49.406  1.00  0.00     0.015 A 
HETATM   19  C   UNL     1      21.337  47.181  48.547  1.00  0.00     0.044 A 
HETATM   20  N   UNL     1      22.137  44.791  48.632  1.00  0.00    -0.365 N 
HETATM   21  C   UNL     1      21.710  48.513  48.824  1.00  0.00    -0.005 A 
HETATM   22  C   UNL     1      23.046  48.752  49.195  1.00  0.00     0.015 A 
HETATM   23  H   UNL     1      21.288  44.322  48.347  1.00  0.00     0.165 HD
HETATM   24  C   UNL     1      23.261  44.158  49.104  1.00  0.00     0.097 C 
BRANCH  21  25
HETATM   25  C   UNL     1      20.737  49.635  48.809  1.00  0.00     0.066 A 
HETATM   26  N   UNL     1      19.438  49.273  48.994  1.00  0.00    -0.260 NA
HETATM   27  C   UNL     1      18.486  50.227  48.922  1.00  0.00     0.117 A 
HETATM   28  C   UNL     1      18.752  51.557  48.667  1.00  0.00     0.019 A 
HETATM   29  C   UNL     1      20.077  51.931  48.488  1.00  0.00     0.004 A 
HETATM   30  C   UNL     1      21.081  50.964  48.562  1.00  0.00     0.032 A 
ENDBRANCH  21  25
ENDBRANCH   1  15
BRANCH   1  31
HETATM   31  C   UNL     1      25.961  43.602  50.537  1.00  0.00    -0.047 A 
HETATM   32  C   UNL     1      26.132  42.976  49.284  1.00  0.00     0.043 A 
HETATM   33  C   UNL     1      26.904  41.808  49.165  1.00  0.00     0.103 A 
HETATM   34  C   UNL     1      27.486  41.218  50.291  1.00  0.00     0.036 A 
HETATM   35  C   UNL     1      27.319  41.822  51.534  1.00  0.00     0.003 A 
HETATM   36  C   UNL     1      26.589  43.011  51.646  1.00  0.00     0.008 A 
BRANCH  33  37
HETATM   37  N   UNL     1      27.155  41.236  47.837  1.00  0.00    -0.116 N 
HETATM   38  O   UNL     1      26.306  40.463  47.370  1.00  0.00    -0.532 OA
HETATM   39  O   UNL     1      28.197  41.568  47.251  1.00  0.00    -0.532 OA
ENDBRANCH  33  37
ENDBRANCH   1  31
TORSDOF 9
ENDMDL
MODEL 9
REMARK VINA RESULT:      -9.7      3.243      7.736
REMARK  9 active torsions:
REMARK  status: ('A' for Active; 'I' for Inactive)
REMARK    1  A    between atoms: C_3  and  C_4 
REMARK    2  A    between atoms: C_4  and  C_5 
REMARK    3  A    between atoms: C_5  and  N_6 
REMARK       I    between atoms: N_6  and  C_7 
REMARK    4  A    between atoms: C_7  and  C_8 
REMARK    5  A    between atoms: C_8  and  C_9 
REMARK    6  A    between atoms: C_9  and  C_10 
REMARK    7  A    between atoms: C_9  and  C_26 
REMARK    8  A    between atoms: C_14  and  C_15 
REMARK    9  A    between atoms: C_28  and  N_29 
ROOT
HETATM    1  C   UNL     1      26.198  41.052  50.327  1.00  0.00     0.062 C 
ENDROOT
BRANCH   1   2
HETATM    2  C   UNL     1      24.855  41.429  49.662  1.00  0.00     0.116 C 
BRANCH   2   3
HETATM    3  C   UNL     1      24.134  42.615  50.282  1.00  0.00     0.218 C 
HETATM    4  N   UNL     1      24.199  43.780  49.555  1.00  0.00    -0.361 N 
HETATM    5  H   UNL     1      24.681  43.779  48.662  1.00  0.00     0.162 HD
HETATM    6  O   UNL     1      23.562  42.535  51.368  1.00  0.00    -0.274 OA
BRANCH   4   7
HETATM    7  C   UNL     1      23.635  45.037  50.006  1.00  0.00     0.128 C 
BRANCH   7   8
HETATM    8  C   UNL     1      24.691  46.065  50.425  1.00  0.00     0.079 C 
BRANCH   8   9
HETATM    9  C   UNL     1      25.107  46.115  51.876  1.00  0.00     0.035 A 
HETATM   10  C   UNL     1      25.186  44.979  52.677  1.00  0.00     0.027 A 
HETATM   11  C   UNL     1      25.666  45.097  53.980  1.00  0.00     0.003 A 
HETATM   12  C   UNL     1      26.078  46.335  54.449  1.00  0.00     0.019 A 
HETATM   13  C   UNL     1      25.987  47.415  53.592  1.00  0.00     0.117 A 
HETATM   14  N   UNL     1      25.505  47.337  52.330  1.00  0.00    -0.266 NA
ENDBRANCH   8   9
ENDBRANCH   7   8
ENDBRANCH   4   7
ENDBRANCH   2   3
ENDBRANCH   1   2
BRANCH   1  15
HETATM   15  C   UNL     1      27.123  42.237  50.537  1.00  0.00    -0.021 C 
HETATM   16  C   UNL     1      28.031  42.339  51.658  1.00  0.00    -0.001 A 
HETATM   17  C   UNL     1      28.411  43.671  51.774  1.00  0.00     0.043 A 
HETATM   18  C   UNL     1      28.437  41.447  52.665  1.00  0.00     0.015 A 
HETATM   19  C   UNL     1      29.064  44.184  52.909  1.00  0.00     0.044 A 
HETATM   20  N   UNL     1      27.963  44.309  50.643  1.00  0.00    -0.365 N 
HETATM   21  C   UNL     1      29.360  43.314  53.979  1.00  0.00    -0.005 A 
HETATM   22  C   UNL     1      29.087  41.945  53.802  1.00  0.00     0.015 A 
HETATM   23  H   UNL     1      28.048  45.302  50.472  1.00  0.00     0.165 HD
HETATM   24  C   UNL     1      27.239  43.440  49.864  1.00  0.00     0.097 C 
BRANCH  21  25
HETATM   25  C   UNL     1      29.870  43.801  55.286  1.00  0.00     0.066 A 
HETATM   26  N   UNL     1      29.385  45.010  55.679  1.00  0.00    -0.260 NA
HETATM   27  C   UNL     1      29.856  45.554  56.822  1.00  0.00     0.117 A 
HETATM   28  C   UNL     1      30.809  44.954  57.619  1.00  0.00     0.019 A 
HETATM   29  C   UNL     1      31.298  43.716  57.227  1.00  0.00     0.004 A 
HETATM   30  C   UNL     1      30.824  43.130  56.052  1.00  0.00     0.032 A 
ENDBRANCH  21  25
ENDBRANCH   1  15
BRANCH   1  31
HETATM   31  C   UNL     1      26.849  39.889  49.583  1.00  0.00    -0.047 A 
HETATM   32  C   UNL     1      28.109  39.437  50.029  1.00  0.00     0.043 A 
HETATM   33  C   UNL     1      28.666  38.251  49.523  1.00  0.00     0.103 A 
HETATM   34  C   UNL     1      28.003  37.513  48.538  1.00  0.00     0.036 A 
HETATM   35  C   UNL     1      26.762  37.951  48.085  1.00  0.00     0.003 A 
HETATM   36  C   UNL     1      26.186  39.107  48.623  1.00  0.00     0.008 A 
BRANCH  33  37
HETATM   37  N   UNL     1      29.927  37.746  50.079  1.00  0.00    -0.116 N 
HETATM   38  O   UNL     1      30.985  38.145  49.569  1.00  0.00    -0.532 OA
HETATM   39  O   UNL     1      29.865  36.958  51.035  1.00  0.00    -0.532 OA
ENDBRANCH  33  37
ENDBRANCH   1  31
TORSDOF 9
ENDMDL
MODEL 10
REMARK VINA RESULT:      -9.5     12.264     14.183
REMARK  9 active torsions:
REMARK  status: ('A' for Active; 'I' for Inactive)
REMARK    1  A    between atoms: C_3  and  C_4 
REMARK    2  A    between atoms: C_4  and  C_5 
REMARK    3  A    between atoms: C_5  and  N_6 
REMARK       I    between atoms: N_6  and  C_7 
REMARK    4  A    between atoms: C_7  and  C_8 
REMARK    5  A    between atoms: C_8  and  C_9 
REMARK    6  A    between atoms: C_9  and  C_10 
REMARK    7  A    between atoms: C_9  and  C_26 
REMARK    8  A    between atoms: C_14  and  C_15 
REMARK    9  A    between atoms: C_28  and  N_29 
ROOT
HETATM    1  C   UNL     1      35.369  51.203  41.854  1.00  0.00     0.062 C 
ENDROOT
BRANCH   1   2
HETATM    2  C   UNL     1      35.258  52.359  40.835  1.00  0.00     0.116 C 
BRANCH   2   3
HETATM    3  C   UNL     1      34.663  51.980  39.487  1.00  0.00     0.218 C 
HETATM    4  N   UNL     1      33.290  52.018  39.427  1.00  0.00    -0.361 N 
HETATM    5  H   UNL     1      32.767  52.313  40.245  1.00  0.00     0.162 HD
HETATM    6  O   UNL     1      35.365  51.641  38.537  1.00  0.00    -0.274 OA
BRANCH   4   7
HETATM    7  C   UNL     1      32.530  51.628  38.256  1.00  0.00     0.128 C 
BRANCH   7   8
HETATM    8  C   UNL     1      31.353  50.700  38.573  1.00  0.00     0.079 C 
BRANCH   8   9
HETATM    9  C   UNL     1      30.159  51.277  39.296  1.00  0.00     0.035 A 
HETATM   10  C   UNL     1      28.856  50.843  39.064  1.00  0.00     0.027 A 
HETATM   11  C   UNL     1      27.819  51.360  39.838  1.00  0.00     0.003 A 
HETATM   12  C   UNL     1      28.102  52.279  40.837  1.00  0.00     0.019 A 
HETATM   13  C   UNL     1      29.420  52.650  41.020  1.00  0.00     0.117 A 
HETATM   14  N   UNL     1      30.445  52.183  40.272  1.00  0.00    -0.266 NA
ENDBRANCH   8   9
ENDBRANCH   7   8
ENDBRANCH   4   7
ENDBRANCH   2   3
ENDBRANCH   1   2
BRANCH   1  15
HETATM   15  C   UNL     1      34.076  50.924  42.598  1.00  0.00    -0.021 C 
HETATM   16  C   UNL     1      33.179  49.847  42.245  1.00  0.00    -0.001 A 
HETATM   17  C   UNL     1      31.947  50.114  42.828  1.00  0.00     0.043 A 
HETATM   18  C   UNL     1      33.269  48.757  41.361  1.00  0.00     0.015 A 
HETATM   19  C   UNL     1      30.769  49.430  42.475  1.00  0.00     0.044 A 
HETATM   20  N   UNL     1      32.139  51.162  43.694  1.00  0.00    -0.365 N 
HETATM   21  C   UNL     1      30.834  48.420  41.494  1.00  0.00    -0.005 A 
HETATM   22  C   UNL     1      32.104  48.068  41.000  1.00  0.00     0.015 A 
HETATM   23  H   UNL     1      31.404  51.612  44.224  1.00  0.00     0.165 HD
HETATM   24  C   UNL     1      33.432  51.617  43.608  1.00  0.00     0.097 C 
BRANCH  21  25
HETATM   25  C   UNL     1      29.619  47.782  40.924  1.00  0.00     0.066 A 
HETATM   26  N   UNL     1      29.841  46.977  39.850  1.00  0.00    -0.260 NA
HETATM   27  C   UNL     1      28.779  46.419  39.231  1.00  0.00     0.117 A 
HETATM   28  C   UNL     1      27.471  46.619  39.623  1.00  0.00     0.019 A 
HETATM   29  C   UNL     1      27.242  47.431  40.726  1.00  0.00     0.004 A 
HETATM   30  C   UNL     1      28.323  48.017  41.386  1.00  0.00     0.032 A 
ENDBRANCH  21  25
ENDBRANCH   1  15
BRANCH   1  31
HETATM   31  C   UNL     1      36.571  51.419  42.770  1.00  0.00    -0.047 A 
HETATM   32  C   UNL     1      37.371  50.302  43.091  1.00  0.00     0.043 A 
HETATM   33  C   UNL     1      38.597  50.466  43.758  1.00  0.00     0.103 A 
HETATM   34  C   UNL     1      39.032  51.734  44.152  1.00  0.00     0.036 A 
HETATM   35  C   UNL     1      38.250  52.844  43.846  1.00  0.00     0.003 A 
HETATM   36  C   UNL     1      37.051  52.686  43.141  1.00  0.00     0.008 A 
BRANCH  33  37
HETATM   37  N   UNL     1      39.460  49.300  43.987  1.00  0.00    -0.116 N 
HETATM   38  O   UNL     1      40.550  49.264  43.398  1.00  0.00    -0.532 OA
HETATM   39  O   UNL     1      39.055  48.424  44.766  1.00  0.00    -0.532 OA
ENDBRANCH  33  37
ENDBRANCH   1  31
TORSDOF 9
ENDMDL
