MODEL 1
REMARK VINA RESULT:      -8.4      0.000      0.000
REMARK  5 active torsions:
REMARK  status: ('A' for Active; 'I' for Inactive)
REMARK    1  A    between atoms: C_2  and  O_3 
REMARK    2  A    between atoms: O_3  and  C_4 
REMARK    3  A    between atoms: C_7  and  C_8 
REMARK       I    between atoms: C_8  and  N_9 
REMARK    4  A    between atoms: N_9  and  N_10 
REMARK    5  A    between atoms: C_11  and  C_12 
ROOT
HETATM    1  C   UNL     1      26.078  47.008  53.018  1.00  0.00     0.271 C 
HETATM    2  N   UNL     1      25.879  46.903  51.649  1.00  0.00    -0.243 N 
HETATM    3  O   UNL     1      25.531  47.828  53.750  1.00  0.00    -0.266 OA
HETATM    4  H   UNL     1      26.440  46.280  51.083  1.00  0.00     0.192 HD
ENDROOT
BRANCH   2   5
HETATM    5  N   UNL     1      25.065  47.807  51.024  1.00  0.00    -0.183 NA
HETATM    6  C   UNL     1      25.136  47.845  49.734  1.00  0.00     0.152 C 
BRANCH   6   7
HETATM    7  C   UNL     1      24.332  48.808  49.009  1.00  0.00     0.011 A 
HETATM    8  C   UNL     1      22.947  48.706  48.655  1.00  0.00     0.005 A 
HETATM    9  C   UNL     1      22.611  49.864  47.949  1.00  0.00     0.043 A 
HETATM   10  C   UNL     1      21.942  47.739  48.872  1.00  0.00     0.033 A 
HETATM   11  C   UNL     1      21.328  50.104  47.444  1.00  0.00     0.031 A 
HETATM   12  N   UNL     1      23.745  50.642  47.880  1.00  0.00    -0.364 N 
HETATM   13  C   UNL     1      20.349  49.133  47.671  1.00  0.00     0.021 A 
HETATM   14  C   UNL     1      20.655  47.971  48.376  1.00  0.00     0.012 A 
HETATM   15 BR   UNL     1      19.303  46.680  48.673  1.00  0.00    -0.051 Br
HETATM   16  H   UNL     1      23.800  51.543  47.426  1.00  0.00     0.165 HD
HETATM   17  C   UNL     1      24.781  50.019  48.516  1.00  0.00     0.102 A 
ENDBRANCH   6   7
ENDBRANCH   2   5
BRANCH   1  18
HETATM   18  C   UNL     1      27.071  46.063  53.609  1.00  0.00     0.033 A 
HETATM   19  C   UNL     1      27.316  44.790  53.086  1.00  0.00     0.020 A 
HETATM   20  C   UNL     1      28.279  43.966  53.680  1.00  0.00     0.038 A 
HETATM   21  C   UNL     1      28.998  44.393  54.801  1.00  0.00     0.068 A 
HETATM   22  C   UNL     1      28.732  45.650  55.341  1.00  0.00     0.038 A 
HETATM   23  C   UNL     1      27.772  46.479  54.749  1.00  0.00     0.020 A 
BRANCH  21  24
HETATM   24  O   UNL     1      29.914  43.494  55.270  1.00  0.00    -0.352 OA
BRANCH  24  25
HETATM   25  C   UNL     1      31.067  44.025  55.923  1.00  0.00     0.171 C 
HETATM   26  C   UNL     1      31.411  43.114  57.087  1.00  0.00     0.034 C 
ENDBRANCH  24  25
ENDBRANCH  21  24
ENDBRANCH   1  18
TORSDOF 5
ENDMDL
MODEL 2
REMARK VINA RESULT:      -8.4      3.282      9.626
REMARK  5 active torsions:
REMARK  status: ('A' for Active; 'I' for Inactive)
REMARK    1  A    between atoms: C_2  and  O_3 
REMARK    2  A    between atoms: O_3  and  C_4 
REMARK    3  A    between atoms: C_7  and  C_8 
REMARK       I    between atoms: C_8  and  N_9 
REMARK    4  A    between atoms: N_9  and  N_10 
REMARK    5  A    between atoms: C_11  and  C_12 
ROOT
HETATM    1  C   UNL     1      25.291  48.061  49.849  1.00  0.00     0.271 C 
HETATM    2  N   UNL     1      25.065  47.342  51.014  1.00  0.00    -0.243 N 
HETATM    3  O   UNL     1      26.397  48.309  49.377  1.00  0.00    -0.266 OA
HETATM    4  H   UNL     1      24.137  47.265  51.411  1.00  0.00     0.192 HD
ENDROOT
BRANCH   2   5
HETATM    5  N   UNL     1      26.135  46.917  51.751  1.00  0.00    -0.183 NA
HETATM    6  C   UNL     1      25.967  46.873  53.032  1.00  0.00     0.152 C 
BRANCH   6   7
HETATM    7  C   UNL     1      27.072  46.471  53.878  1.00  0.00     0.011 A 
HETATM    8  C   UNL     1      27.728  45.198  53.919  1.00  0.00     0.005 A 
HETATM    9  C   UNL     1      28.722  45.273  54.898  1.00  0.00     0.043 A 
HETATM   10  C   UNL     1      27.575  43.986  53.211  1.00  0.00     0.033 A 
HETATM   11  C   UNL     1      29.567  44.201  55.212  1.00  0.00     0.031 A 
HETATM   12  N   UNL     1      28.675  46.542  55.429  1.00  0.00    -0.364 N 
HETATM   13  C   UNL     1      29.397  43.011  54.498  1.00  0.00     0.021 A 
HETATM   14  C   UNL     1      28.417  42.910  53.514  1.00  0.00     0.012 A 
HETATM   15 BR   UNL     1      28.220  41.286  52.560  1.00  0.00    -0.051 Br
HETATM   16  H   UNL     1      29.282  46.885  56.161  1.00  0.00     0.165 HD
HETATM   17  C   UNL     1      27.692  47.269  54.821  1.00  0.00     0.102 A 
ENDBRANCH   6   7
ENDBRANCH   2   5
BRANCH   1  18
HETATM   18  C   UNL     1      24.078  48.595  49.163  1.00  0.00     0.033 A 
HETATM   19  C   UNL     1      22.844  47.936  49.176  1.00  0.00     0.020 A 
HETATM   20  C   UNL     1      21.742  48.509  48.529  1.00  0.00     0.038 A 
HETATM   21  C   UNL     1      21.858  49.729  47.856  1.00  0.00     0.068 A 
HETATM   22  C   UNL     1      23.095  50.370  47.817  1.00  0.00     0.038 A 
HETATM   23  C   UNL     1      24.199  49.804  48.465  1.00  0.00     0.020 A 
BRANCH  21  24
HETATM   24  O   UNL     1      20.702  50.176  47.281  1.00  0.00    -0.352 OA
BRANCH  24  25
HETATM   25  C   UNL     1      19.628  50.512  48.160  1.00  0.00     0.171 C 
HETATM   26  C   UNL     1      19.764  51.977  48.532  1.00  0.00     0.034 C 
ENDBRANCH  24  25
ENDBRANCH  21  24
ENDBRANCH   1  18
TORSDOF 5
ENDMDL
MODEL 3
REMARK VINA RESULT:      -8.3      3.623      9.728
REMARK  5 active torsions:
REMARK  status: ('A' for Active; 'I' for Inactive)
REMARK    1  A    between atoms: C_2  and  O_3 
REMARK    2  A    between atoms: O_3  and  C_4 
REMARK    3  A    between atoms: C_7  and  C_8 
REMARK       I    between atoms: C_8  and  N_9 
REMARK    4  A    between atoms: N_9  and  N_10 
REMARK    5  A    between atoms: C_11  and  C_12 
ROOT
HETATM    1  C   UNL     1      25.988  47.775  49.545  1.00  0.00     0.271 C 
HETATM    2  N   UNL     1      25.709  46.465  49.906  1.00  0.00    -0.243 N 
HETATM    3  O   UNL     1      27.104  48.286  49.550  1.00  0.00    -0.266 OA
HETATM    4  H   UNL     1      24.756  46.134  49.986  1.00  0.00     0.192 HD
ENDROOT
BRANCH   2   5
HETATM    5  N   UNL     1      26.722  45.672  50.369  1.00  0.00    -0.183 NA
HETATM    6  C   UNL     1      26.370  44.609  51.013  1.00  0.00     0.152 C 
BRANCH   6   7
HETATM    7  C   UNL     1      27.391  43.745  51.568  1.00  0.00     0.011 A 
HETATM    8  C   UNL     1      28.119  43.918  52.790  1.00  0.00     0.005 A 
HETATM    9  C   UNL     1      29.007  42.845  52.901  1.00  0.00     0.043 A 
HETATM   10  C   UNL     1      28.104  44.885  53.818  1.00  0.00     0.033 A 
HETATM   11  C   UNL     1      29.884  42.690  53.982  1.00  0.00     0.031 A 
HETATM   12  N   UNL     1      28.825  42.049  51.793  1.00  0.00    -0.364 N 
HETATM   13  C   UNL     1      29.852  43.659  54.988  1.00  0.00     0.021 A 
HETATM   14  C   UNL     1      28.974  44.737  54.905  1.00  0.00     0.012 A 
HETATM   15 BR   UNL     1      28.949  46.027  56.290  1.00  0.00    -0.051 Br
HETATM   16  H   UNL     1      29.333  41.196  51.605  1.00  0.00     0.165 HD
HETATM   17  C   UNL     1      27.855  42.578  50.990  1.00  0.00     0.102 A 
ENDBRANCH   6   7
ENDBRANCH   2   5
BRANCH   1  18
HETATM   18  C   UNL     1      24.813  48.614  49.164  1.00  0.00     0.033 A 
HETATM   19  C   UNL     1      24.930  49.799  48.431  1.00  0.00     0.020 A 
HETATM   20  C   UNL     1      23.781  50.523  48.090  1.00  0.00     0.038 A 
HETATM   21  C   UNL     1      22.513  50.084  48.482  1.00  0.00     0.068 A 
HETATM   22  C   UNL     1      22.399  48.920  49.239  1.00  0.00     0.038 A 
HETATM   23  C   UNL     1      23.543  48.190  49.579  1.00  0.00     0.020 A 
BRANCH  21  24
HETATM   24  O   UNL     1      21.481  50.881  48.070  1.00  0.00    -0.352 OA
BRANCH  24  25
HETATM   25  C   UNL     1      20.554  51.307  49.069  1.00  0.00     0.171 C 
HETATM   26  C   UNL     1      19.474  52.130  48.390  1.00  0.00     0.034 C 
ENDBRANCH  24  25
ENDBRANCH  21  24
ENDBRANCH   1  18
TORSDOF 5
ENDMDL
MODEL 4
REMARK VINA RESULT:      -8.2      3.640      9.718
REMARK  5 active torsions:
REMARK  status: ('A' for Active; 'I' for Inactive)
REMARK    1  A    between atoms: C_2  and  O_3 
REMARK    2  A    between atoms: O_3  and  C_4 
REMARK    3  A    between atoms: C_7  and  C_8 
REMARK       I    between atoms: C_8  and  N_9 
REMARK    4  A    between atoms: N_9  and  N_10 
REMARK    5  A    between atoms: C_11  and  C_12 
ROOT
HETATM    1  C   UNL     1      23.939  48.129  49.538  1.00  0.00     0.271 C 
HETATM    2  N   UNL     1      23.671  46.796  49.817  1.00  0.00    -0.243 N 
HETATM    3  O   UNL     1      25.033  48.670  49.664  1.00  0.00    -0.266 OA
HETATM    4  H   UNL     1      22.726  46.436  49.798  1.00  0.00     0.192 HD
ENDROOT
BRANCH   2   5
HETATM    5  N   UNL     1      24.665  46.012  50.333  1.00  0.00    -0.183 NA
HETATM    6  C   UNL     1      24.291  44.913  50.899  1.00  0.00     0.152 C 
BRANCH   6   7
HETATM    7  C   UNL     1      25.288  44.053  51.504  1.00  0.00     0.011 A 
HETATM    8  C   UNL     1      26.233  44.389  52.527  1.00  0.00     0.005 A 
HETATM    9  C   UNL     1      26.997  43.247  52.780  1.00  0.00     0.043 A 
HETATM   10  C   UNL     1      26.510  45.559  53.268  1.00  0.00     0.033 A 
HETATM   11  C   UNL     1      28.026  43.212  53.729  1.00  0.00     0.031 A 
HETATM   12  N   UNL     1      26.533  42.254  51.947  1.00  0.00    -0.364 N 
HETATM   13  C   UNL     1      28.282  44.382  54.450  1.00  0.00     0.021 A 
HETATM   14  C   UNL     1      27.534  45.533  54.222  1.00  0.00     0.012 A 
HETATM   15 BR   UNL     1      27.902  47.096  55.224  1.00  0.00    -0.051 Br
HETATM   16  H   UNL     1      26.899  41.313  51.911  1.00  0.00     0.165 HD
HETATM   17  C   UNL     1      25.505  42.726  51.182  1.00  0.00     0.102 A 
ENDBRANCH   6   7
ENDBRANCH   2   5
BRANCH   1  18
HETATM   18  C   UNL     1      22.775  48.951  49.091  1.00  0.00     0.033 A 
HETATM   19  C   UNL     1      22.856  50.332  48.880  1.00  0.00     0.020 A 
HETATM   20  C   UNL     1      21.729  51.035  48.439  1.00  0.00     0.038 A 
HETATM   21  C   UNL     1      20.514  50.379  48.215  1.00  0.00     0.068 A 
HETATM   22  C   UNL     1      20.426  49.010  48.456  1.00  0.00     0.038 A 
HETATM   23  C   UNL     1      21.551  48.300  48.893  1.00  0.00     0.020 A 
BRANCH  21  24
HETATM   24  O   UNL     1      19.502  51.186  47.775  1.00  0.00    -0.352 OA
BRANCH  24  25
HETATM   25  C   UNL     1      19.268  52.389  48.507  1.00  0.00     0.171 C 
HETATM   26  C   UNL     1      18.483  52.034  49.757  1.00  0.00     0.034 C 
ENDBRANCH  24  25
ENDBRANCH  21  24
ENDBRANCH   1  18
TORSDOF 5
ENDMDL
MODEL 5
REMARK VINA RESULT:      -8.0      3.921      9.888
REMARK  5 active torsions:
REMARK  status: ('A' for Active; 'I' for Inactive)
REMARK    1  A    between atoms: C_2  and  O_3 
REMARK    2  A    between atoms: O_3  and  C_4 
REMARK    3  A    between atoms: C_7  and  C_8 
REMARK       I    between atoms: C_8  and  N_9 
REMARK    4  A    between atoms: N_9  and  N_10 
REMARK    5  A    between atoms: C_11  and  C_12 
ROOT
HETATM    1  C   UNL     1      25.638  45.536  49.895  1.00  0.00     0.271 C 
HETATM    2  N   UNL     1      25.458  44.677  50.970  1.00  0.00    -0.243 N 
HETATM    3  O   UNL     1      26.683  45.670  49.266  1.00  0.00    -0.266 OA
HETATM    4  H   UNL     1      24.607  44.691  51.516  1.00  0.00     0.192 HD
ENDROOT
BRANCH   2   5
HETATM    5  N   UNL     1      26.525  43.957  51.432  1.00  0.00    -0.183 NA
HETATM    6  C   UNL     1      27.222  44.505  52.372  1.00  0.00     0.152 C 
BRANCH   6   7
HETATM    7  C   UNL     1      28.391  43.817  52.880  1.00  0.00     0.011 A 
HETATM    8  C   UNL     1      29.085  44.056  54.110  1.00  0.00     0.005 A 
HETATM    9  C   UNL     1      30.158  43.162  54.164  1.00  0.00     0.043 A 
HETATM   10  C   UNL     1      28.902  44.948  55.189  1.00  0.00     0.033 A 
HETATM   11  C   UNL     1      31.058  43.115  55.235  1.00  0.00     0.031 A 
HETATM   12  N   UNL     1      30.115  42.406  53.014  1.00  0.00    -0.364 N 
HETATM   13  C   UNL     1      30.856  44.006  56.292  1.00  0.00     0.021 A 
HETATM   14  C   UNL     1      29.794  44.905  56.266  1.00  0.00     0.012 A 
HETATM   15 BR   UNL     1      29.544  46.093  57.719  1.00  0.00    -0.051 Br
HETATM   16  H   UNL     1      30.771  41.673  52.781  1.00  0.00     0.165 HD
HETATM   17  C   UNL     1      29.057  42.788  52.240  1.00  0.00     0.102 A 
ENDBRANCH   6   7
ENDBRANCH   2   5
BRANCH   1  18
HETATM   18  C   UNL     1      24.461  46.376  49.524  1.00  0.00     0.033 A 
HETATM   19  C   UNL     1      23.318  45.856  48.908  1.00  0.00     0.020 A 
HETATM   20  C   UNL     1      22.243  46.702  48.610  1.00  0.00     0.038 A 
HETATM   21  C   UNL     1      22.297  48.067  48.909  1.00  0.00     0.068 A 
HETATM   22  C   UNL     1      23.448  48.590  49.494  1.00  0.00     0.038 A 
HETATM   23  C   UNL     1      24.525  47.749  49.799  1.00  0.00     0.020 A 
BRANCH  21  24
HETATM   24  O   UNL     1      21.173  48.770  48.575  1.00  0.00    -0.352 OA
BRANCH  24  25
HETATM   25  C   UNL     1      20.818  49.863  49.423  1.00  0.00     0.171 C 
HETATM   26  C   UNL     1      20.944  51.143  48.618  1.00  0.00     0.034 C 
ENDBRANCH  24  25
ENDBRANCH  21  24
ENDBRANCH   1  18
TORSDOF 5
ENDMDL
MODEL 6
REMARK VINA RESULT:      -8.0      2.465      3.255
REMARK  5 active torsions:
REMARK  status: ('A' for Active; 'I' for Inactive)
REMARK    1  A    between atoms: C_2  and  O_3 
REMARK    2  A    between atoms: O_3  and  C_4 
REMARK    3  A    between atoms: C_7  and  C_8 
REMARK       I    between atoms: C_8  and  N_9 
REMARK    4  A    between atoms: N_9  and  N_10 
REMARK    5  A    between atoms: C_11  and  C_12 
ROOT
HETATM    1  C   UNL     1      25.601  44.061  53.103  1.00  0.00     0.271 C 
HETATM    2  N   UNL     1      25.475  44.015  51.722  1.00  0.00    -0.243 N 
HETATM    3  O   UNL     1      24.684  44.282  53.888  1.00  0.00    -0.266 OA
HETATM    4  H   UNL     1      26.287  43.938  51.124  1.00  0.00     0.192 HD
ENDROOT
BRANCH   2   5
HETATM    5  N   UNL     1      24.263  44.295  51.155  1.00  0.00    -0.183 NA
HETATM    6  C   UNL     1      24.291  44.862  49.994  1.00  0.00     0.152 C 
BRANCH   6   7
HETATM    7  C   UNL     1      23.044  45.225  49.353  1.00  0.00     0.011 A 
HETATM    8  C   UNL     1      22.658  46.509  48.847  1.00  0.00     0.005 A 
HETATM    9  C   UNL     1      21.365  46.382  48.332  1.00  0.00     0.043 A 
HETATM   10  C   UNL     1      23.287  47.770  48.774  1.00  0.00     0.033 A 
HETATM   11  C   UNL     1      20.666  47.448  47.753  1.00  0.00     0.031 A 
HETATM   12  N   UNL     1      20.981  45.072  48.514  1.00  0.00    -0.364 N 
HETATM   13  C   UNL     1      21.310  48.688  47.691  1.00  0.00     0.021 A 
HETATM   14  C   UNL     1      22.600  48.841  48.192  1.00  0.00     0.012 A 
HETATM   15 BR   UNL     1      23.445  50.532  48.084  1.00  0.00    -0.051 Br
HETATM   16  H   UNL     1      20.089  44.688  48.235  1.00  0.00     0.165 HD
HETATM   17  C   UNL     1      21.983  44.370  49.121  1.00  0.00     0.102 A 
ENDBRANCH   6   7
ENDBRANCH   2   5
BRANCH   1  18
HETATM   18  C   UNL     1      26.979  43.863  53.642  1.00  0.00     0.033 A 
HETATM   19  C   UNL     1      27.680  44.862  54.327  1.00  0.00     0.020 A 
HETATM   20  C   UNL     1      28.961  44.597  54.825  1.00  0.00     0.038 A 
HETATM   21  C   UNL     1      29.560  43.347  54.639  1.00  0.00     0.068 A 
HETATM   22  C   UNL     1      28.875  42.363  53.930  1.00  0.00     0.038 A 
HETATM   23  C   UNL     1      27.592  42.620  53.433  1.00  0.00     0.020 A 
BRANCH  21  24
HETATM   24  O   UNL     1      30.806  43.223  55.187  1.00  0.00    -0.352 OA
BRANCH  24  25
HETATM   25  C   UNL     1      31.134  44.113  56.254  1.00  0.00     0.171 C 
HETATM   26  C   UNL     1      31.915  43.333  57.296  1.00  0.00     0.034 C 
ENDBRANCH  24  25
ENDBRANCH  21  24
ENDBRANCH   1  18
TORSDOF 5
ENDMDL
MODEL 7
REMARK VINA RESULT:      -7.5      1.662      1.866
REMARK  5 active torsions:
REMARK  status: ('A' for Active; 'I' for Inactive)
REMARK    1  A    between atoms: C_2  and  O_3 
REMARK    2  A    between atoms: O_3  and  C_4 
REMARK    3  A    between atoms: C_7  and  C_8 
REMARK       I    between atoms: C_8  and  N_9 
REMARK    4  A    between atoms: N_9  and  N_10 
REMARK    5  A    between atoms: C_11  and  C_12 
ROOT
HETATM    1  C   UNL     1      25.763  45.154  52.509  1.00  0.00     0.271 C 
HETATM    2  N   UNL     1      25.847  46.301  51.734  1.00  0.00    -0.243 N 
HETATM    3  O   UNL     1      24.740  44.500  52.694  1.00  0.00    -0.266 OA
HETATM    4  H   UNL     1      26.692  46.857  51.709  1.00  0.00     0.192 HD
ENDROOT
BRANCH   2   5
HETATM    5  N   UNL     1      24.709  46.806  51.169  1.00  0.00    -0.183 NA
HETATM    6  C   UNL     1      24.823  47.267  49.967  1.00  0.00     0.152 C 
BRANCH   6   7
HETATM    7  C   UNL     1      23.667  47.855  49.321  1.00  0.00     0.011 A 
HETATM    8  C   UNL     1      22.703  47.205  48.484  1.00  0.00     0.005 A 
HETATM    9  C   UNL     1      21.781  48.174  48.080  1.00  0.00     0.043 A 
HETATM   10  C   UNL     1      22.523  45.880  48.032  1.00  0.00     0.033 A 
HETATM   11  C   UNL     1      20.693  47.891  47.245  1.00  0.00     0.031 A 
HETATM   12  N   UNL     1      22.165  49.366  48.652  1.00  0.00    -0.364 N 
HETATM   13  C   UNL     1      20.535  46.571  46.811  1.00  0.00     0.021 A 
HETATM   14  C   UNL     1      21.436  45.585  47.202  1.00  0.00     0.012 A 
HETATM   15 BR   UNL     1      21.187  43.807  46.602  1.00  0.00    -0.051 Br
HETATM   16  H   UNL     1      21.681  50.245  48.535  1.00  0.00     0.165 HD
HETATM   17  C   UNL     1      23.292  49.184  49.402  1.00  0.00     0.102 A 
ENDBRANCH   6   7
ENDBRANCH   2   5
BRANCH   1  18
HETATM   18  C   UNL     1      27.022  44.730  53.191  1.00  0.00     0.033 A 
HETATM   19  C   UNL     1      27.925  43.824  52.626  1.00  0.00     0.020 A 
HETATM   20  C   UNL     1      29.098  43.490  53.314  1.00  0.00     0.038 A 
HETATM   21  C   UNL     1      29.378  44.042  54.568  1.00  0.00     0.068 A 
HETATM   22  C   UNL     1      28.463  44.921  55.144  1.00  0.00     0.038 A 
HETATM   23  C   UNL     1      27.290  45.261  54.459  1.00  0.00     0.020 A 
BRANCH  21  24
HETATM   24  O   UNL     1      30.562  43.639  55.119  1.00  0.00    -0.352 OA
BRANCH  24  25
HETATM   25  C   UNL     1      30.995  44.322  56.295  1.00  0.00     0.171 C 
HETATM   26  C   UNL     1      31.840  43.363  57.113  1.00  0.00     0.034 C 
ENDBRANCH  24  25
ENDBRANCH  21  24
ENDBRANCH   1  18
TORSDOF 5
ENDMDL
MODEL 8
REMARK VINA RESULT:      -7.4      6.925     10.143
REMARK  5 active torsions:
REMARK  status: ('A' for Active; 'I' for Inactive)
REMARK    1  A    between atoms: C_2  and  O_3 
REMARK    2  A    between atoms: O_3  and  C_4 
REMARK    3  A    between atoms: C_7  and  C_8 
REMARK       I    between atoms: C_8  and  N_9 
REMARK    4  A    between atoms: N_9  and  N_10 
REMARK    5  A    between atoms: C_11  and  C_12 
ROOT
HETATM    1  C   UNL     1      27.913  41.033  49.749  1.00  0.00     0.271 C 
HETATM    2  N   UNL     1      28.461  41.047  51.023  1.00  0.00    -0.243 N 
HETATM    3  O   UNL     1      27.574  42.028  49.115  1.00  0.00    -0.266 OA
HETATM    4  H   UNL     1      28.619  40.190  51.536  1.00  0.00     0.192 HD
ENDROOT
BRANCH   2   5
HETATM    5  N   UNL     1      28.589  42.240  51.679  1.00  0.00    -0.183 NA
HETATM    6  C   UNL     1      27.735  42.470  52.621  1.00  0.00     0.152 C 
BRANCH   6   7
HETATM    7  C   UNL     1      27.785  43.732  53.331  1.00  0.00     0.011 A 
HETATM    8  C   UNL     1      28.688  44.117  54.374  1.00  0.00     0.005 A 
HETATM    9  C   UNL     1      28.347  45.415  54.762  1.00  0.00     0.043 A 
HETATM   10  C   UNL     1      29.770  43.485  55.026  1.00  0.00     0.033 A 
HETATM   11  C   UNL     1      29.025  46.114  55.769  1.00  0.00     0.031 A 
HETATM   12  N   UNL     1      27.282  45.806  53.983  1.00  0.00    -0.364 N 
HETATM   13  C   UNL     1      30.092  45.469  56.400  1.00  0.00     0.021 A 
HETATM   14  C   UNL     1      30.456  44.177  56.030  1.00  0.00     0.012 A 
HETATM   15 BR   UNL     1      31.913  43.336  56.900  1.00  0.00    -0.051 Br
HETATM   16  H   UNL     1      26.822  46.704  54.041  1.00  0.00     0.165 HD
HETATM   17  C   UNL     1      26.941  44.805  53.118  1.00  0.00     0.102 A 
ENDBRANCH   6   7
ENDBRANCH   2   5
BRANCH   1  18
HETATM   18  C   UNL     1      27.695  39.685  49.145  1.00  0.00     0.033 A 
HETATM   19  C   UNL     1      28.233  39.309  47.909  1.00  0.00     0.020 A 
HETATM   20  C   UNL     1      28.004  38.019  47.415  1.00  0.00     0.038 A 
HETATM   21  C   UNL     1      27.234  37.099  48.134  1.00  0.00     0.068 A 
HETATM   22  C   UNL     1      26.673  37.485  49.350  1.00  0.00     0.038 A 
HETATM   23  C   UNL     1      26.901  38.772  49.851  1.00  0.00     0.020 A 
BRANCH  21  24
HETATM   24  O   UNL     1      27.104  35.875  47.540  1.00  0.00    -0.352 OA
BRANCH  24  25
HETATM   25  C   UNL     1      25.827  35.558  46.985  1.00  0.00     0.171 C 
HETATM   26  C   UNL     1      25.742  34.050  46.831  1.00  0.00     0.034 C 
ENDBRANCH  24  25
ENDBRANCH  21  24
ENDBRANCH   1  18
TORSDOF 5
ENDMDL
MODEL 9
REMARK VINA RESULT:      -7.2      6.537      8.955
REMARK  5 active torsions:
REMARK  status: ('A' for Active; 'I' for Inactive)
REMARK    1  A    between atoms: C_2  and  O_3 
REMARK    2  A    between atoms: O_3  and  C_4 
REMARK    3  A    between atoms: C_7  and  C_8 
REMARK       I    between atoms: C_8  and  N_9 
REMARK    4  A    between atoms: N_9  and  N_10 
REMARK    5  A    between atoms: C_11  and  C_12 
ROOT
HETATM    1  C   UNL     1      28.597  41.519  53.006  1.00  0.00     0.271 C 
HETATM    2  N   UNL     1      28.655  41.550  51.620  1.00  0.00    -0.243 N 
HETATM    3  O   UNL     1      28.558  40.498  53.687  1.00  0.00    -0.266 OA
HETATM    4  H   UNL     1      28.575  42.421  51.111  1.00  0.00     0.192 HD
ENDROOT
BRANCH   2   5
HETATM    5  N   UNL     1      28.603  40.374  50.925  1.00  0.00    -0.183 NA
HETATM    6  C   UNL     1      28.326  40.464  49.666  1.00  0.00     0.152 C 
BRANCH   6   7
HETATM    7  C   UNL     1      28.214  39.254  48.877  1.00  0.00     0.011 A 
HETATM    8  C   UNL     1      28.107  39.142  47.453  1.00  0.00     0.005 A 
HETATM    9  C   UNL     1      28.006  37.781  47.149  1.00  0.00     0.043 A 
HETATM   10  C   UNL     1      28.091  40.069  46.389  1.00  0.00     0.033 A 
HETATM   11  C   UNL     1      27.885  37.300  45.840  1.00  0.00     0.031 A 
HETATM   12  N   UNL     1      28.053  37.094  48.340  1.00  0.00    -0.364 N 
HETATM   13  C   UNL     1      27.872  38.236  44.802  1.00  0.00     0.021 A 
HETATM   14  C   UNL     1      27.975  39.597  45.076  1.00  0.00     0.012 A 
HETATM   15 BR   UNL     1      27.963  40.838  43.647  1.00  0.00    -0.051 Br
HETATM   16  H   UNL     1      28.003  36.088  48.429  1.00  0.00     0.165 HD
HETATM   17  C   UNL     1      28.182  37.968  49.382  1.00  0.00     0.102 A 
ENDBRANCH   6   7
ENDBRANCH   2   5
BRANCH   1  18
HETATM   18  C   UNL     1      28.538  42.844  53.689  1.00  0.00     0.033 A 
HETATM   19  C   UNL     1      29.521  43.286  54.581  1.00  0.00     0.020 A 
HETATM   20  C   UNL     1      29.410  44.552  55.168  1.00  0.00     0.038 A 
HETATM   21  C   UNL     1      28.322  45.383  54.885  1.00  0.00     0.068 A 
HETATM   22  C   UNL     1      27.327  44.931  54.020  1.00  0.00     0.038 A 
HETATM   23  C   UNL     1      27.434  43.668  53.427  1.00  0.00     0.020 A 
BRANCH  21  24
HETATM   24  O   UNL     1      28.349  46.595  55.517  1.00  0.00    -0.352 OA
BRANCH  24  25
HETATM   25  C   UNL     1      27.807  47.708  54.806  1.00  0.00     0.171 C 
HETATM   26  C   UNL     1      26.608  48.223  55.580  1.00  0.00     0.034 C 
ENDBRANCH  24  25
ENDBRANCH  21  24
ENDBRANCH   1  18
TORSDOF 5
ENDMDL
MODEL 10
REMARK VINA RESULT:      -7.0      7.958     11.233
REMARK  5 active torsions:
REMARK  status: ('A' for Active; 'I' for Inactive)
REMARK    1  A    between atoms: C_2  and  O_3 
REMARK    2  A    between atoms: O_3  and  C_4 
REMARK    3  A    between atoms: C_7  and  C_8 
REMARK       I    between atoms: C_8  and  N_9 
REMARK    4  A    between atoms: N_9  and  N_10 
REMARK    5  A    between atoms: C_11  and  C_12 
ROOT
HETATM    1  C   UNL     1      18.266  51.741  48.890  1.00  0.00     0.271 C 
HETATM    2  N   UNL     1      17.685  52.418  49.953  1.00  0.00    -0.243 N 
HETATM    3  O   UNL     1      17.689  51.432  47.851  1.00  0.00    -0.266 OA
HETATM    4  H   UNL     1      18.181  52.548  50.825  1.00  0.00     0.192 HD
ENDROOT
BRANCH   2   5
HETATM    5  N   UNL     1      16.354  52.723  49.899  1.00  0.00    -0.183 NA
HETATM    6  C   UNL     1      16.013  53.882  50.357  1.00  0.00     0.152 C 
BRANCH   6   7
HETATM    7  C   UNL     1      14.614  54.256  50.370  1.00  0.00     0.011 A 
HETATM    8  C   UNL     1      13.927  55.057  51.340  1.00  0.00     0.005 A 
HETATM    9  C   UNL     1      12.589  55.133  50.945  1.00  0.00     0.043 A 
HETATM   10  C   UNL     1      14.318  55.731  52.517  1.00  0.00     0.033 A 
HETATM   11  C   UNL     1      11.620  55.842  51.666  1.00  0.00     0.031 A 
HETATM   12  N   UNL     1      12.467  54.411  49.779  1.00  0.00    -0.364 N 
HETATM   13  C   UNL     1      12.030  56.502  52.828  1.00  0.00     0.021 A 
HETATM   14  C   UNL     1      13.358  56.446  53.242  1.00  0.00     0.012 A 
HETATM   15 BR   UNL     1      13.881  57.358  54.817  1.00  0.00    -0.051 Br
HETATM   16  H   UNL     1      11.607  54.291  49.262  1.00  0.00     0.165 HD
HETATM   17  C   UNL     1      13.676  53.885  49.424  1.00  0.00     0.102 A 
ENDBRANCH   6   7
ENDBRANCH   2   5
BRANCH   1  18
HETATM   18  C   UNL     1      19.691  51.337  49.071  1.00  0.00     0.033 A 
HETATM   19  C   UNL     1      20.308  51.260  50.324  1.00  0.00     0.020 A 
HETATM   20  C   UNL     1      21.643  50.850  50.419  1.00  0.00     0.038 A 
HETATM   21  C   UNL     1      22.379  50.526  49.275  1.00  0.00     0.068 A 
HETATM   22  C   UNL     1      21.774  50.633  48.024  1.00  0.00     0.038 A 
HETATM   23  C   UNL     1      20.438  51.038  47.923  1.00  0.00     0.020 A 
BRANCH  21  24
HETATM   24  O   UNL     1      23.665  50.131  49.516  1.00  0.00    -0.352 OA
BRANCH  24  25
HETATM   25  C   UNL     1      24.289  49.319  48.521  1.00  0.00     0.171 C 
HETATM   26  C   UNL     1      25.736  49.760  48.393  1.00  0.00     0.034 C 
ENDBRANCH  24  25
ENDBRANCH  21  24
ENDBRANCH   1  18
TORSDOF 5
ENDMDL
