MODEL 1
REMARK VINA RESULT:     -11.5      0.000      0.000
REMARK  5 active torsions:
REMARK  status: ('A' for Active; 'I' for Inactive)
REMARK    1  A    between atoms: C_5  and  C_6 
REMARK    2  A    between atoms: C_6  and  C_7 
REMARK       I    between atoms: C_7  and  N_8 
REMARK    3  A    between atoms: N_8  and  C_9 
REMARK    4  A    between atoms: N_10  and  C_11 
REMARK    5  A    between atoms: C_23  and  C_24 
ROOT
HETATM    1  C   UNL     1      28.182  40.931  50.569  1.00  0.00     0.152 C 
HETATM    2  N   UNL     1      26.959  41.445  50.142  1.00  0.00    -0.044 N 
HETATM    3  N   UNL     1      26.221  40.484  49.488  1.00  0.00    -0.148 NA
HETATM    4  C   UNL     1      27.049  39.437  49.400  1.00  0.00     0.115 C 
HETATM    5  C   UNL     1      28.308  39.695  49.979  1.00  0.00     0.087 C 
ENDROOT
BRANCH   1   6
HETATM    6  N   UNL     1      29.087  41.548  51.421  1.00  0.00    -0.311 N 
HETATM    7  C   UNL     1      28.822  41.565  52.786  1.00  0.00     0.227 C 
HETATM    8  O   UNL     1      27.820  41.068  53.305  1.00  0.00    -0.273 OA
HETATM    9  H   UNL     1      30.067  41.506  51.160  1.00  0.00     0.170 HD
BRANCH   7  10
HETATM   10  C   UNL     1      29.878  42.242  53.647  1.00  0.00     0.142 C 
BRANCH  10  11
HETATM   11  C   UNL     1      29.441  43.512  54.358  1.00  0.00    -0.038 A 
HETATM   12  C   UNL     1      30.026  43.943  55.584  1.00  0.00    -0.019 A 
HETATM   13  C   UNL     1      29.593  45.169  56.149  1.00  0.00    -0.025 A 
HETATM   14  C   UNL     1      31.032  43.226  56.274  1.00  0.00     0.013 A 
HETATM   15  C   UNL     1      30.175  45.642  57.336  1.00  0.00     0.012 A 
HETATM   16  C   UNL     1      28.583  45.911  55.522  1.00  0.00     0.012 A 
HETATM   17  C   UNL     1      31.182  44.924  57.978  1.00  0.00     0.001 A 
HETATM   18  C   UNL     1      31.608  43.715  57.449  1.00  0.00     0.001 A 
HETATM   19  C   UNL     1      27.999  45.468  54.338  1.00  0.00     0.001 A 
HETATM   20  C   UNL     1      28.427  44.280  53.758  1.00  0.00     0.008 A 
ENDBRANCH  10  11
ENDBRANCH   7  10
ENDBRANCH   1   6
BRANCH   2  21
HETATM   21  C   UNL     1      26.462  42.767  50.181  1.00  0.00     0.732 A 
HETATM   22  N   UNL     1      27.119  43.816  49.798  1.00  0.00    -0.067 NA
HETATM   23  C   UNL     1      26.485  45.028  49.954  1.00  0.00     0.065 A 
HETATM   24  C   UNL     1      25.217  45.171  50.383  1.00  0.00     0.036 A 
HETATM   25  C   UNL     1      27.341  46.234  49.634  1.00  0.00     0.060 C 
HETATM   26  C   UNL     1      24.541  46.490  50.604  1.00  0.00     0.046 C 
HETATM   27  C   UNL     1      24.454  43.942  50.705  1.00  0.00     0.268 A 
HETATM   28  C   UNL     1      25.531  47.654  50.663  1.00  0.00     0.005 C 
HETATM   29  C   UNL     1      26.563  47.548  49.546  1.00  0.00     0.006 C 
HETATM   30  O   UNL     1      23.268  43.967  51.012  1.00  0.00    -0.267 OA
HETATM   31  N   UNL     1      25.170  42.790  50.635  1.00  0.00    -0.152 N 
HETATM   32  H   UNL     1      24.711  41.910  50.847  1.00  0.00     0.188 HD
ENDBRANCH   2  21
BRANCH   4  33
HETATM   33  C   UNL     1      26.645  38.134  48.795  1.00  0.00     0.105 A 
HETATM   34  O   UNL     1      25.883  38.011  47.665  1.00  0.00    -0.320 OA
HETATM   35  C   UNL     1      25.763  36.684  47.403  1.00  0.00     0.142 A 
HETATM   36  C   UNL     1      26.429  35.943  48.349  1.00  0.00     0.027 A 
HETATM   37  C   UNL     1      26.994  36.878  49.251  1.00  0.00     0.041 A 
ENDBRANCH   4  33
TORSDOF 5
ENDMDL
MODEL 2
REMARK VINA RESULT:     -11.5      1.424      2.358
REMARK  5 active torsions:
REMARK  status: ('A' for Active; 'I' for Inactive)
REMARK    1  A    between atoms: C_5  and  C_6 
REMARK    2  A    between atoms: C_6  and  C_7 
REMARK       I    between atoms: C_7  and  N_8 
REMARK    3  A    between atoms: N_8  and  C_9 
REMARK    4  A    between atoms: N_10  and  C_11 
REMARK    5  A    between atoms: C_23  and  C_24 
ROOT
HETATM    1  C   UNL     1      27.881  40.676  50.670  1.00  0.00     0.152 C 
HETATM    2  N   UNL     1      27.195  41.487  49.770  1.00  0.00    -0.044 N 
HETATM    3  N   UNL     1      27.194  40.935  48.508  1.00  0.00    -0.148 NA
HETATM    4  C   UNL     1      27.992  39.867  48.618  1.00  0.00     0.115 C 
HETATM    5  C   UNL     1      28.513  39.713  49.918  1.00  0.00     0.087 C 
ENDROOT
BRANCH   1   6
HETATM    6  N   UNL     1      27.915  40.816  52.051  1.00  0.00    -0.311 N 
HETATM    7  C   UNL     1      28.728  41.798  52.608  1.00  0.00     0.227 C 
HETATM    8  O   UNL     1      29.438  42.564  51.953  1.00  0.00    -0.273 OA
HETATM    9  H   UNL     1      27.059  40.610  52.556  1.00  0.00     0.170 HD
BRANCH   7  10
HETATM   10  C   UNL     1      28.687  41.895  54.125  1.00  0.00     0.142 C 
BRANCH  10  11
HETATM   11  C   UNL     1      29.198  43.194  54.722  1.00  0.00    -0.038 A 
HETATM   12  C   UNL     1      28.474  44.418  54.627  1.00  0.00    -0.019 A 
HETATM   13  C   UNL     1      29.003  45.571  55.260  1.00  0.00    -0.025 A 
HETATM   14  C   UNL     1      27.241  44.555  53.946  1.00  0.00     0.013 A 
HETATM   15  C   UNL     1      28.297  46.784  55.220  1.00  0.00     0.012 A 
HETATM   16  C   UNL     1      30.232  45.501  55.931  1.00  0.00     0.012 A 
HETATM   17  C   UNL     1      27.072  46.880  54.561  1.00  0.00     0.001 A 
HETATM   18  C   UNL     1      26.546  45.767  53.923  1.00  0.00     0.001 A 
HETATM   19  C   UNL     1      30.945  44.307  55.994  1.00  0.00     0.001 A 
HETATM   20  C   UNL     1      30.431  43.161  55.398  1.00  0.00     0.008 A 
ENDBRANCH  10  11
ENDBRANCH   7  10
ENDBRANCH   1   6
BRANCH   2  21
HETATM   21  C   UNL     1      26.641  42.776  49.941  1.00  0.00     0.732 A 
HETATM   22  N   UNL     1      27.219  43.881  49.592  1.00  0.00    -0.067 NA
HETATM   23  C   UNL     1      26.544  45.046  49.881  1.00  0.00     0.065 A 
HETATM   24  C   UNL     1      25.306  45.093  50.408  1.00  0.00     0.036 A 
HETATM   25  C   UNL     1      27.317  46.313  49.592  1.00  0.00     0.060 C 
HETATM   26  C   UNL     1      24.588  46.357  50.772  1.00  0.00     0.046 C 
HETATM   27  C   UNL     1      24.626  43.807  50.691  1.00  0.00     0.268 A 
HETATM   28  C   UNL     1      25.525  47.563  50.848  1.00  0.00     0.005 C 
HETATM   29  C   UNL     1      26.475  47.589  49.656  1.00  0.00     0.006 C 
HETATM   30  O   UNL     1      23.466  43.749  51.081  1.00  0.00    -0.267 OA
HETATM   31  N   UNL     1      25.387  42.700  50.486  1.00  0.00    -0.152 N 
HETATM   32  H   UNL     1      24.986  41.786  50.664  1.00  0.00     0.188 HD
ENDBRANCH   2  21
BRANCH   4  33
HETATM   33  C   UNL     1      28.248  38.929  47.486  1.00  0.00     0.105 A 
HETATM   34  O   UNL     1      28.016  39.224  46.170  1.00  0.00    -0.320 OA
HETATM   35  C   UNL     1      28.409  38.149  45.439  1.00  0.00     0.142 A 
HETATM   36  C   UNL     1      28.885  37.156  46.260  1.00  0.00     0.027 A 
HETATM   37  C   UNL     1      28.778  37.656  47.581  1.00  0.00     0.041 A 
ENDBRANCH   4  33
TORSDOF 5
ENDMDL
MODEL 3
REMARK VINA RESULT:     -11.2      2.423      7.380
REMARK  5 active torsions:
REMARK  status: ('A' for Active; 'I' for Inactive)
REMARK    1  A    between atoms: C_5  and  C_6 
REMARK    2  A    between atoms: C_6  and  C_7 
REMARK       I    between atoms: C_7  and  N_8 
REMARK    3  A    between atoms: N_8  and  C_9 
REMARK    4  A    between atoms: N_10  and  C_11 
REMARK    5  A    between atoms: C_23  and  C_24 
ROOT
HETATM    1  C   UNL     1      27.110  43.514  51.754  1.00  0.00     0.152 C 
HETATM    2  N   UNL     1      28.257  43.190  52.475  1.00  0.00    -0.044 N 
HETATM    3  N   UNL     1      28.848  42.050  51.979  1.00  0.00    -0.148 NA
HETATM    4  C   UNL     1      27.988  41.611  51.053  1.00  0.00     0.115 C 
HETATM    5  C   UNL     1      26.853  42.438  50.937  1.00  0.00     0.087 C 
ENDROOT
BRANCH   1   6
HETATM    6  N   UNL     1      26.379  44.690  51.844  1.00  0.00    -0.311 N 
HETATM    7  C   UNL     1      26.190  45.455  50.698  1.00  0.00     0.227 C 
HETATM    8  O   UNL     1      26.636  45.162  49.586  1.00  0.00    -0.273 OA
HETATM    9  H   UNL     1      25.623  44.712  52.522  1.00  0.00     0.170 HD
BRANCH   7  10
HETATM   10  C   UNL     1      25.358  46.715  50.885  1.00  0.00     0.142 C 
BRANCH  10  11
HETATM   11  C   UNL     1      25.665  47.859  49.935  1.00  0.00    -0.038 A 
HETATM   12  C   UNL     1      24.644  48.584  49.255  1.00  0.00    -0.019 A 
HETATM   13  C   UNL     1      25.020  49.673  48.428  1.00  0.00    -0.025 A 
HETATM   14  C   UNL     1      23.263  48.293  49.362  1.00  0.00     0.013 A 
HETATM   15  C   UNL     1      24.036  50.433  47.773  1.00  0.00     0.012 A 
HETATM   16  C   UNL     1      26.374  49.994  48.265  1.00  0.00     0.012 A 
HETATM   17  C   UNL     1      22.683  50.135  47.919  1.00  0.00     0.001 A 
HETATM   18  C   UNL     1      22.297  49.064  48.711  1.00  0.00     0.001 A 
HETATM   19  C   UNL     1      27.366  49.263  48.913  1.00  0.00     0.001 A 
HETATM   20  C   UNL     1      27.014  48.207  49.745  1.00  0.00     0.008 A 
ENDBRANCH  10  11
ENDBRANCH   7  10
ENDBRANCH   1   6
BRANCH   2  21
HETATM   21  C   UNL     1      28.790  43.770  53.649  1.00  0.00     0.732 A 
HETATM   22  N   UNL     1      29.751  43.261  54.353  1.00  0.00    -0.067 NA
HETATM   23  C   UNL     1      30.107  43.947  55.493  1.00  0.00     0.065 A 
HETATM   24  C   UNL     1      29.588  45.135  55.855  1.00  0.00     0.036 A 
HETATM   25  C   UNL     1      31.128  43.244  56.360  1.00  0.00     0.060 C 
HETATM   26  C   UNL     1      29.934  45.861  57.120  1.00  0.00     0.046 C 
HETATM   27  C   UNL     1      28.571  45.745  54.966  1.00  0.00     0.268 A 
HETATM   28  C   UNL     1      30.636  44.961  58.139  1.00  0.00     0.005 C 
HETATM   29  C   UNL     1      31.715  44.120  57.469  1.00  0.00     0.006 C 
HETATM   30  O   UNL     1      28.113  46.864  55.163  1.00  0.00    -0.267 OA
HETATM   31  N   UNL     1      28.186  44.968  53.920  1.00  0.00    -0.152 N 
HETATM   32  H   UNL     1      27.489  45.321  53.273  1.00  0.00     0.188 HD
ENDBRANCH   2  21
BRANCH   4  33
HETATM   33  C   UNL     1      28.248  40.405  50.213  1.00  0.00     0.105 A 
HETATM   34  O   UNL     1      28.680  39.202  50.703  1.00  0.00    -0.320 OA
HETATM   35  C   UNL     1      28.759  38.345  49.653  1.00  0.00     0.142 A 
HETATM   36  C   UNL     1      28.393  38.974  48.488  1.00  0.00     0.027 A 
HETATM   37  C   UNL     1      28.068  40.304  48.847  1.00  0.00     0.041 A 
ENDBRANCH   4  33
TORSDOF 5
ENDMDL
MODEL 4
REMARK VINA RESULT:     -11.0      2.247      6.420
REMARK  5 active torsions:
REMARK  status: ('A' for Active; 'I' for Inactive)
REMARK    1  A    between atoms: C_5  and  C_6 
REMARK    2  A    between atoms: C_6  and  C_7 
REMARK       I    between atoms: C_7  and  N_8 
REMARK    3  A    between atoms: N_8  and  C_9 
REMARK    4  A    between atoms: N_10  and  C_11 
REMARK    5  A    between atoms: C_23  and  C_24 
ROOT
HETATM    1  C   UNL     1      25.981  45.877  51.309  1.00  0.00     0.152 C 
HETATM    2  N   UNL     1      25.975  45.259  50.060  1.00  0.00    -0.044 N 
HETATM    3  N   UNL     1      25.653  46.156  49.066  1.00  0.00    -0.148 NA
HETATM    4  C   UNL     1      25.332  47.275  49.726  1.00  0.00     0.115 C 
HETATM    5  C   UNL     1      25.436  47.126  51.123  1.00  0.00     0.087 C 
ENDROOT
BRANCH   1   6
HETATM    6  N   UNL     1      26.447  45.335  52.499  1.00  0.00    -0.311 N 
HETATM    7  C   UNL     1      25.619  44.480  53.219  1.00  0.00     0.227 C 
HETATM    8  O   UNL     1      24.478  44.167  52.875  1.00  0.00    -0.273 OA
HETATM    9  H   UNL     1      27.442  45.143  52.559  1.00  0.00     0.170 HD
BRANCH   7  10
HETATM   10  C   UNL     1      26.220  43.916  54.497  1.00  0.00     0.142 C 
BRANCH  10  11
HETATM   11  C   UNL     1      27.708  43.617  54.457  1.00  0.00    -0.038 A 
HETATM   12  C   UNL     1      28.657  44.345  55.230  1.00  0.00    -0.019 A 
HETATM   13  C   UNL     1      30.021  43.961  55.169  1.00  0.00    -0.025 A 
HETATM   14  C   UNL     1      28.322  45.430  56.075  1.00  0.00     0.013 A 
HETATM   15  C   UNL     1      30.977  44.633  55.948  1.00  0.00     0.012 A 
HETATM   16  C   UNL     1      30.416  42.909  54.333  1.00  0.00     0.012 A 
HETATM   17  C   UNL     1      30.611  45.683  56.789  1.00  0.00     0.001 A 
HETATM   18  C   UNL     1      29.284  46.082  56.850  1.00  0.00     0.001 A 
HETATM   19  C   UNL     1      29.484  42.220  53.561  1.00  0.00     0.001 A 
HETATM   20  C   UNL     1      28.141  42.568  53.624  1.00  0.00     0.008 A 
ENDBRANCH  10  11
ENDBRANCH   7  10
ENDBRANCH   1   6
BRANCH   2  21
HETATM   21  C   UNL     1      26.125  43.897  49.716  1.00  0.00     0.732 A 
HETATM   22  N   UNL     1      26.988  43.091  50.248  1.00  0.00    -0.067 NA
HETATM   23  C   UNL     1      27.018  41.807  49.750  1.00  0.00     0.065 A 
HETATM   24  C   UNL     1      26.158  41.331  48.831  1.00  0.00     0.036 A 
HETATM   25  C   UNL     1      28.135  40.945  50.295  1.00  0.00     0.060 C 
HETATM   26  C   UNL     1      26.218  39.951  48.249  1.00  0.00     0.046 C 
HETATM   27  C   UNL     1      25.109  42.247  48.326  1.00  0.00     0.268 A 
HETATM   28  C   UNL     1      27.561  39.264  48.506  1.00  0.00     0.005 C 
HETATM   29  C   UNL     1      28.003  39.459  49.951  1.00  0.00     0.006 C 
HETATM   30  O   UNL     1      24.227  41.877  47.560  1.00  0.00    -0.267 OA
HETATM   31  N   UNL     1      25.203  43.527  48.773  1.00  0.00    -0.152 N 
HETATM   32  H   UNL     1      24.520  44.209  48.464  1.00  0.00     0.188 HD
ENDBRANCH   2  21
BRANCH   4  33
HETATM   33  C   UNL     1      24.957  48.543  49.034  1.00  0.00     0.105 A 
HETATM   34  O   UNL     1      25.849  49.389  48.435  1.00  0.00    -0.320 OA
HETATM   35  C   UNL     1      25.135  50.402  47.880  1.00  0.00     0.142 A 
HETATM   36  C   UNL     1      23.792  50.231  48.118  1.00  0.00     0.027 A 
HETATM   37  C   UNL     1      23.677  49.035  48.866  1.00  0.00     0.041 A 
ENDBRANCH   4  33
TORSDOF 5
ENDMDL
MODEL 5
REMARK VINA RESULT:     -10.8      1.768      5.761
REMARK  5 active torsions:
REMARK  status: ('A' for Active; 'I' for Inactive)
REMARK    1  A    between atoms: C_5  and  C_6 
REMARK    2  A    between atoms: C_6  and  C_7 
REMARK       I    between atoms: C_7  and  N_8 
REMARK    3  A    between atoms: N_8  and  C_9 
REMARK    4  A    between atoms: N_10  and  C_11 
REMARK    5  A    between atoms: C_23  and  C_24 
ROOT
HETATM    1  C   UNL     1      26.553  44.384  50.592  1.00  0.00     0.152 C 
HETATM    2  N   UNL     1      26.248  43.504  49.557  1.00  0.00    -0.044 N 
HETATM    3  N   UNL     1      25.149  43.934  48.848  1.00  0.00    -0.148 NA
HETATM    4  C   UNL     1      24.710  44.994  49.537  1.00  0.00     0.115 C 
HETATM    5  C   UNL     1      25.495  45.260  50.676  1.00  0.00     0.087 C 
ENDROOT
BRANCH   1   6
HETATM    6  N   UNL     1      27.697  44.375  51.379  1.00  0.00    -0.311 N 
HETATM    7  C   UNL     1      27.668  43.711  52.600  1.00  0.00     0.227 C 
HETATM    8  O   UNL     1      26.681  43.124  53.048  1.00  0.00    -0.273 OA
HETATM    9  H   UNL     1      28.588  44.373  50.894  1.00  0.00     0.170 HD
BRANCH   7  10
HETATM   10  C   UNL     1      28.971  43.733  53.384  1.00  0.00     0.142 C 
BRANCH  10  11
HETATM   11  C   UNL     1      28.985  44.609  54.625  1.00  0.00    -0.038 A 
HETATM   12  C   UNL     1      29.882  44.387  55.709  1.00  0.00    -0.019 A 
HETATM   13  C   UNL     1      29.861  45.288  56.804  1.00  0.00    -0.025 A 
HETATM   14  C   UNL     1      30.814  43.322  55.759  1.00  0.00     0.013 A 
HETATM   15  C   UNL     1      30.758  45.121  57.872  1.00  0.00     0.012 A 
HETATM   16  C   UNL     1      28.945  46.348  56.822  1.00  0.00     0.012 A 
HETATM   17  C   UNL     1      31.680  44.076  57.878  1.00  0.00     0.001 A 
HETATM   18  C   UNL     1      31.706  43.175  56.824  1.00  0.00     0.001 A 
HETATM   19  C   UNL     1      28.053  46.540  55.769  1.00  0.00     0.001 A 
HETATM   20  C   UNL     1      28.075  45.681  54.678  1.00  0.00     0.008 A 
ENDBRANCH  10  11
ENDBRANCH   7  10
ENDBRANCH   1   6
BRANCH   2  21
HETATM   21  C   UNL     1      26.808  42.246  49.234  1.00  0.00     0.732 A 
HETATM   22  N   UNL     1      27.410  41.468  50.076  1.00  0.00    -0.067 NA
HETATM   23  C   UNL     1      27.932  40.300  49.568  1.00  0.00     0.065 A 
HETATM   24  C   UNL     1      27.773  39.889  48.295  1.00  0.00     0.036 A 
HETATM   25  C   UNL     1      28.752  39.493  50.550  1.00  0.00     0.060 C 
HETATM   26  C   UNL     1      28.382  38.645  47.724  1.00  0.00     0.046 C 
HETATM   27  C   UNL     1      26.981  40.750  47.386  1.00  0.00     0.268 A 
HETATM   28  C   UNL     1      29.504  38.086  48.600  1.00  0.00     0.005 C 
HETATM   29  C   UNL     1      29.098  38.083  50.068  1.00  0.00     0.006 C 
HETATM   30  O   UNL     1      26.704  40.416  46.240  1.00  0.00    -0.267 OA
HETATM   31  N   UNL     1      26.588  41.937  47.919  1.00  0.00    -0.152 N 
HETATM   32  H   UNL     1      26.046  42.578  47.350  1.00  0.00     0.188 HD
ENDBRANCH   2  21
BRANCH   4  33
HETATM   33  C   UNL     1      23.543  45.816  49.100  1.00  0.00     0.105 A 
HETATM   34  O   UNL     1      22.376  45.299  48.608  1.00  0.00    -0.320 OA
HETATM   35  C   UNL     1      21.544  46.345  48.363  1.00  0.00     0.142 A 
HETATM   36  C   UNL     1      22.156  47.533  48.681  1.00  0.00     0.027 A 
HETATM   37  C   UNL     1      23.448  47.193  49.152  1.00  0.00     0.041 A 
ENDBRANCH   4  33
TORSDOF 5
ENDMDL
MODEL 6
REMARK VINA RESULT:     -10.6      2.796      6.729
REMARK  5 active torsions:
REMARK  status: ('A' for Active; 'I' for Inactive)
REMARK    1  A    between atoms: C_5  and  C_6 
REMARK    2  A    between atoms: C_6  and  C_7 
REMARK       I    between atoms: C_7  and  N_8 
REMARK    3  A    between atoms: N_8  and  C_9 
REMARK    4  A    between atoms: N_10  and  C_11 
REMARK    5  A    between atoms: C_23  and  C_24 
ROOT
HETATM    1  C   UNL     1      25.147  46.177  50.506  1.00  0.00     0.152 C 
HETATM    2  N   UNL     1      24.470  45.639  49.415  1.00  0.00    -0.044 N 
HETATM    3  N   UNL     1      23.696  46.593  48.793  1.00  0.00    -0.148 NA
HETATM    4  C   UNL     1      23.799  47.666  49.586  1.00  0.00     0.115 C 
HETATM    5  C   UNL     1      24.618  47.431  50.708  1.00  0.00     0.087 C 
ENDROOT
BRANCH   1   6
HETATM    6  N   UNL     1      26.156  45.566  51.239  1.00  0.00    -0.311 N 
HETATM    7  C   UNL     1      25.808  44.716  52.284  1.00  0.00     0.227 C 
HETATM    8  O   UNL     1      24.648  44.465  52.617  1.00  0.00    -0.273 OA
HETATM    9  H   UNL     1      27.008  45.331  50.741  1.00  0.00     0.170 HD
BRANCH   7  10
HETATM   10  C   UNL     1      26.975  44.073  53.016  1.00  0.00     0.142 C 
BRANCH  10  11
HETATM   11  C   UNL     1      27.611  44.908  54.114  1.00  0.00    -0.038 A 
HETATM   12  C   UNL     1      28.796  44.505  54.794  1.00  0.00    -0.019 A 
HETATM   13  C   UNL     1      29.349  45.373  55.769  1.00  0.00    -0.025 A 
HETATM   14  C   UNL     1      29.472  43.286  54.548  1.00  0.00     0.013 A 
HETATM   15  C   UNL     1      30.538  45.024  56.431  1.00  0.00     0.012 A 
HETATM   16  C   UNL     1      28.712  46.584  56.072  1.00  0.00     0.012 A 
HETATM   17  C   UNL     1      31.193  43.827  56.148  1.00  0.00     0.001 A 
HETATM   18  C   UNL     1      30.658  42.957  55.209  1.00  0.00     0.001 A 
HETATM   19  C   UNL     1      27.539  46.957  55.420  1.00  0.00     0.001 A 
HETATM   20  C   UNL     1      26.995  46.128  54.446  1.00  0.00     0.008 A 
ENDBRANCH  10  11
ENDBRANCH   7  10
ENDBRANCH   1   6
BRANCH   2  21
HETATM   21  C   UNL     1      24.382  44.302  48.964  1.00  0.00     0.732 A 
HETATM   22  N   UNL     1      25.316  43.415  49.097  1.00  0.00    -0.067 NA
HETATM   23  C   UNL     1      25.067  42.175  48.553  1.00  0.00     0.065 A 
HETATM   24  C   UNL     1      23.898  41.815  47.989  1.00  0.00     0.036 A 
HETATM   25  C   UNL     1      26.237  41.218  48.599  1.00  0.00     0.060 C 
HETATM   26  C   UNL     1      23.639  40.485  47.350  1.00  0.00     0.046 C 
HETATM   27  C   UNL     1      22.809  42.820  47.956  1.00  0.00     0.268 A 
HETATM   28  C   UNL     1      24.927  39.714  47.057  1.00  0.00     0.005 C 
HETATM   29  C   UNL     1      25.878  39.772  48.247  1.00  0.00     0.006 C 
HETATM   30  O   UNL     1      21.684  42.556  47.550  1.00  0.00    -0.267 OA
HETATM   31  N   UNL     1      23.155  44.054  48.408  1.00  0.00    -0.152 N 
HETATM   32  H   UNL     1      22.460  44.792  48.410  1.00  0.00     0.188 HD
ENDBRANCH   2  21
BRANCH   4  33
HETATM   33  C   UNL     1      23.148  48.971  49.271  1.00  0.00     0.105 A 
HETATM   34  O   UNL     1      23.800  50.174  49.247  1.00  0.00    -0.320 OA
HETATM   35  C   UNL     1      22.894  51.117  48.880  1.00  0.00     0.142 A 
HETATM   36  C   UNL     1      21.662  50.547  48.674  1.00  0.00     0.027 A 
HETATM   37  C   UNL     1      21.823  49.163  48.930  1.00  0.00     0.041 A 
ENDBRANCH   4  33
TORSDOF 5
ENDMDL
MODEL 7
REMARK VINA RESULT:     -10.4      2.781      8.015
REMARK  5 active torsions:
REMARK  status: ('A' for Active; 'I' for Inactive)
REMARK    1  A    between atoms: C_5  and  C_6 
REMARK    2  A    between atoms: C_6  and  C_7 
REMARK       I    between atoms: C_7  and  N_8 
REMARK    3  A    between atoms: N_8  and  C_9 
REMARK    4  A    between atoms: N_10  and  C_11 
REMARK    5  A    between atoms: C_23  and  C_24 
ROOT
HETATM    1  C   UNL     1      24.604  45.499  50.712  1.00  0.00     0.152 C 
HETATM    2  N   UNL     1      25.133  46.493  51.532  1.00  0.00    -0.044 N 
HETATM    3  N   UNL     1      24.791  47.746  51.074  1.00  0.00    -0.148 NA
HETATM    4  C   UNL     1      24.176  47.513  49.909  1.00  0.00     0.115 C 
HETATM    5  C   UNL     1      24.112  46.140  49.598  1.00  0.00     0.087 C 
ENDROOT
BRANCH   1   6
HETATM    6  N   UNL     1      24.579  44.136  50.972  1.00  0.00    -0.311 N 
HETATM    7  C   UNL     1      25.458  43.304  50.288  1.00  0.00     0.227 C 
HETATM    8  O   UNL     1      26.270  43.694  49.446  1.00  0.00    -0.273 OA
HETATM    9  H   UNL     1      24.346  43.853  51.919  1.00  0.00     0.170 HD
BRANCH   7  10
HETATM   10  C   UNL     1      25.377  41.830  50.653  1.00  0.00     0.142 C 
BRANCH  10  11
HETATM   11  C   UNL     1      26.701  41.143  50.941  1.00  0.00    -0.038 A 
HETATM   12  C   UNL     1      27.232  40.121  50.102  1.00  0.00    -0.019 A 
HETATM   13  C   UNL     1      28.501  39.573  50.419  1.00  0.00    -0.025 A 
HETATM   14  C   UNL     1      26.574  39.620  48.954  1.00  0.00     0.013 A 
HETATM   15  C   UNL     1      29.071  38.591  49.593  1.00  0.00     0.012 A 
HETATM   16  C   UNL     1      29.190  40.013  51.557  1.00  0.00     0.012 A 
HETATM   17  C   UNL     1      28.407  38.137  48.455  1.00  0.00     0.001 A 
HETATM   18  C   UNL     1      27.158  38.649  48.137  1.00  0.00     0.001 A 
HETATM   19  C   UNL     1      28.650  40.994  52.385  1.00  0.00     0.001 A 
HETATM   20  C   UNL     1      27.418  41.558  52.078  1.00  0.00     0.008 A 
ENDBRANCH  10  11
ENDBRANCH   7  10
ENDBRANCH   1   6
BRANCH   2  21
HETATM   21  C   UNL     1      26.018  46.395  52.629  1.00  0.00     0.732 A 
HETATM   22  N   UNL     1      26.930  45.485  52.763  1.00  0.00    -0.067 NA
HETATM   23  C   UNL     1      27.669  45.523  53.925  1.00  0.00     0.065 A 
HETATM   24  C   UNL     1      27.561  46.485  54.861  1.00  0.00     0.036 A 
HETATM   25  C   UNL     1      28.619  44.360  54.108  1.00  0.00     0.060 C 
HETATM   26  C   UNL     1      28.325  46.502  56.150  1.00  0.00     0.046 C 
HETATM   27  C   UNL     1      26.586  47.575  54.622  1.00  0.00     0.268 A 
HETATM   28  C   UNL     1      28.951  45.146  56.479  1.00  0.00     0.005 C 
HETATM   29  C   UNL     1      29.620  44.543  55.250  1.00  0.00     0.006 C 
HETATM   30  O   UNL     1      26.484  48.540  55.369  1.00  0.00    -0.267 OA
HETATM   31  N   UNL     1      25.814  47.420  53.514  1.00  0.00    -0.152 N 
HETATM   32  H   UNL     1      25.122  48.127  53.292  1.00  0.00     0.188 HD
ENDBRANCH   2  21
BRANCH   4  33
HETATM   33  C   UNL     1      23.588  48.600  49.073  1.00  0.00     0.105 A 
HETATM   34  O   UNL     1      22.246  48.782  48.874  1.00  0.00    -0.320 OA
HETATM   35  C   UNL     1      22.099  49.888  48.100  1.00  0.00     0.142 A 
HETATM   36  C   UNL     1      23.325  50.423  47.786  1.00  0.00     0.027 A 
HETATM   37  C   UNL     1      24.286  49.590  48.409  1.00  0.00     0.041 A 
ENDBRANCH   4  33
TORSDOF 5
ENDMDL
MODEL 8
REMARK VINA RESULT:     -10.4      2.165      5.902
REMARK  5 active torsions:
REMARK  status: ('A' for Active; 'I' for Inactive)
REMARK    1  A    between atoms: C_5  and  C_6 
REMARK    2  A    between atoms: C_6  and  C_7 
REMARK       I    between atoms: C_7  and  N_8 
REMARK    3  A    between atoms: N_8  and  C_9 
REMARK    4  A    between atoms: N_10  and  C_11 
REMARK    5  A    between atoms: C_23  and  C_24 
ROOT
HETATM    1  C   UNL     1      25.014  43.160  50.783  1.00  0.00     0.152 C 
HETATM    2  N   UNL     1      25.105  42.633  49.497  1.00  0.00    -0.044 N 
HETATM    3  N   UNL     1      24.202  43.235  48.650  1.00  0.00    -0.148 NA
HETATM    4  C   UNL     1      23.477  44.024  49.452  1.00  0.00     0.115 C 
HETATM    5  C   UNL     1      23.885  43.946  50.798  1.00  0.00     0.087 C 
ENDROOT
BRANCH   1   6
HETATM    6  N   UNL     1      25.892  42.935  51.834  1.00  0.00    -0.311 N 
HETATM    7  C   UNL     1      27.169  43.483  51.773  1.00  0.00     0.227 C 
HETATM    8  O   UNL     1      27.589  44.162  50.834  1.00  0.00    -0.273 OA
HETATM    9  H   UNL     1      25.488  42.853  52.762  1.00  0.00     0.170 HD
BRANCH   7  10
HETATM   10  C   UNL     1      28.055  43.204  52.977  1.00  0.00     0.142 C 
BRANCH  10  11
HETATM   11  C   UNL     1      28.196  44.341  53.975  1.00  0.00    -0.038 A 
HETATM   12  C   UNL     1      29.196  44.349  54.990  1.00  0.00    -0.019 A 
HETATM   13  C   UNL     1      29.287  45.477  55.844  1.00  0.00    -0.025 A 
HETATM   14  C   UNL     1      30.123  43.299  55.194  1.00  0.00     0.013 A 
HETATM   15  C   UNL     1      30.286  45.535  56.831  1.00  0.00     0.012 A 
HETATM   16  C   UNL     1      28.382  46.537  55.704  1.00  0.00     0.012 A 
HETATM   17  C   UNL     1      31.199  44.495  56.990  1.00  0.00     0.001 A 
HETATM   18  C   UNL     1      31.116  43.376  56.174  1.00  0.00     0.001 A 
HETATM   19  C   UNL     1      27.391  46.508  54.726  1.00  0.00     0.001 A 
HETATM   20  C   UNL     1      27.301  45.420  53.866  1.00  0.00     0.008 A 
ENDBRANCH  10  11
ENDBRANCH   7  10
ENDBRANCH   1   6
BRANCH   2  21
HETATM   21  C   UNL     1      25.866  41.547  49.007  1.00  0.00     0.732 A 
HETATM   22  N   UNL     1      25.805  40.336  49.464  1.00  0.00    -0.067 NA
HETATM   23  C   UNL     1      26.657  39.420  48.891  1.00  0.00     0.065 A 
HETATM   24  C   UNL     1      27.463  39.684  47.845  1.00  0.00     0.036 A 
HETATM   25  C   UNL     1      26.659  38.059  49.551  1.00  0.00     0.060 C 
HETATM   26  C   UNL     1      28.430  38.706  47.251  1.00  0.00     0.046 C 
HETATM   27  C   UNL     1      27.425  41.051  47.273  1.00  0.00     0.268 A 
HETATM   28  C   UNL     1      28.694  37.511  48.169  1.00  0.00     0.005 C 
HETATM   29  C   UNL     1      27.393  36.977  48.755  1.00  0.00     0.006 C 
HETATM   30  O   UNL     1      28.050  41.358  46.265  1.00  0.00    -0.267 OA
HETATM   31  N   UNL     1      26.647  41.934  47.951  1.00  0.00    -0.152 N 
HETATM   32  H   UNL     1      26.579  42.889  47.617  1.00  0.00     0.188 HD
ENDBRANCH   2  21
BRANCH   4  33
HETATM   33  C   UNL     1      22.392  44.915  48.945  1.00  0.00     0.105 A 
HETATM   34  O   UNL     1      21.094  44.524  48.761  1.00  0.00    -0.320 OA
HETATM   35  C   UNL     1      20.401  45.611  48.335  1.00  0.00     0.142 A 
HETATM   36  C   UNL     1      21.231  46.701  48.230  1.00  0.00     0.027 A 
HETATM   37  C   UNL     1      22.517  46.252  48.619  1.00  0.00     0.041 A 
ENDBRANCH   4  33
TORSDOF 5
ENDMDL
MODEL 9
REMARK VINA RESULT:     -10.2      3.353      4.683
REMARK  5 active torsions:
REMARK  status: ('A' for Active; 'I' for Inactive)
REMARK    1  A    between atoms: C_5  and  C_6 
REMARK    2  A    between atoms: C_6  and  C_7 
REMARK       I    between atoms: C_7  and  N_8 
REMARK    3  A    between atoms: N_8  and  C_9 
REMARK    4  A    between atoms: N_10  and  C_11 
REMARK    5  A    between atoms: C_23  and  C_24 
ROOT
HETATM    1  C   UNL     1      24.277  44.105  49.306  1.00  0.00     0.152 C 
HETATM    2  N   UNL     1      23.047  44.610  48.888  1.00  0.00    -0.044 N 
HETATM    3  N   UNL     1      22.291  43.631  48.282  1.00  0.00    -0.148 NA
HETATM    4  C   UNL     1      23.114  42.579  48.212  1.00  0.00     0.115 C 
HETATM    5  C   UNL     1      24.385  42.850  48.755  1.00  0.00     0.087 C 
ENDROOT
BRANCH   1   6
HETATM    6  N   UNL     1      25.202  44.746  50.119  1.00  0.00    -0.311 N 
HETATM    7  C   UNL     1      25.193  44.484  51.485  1.00  0.00     0.227 C 
HETATM    8  O   UNL     1      24.406  43.714  52.039  1.00  0.00    -0.273 OA
HETATM    9  H   UNL     1      26.110  44.948  49.712  1.00  0.00     0.170 HD
BRANCH   7  10
HETATM   10  C   UNL     1      26.255  45.212  52.294  1.00  0.00     0.142 C 
BRANCH  10  11
HETATM   11  C   UNL     1      27.463  44.385  52.701  1.00  0.00    -0.038 A 
HETATM   12  C   UNL     1      28.249  44.691  53.849  1.00  0.00    -0.019 A 
HETATM   13  C   UNL     1      29.327  43.832  54.182  1.00  0.00    -0.025 A 
HETATM   14  C   UNL     1      28.012  45.800  54.696  1.00  0.00     0.013 A 
HETATM   15  C   UNL     1      30.098  44.082  55.330  1.00  0.00     0.012 A 
HETATM   16  C   UNL     1      29.623  42.731  53.369  1.00  0.00     0.012 A 
HETATM   17  C   UNL     1      29.824  45.170  56.156  1.00  0.00     0.001 A 
HETATM   18  C   UNL     1      28.783  46.030  55.838  1.00  0.00     0.001 A 
HETATM   19  C   UNL     1      28.865  42.456  52.233  1.00  0.00     0.001 A 
HETATM   20  C   UNL     1      27.792  43.274  51.904  1.00  0.00     0.008 A 
ENDBRANCH  10  11
ENDBRANCH   7  10
ENDBRANCH   1   6
BRANCH   2  21
HETATM   21  C   UNL     1      22.556  45.935  48.894  1.00  0.00     0.732 A 
HETATM   22  N   UNL     1      23.295  46.998  48.868  1.00  0.00    -0.067 NA
HETATM   23  C   UNL     1      22.637  48.206  48.926  1.00  0.00     0.065 A 
HETATM   24  C   UNL     1      21.298  48.340  48.913  1.00  0.00     0.036 A 
HETATM   25  C   UNL     1      23.542  49.413  49.043  1.00  0.00     0.060 C 
HETATM   26  C   UNL     1      20.577  49.649  49.027  1.00  0.00     0.046 C 
HETATM   27  C   UNL     1      20.481  47.107  48.826  1.00  0.00     0.268 A 
HETATM   28  C   UNL     1      21.479  50.773  49.539  1.00  0.00     0.005 C 
HETATM   29  C   UNL     1      22.829  50.751  48.834  1.00  0.00     0.006 C 
HETATM   30  O   UNL     1      19.261  47.134  48.714  1.00  0.00    -0.267 OA
HETATM   31  N   UNL     1      21.186  45.948  48.884  1.00  0.00    -0.152 N 
HETATM   32  H   UNL     1      20.690  45.065  48.835  1.00  0.00     0.188 HD
ENDBRANCH   2  21
BRANCH   4  33
HETATM   33  C   UNL     1      22.692  41.258  47.658  1.00  0.00     0.105 A 
HETATM   34  O   UNL     1      21.393  40.901  47.416  1.00  0.00    -0.320 OA
HETATM   35  C   UNL     1      21.410  39.654  46.879  1.00  0.00     0.142 A 
HETATM   36  C   UNL     1      22.700  39.192  46.776  1.00  0.00     0.027 A 
HETATM   37  C   UNL     1      23.527  40.224  47.283  1.00  0.00     0.041 A 
ENDBRANCH   4  33
TORSDOF 5
ENDMDL
MODEL 10
REMARK VINA RESULT:     -10.1      2.534      8.215
REMARK  5 active torsions:
REMARK  status: ('A' for Active; 'I' for Inactive)
REMARK    1  A    between atoms: C_5  and  C_6 
REMARK    2  A    between atoms: C_6  and  C_7 
REMARK       I    between atoms: C_7  and  N_8 
REMARK    3  A    between atoms: N_8  and  C_9 
REMARK    4  A    between atoms: N_10  and  C_11 
REMARK    5  A    between atoms: C_23  and  C_24 
ROOT
HETATM    1  C   UNL     1      24.942  44.693  50.450  1.00  0.00     0.152 C 
HETATM    2  N   UNL     1      25.674  45.493  51.324  1.00  0.00    -0.044 N 
HETATM    3  N   UNL     1      25.379  46.826  51.139  1.00  0.00    -0.148 NA
HETATM    4  C   UNL     1      24.578  46.838  50.068  1.00  0.00     0.115 C 
HETATM    5  C   UNL     1      24.348  45.548  49.551  1.00  0.00     0.087 C 
ENDROOT
BRANCH   1   6
HETATM    6  N   UNL     1      24.837  43.309  50.485  1.00  0.00    -0.311 N 
HETATM    7  C   UNL     1      25.746  42.547  49.759  1.00  0.00     0.227 C 
HETATM    8  O   UNL     1      26.652  43.018  49.069  1.00  0.00    -0.273 OA
HETATM    9  H   UNL     1      24.500  42.895  51.348  1.00  0.00     0.170 HD
BRANCH   7  10
HETATM   10  C   UNL     1      25.570  41.040  49.873  1.00  0.00     0.142 C 
BRANCH  10  11
HETATM   11  C   UNL     1      26.206  40.212  48.770  1.00  0.00    -0.038 A 
HETATM   12  C   UNL     1      27.417  39.486  48.959  1.00  0.00    -0.019 A 
HETATM   13  C   UNL     1      27.910  38.697  47.889  1.00  0.00    -0.025 A 
HETATM   14  C   UNL     1      28.162  39.491  50.163  1.00  0.00     0.013 A 
HETATM   15  C   UNL     1      29.081  37.938  48.054  1.00  0.00     0.012 A 
HETATM   16  C   UNL     1      27.227  38.670  46.666  1.00  0.00     0.012 A 
HETATM   17  C   UNL     1      29.778  37.946  49.261  1.00  0.00     0.001 A 
HETATM   18  C   UNL     1      29.320  38.725  50.314  1.00  0.00     0.001 A 
HETATM   19  C   UNL     1      26.058  39.404  46.483  1.00  0.00     0.001 A 
HETATM   20  C   UNL     1      25.549  40.166  47.527  1.00  0.00     0.008 A 
ENDBRANCH  10  11
ENDBRANCH   7  10
ENDBRANCH   1   6
BRANCH   2  21
HETATM   21  C   UNL     1      26.702  45.150  52.232  1.00  0.00     0.732 A 
HETATM   22  N   UNL     1      27.626  44.272  52.003  1.00  0.00    -0.067 NA
HETATM   23  C   UNL     1      28.517  44.038  53.027  1.00  0.00     0.065 A 
HETATM   24  C   UNL     1      28.536  44.723  54.186  1.00  0.00     0.036 A 
HETATM   25  C   UNL     1      29.486  42.904  52.774  1.00  0.00     0.060 C 
HETATM   26  C   UNL     1      29.470  44.438  55.323  1.00  0.00     0.046 C 
HETATM   27  C   UNL     1      27.535  45.800  54.369  1.00  0.00     0.268 A 
HETATM   28  C   UNL     1      30.139  43.067  55.203  1.00  0.00     0.005 C 
HETATM   29  C   UNL     1      30.635  42.826  53.782  1.00  0.00     0.006 C 
HETATM   30  O   UNL     1      27.535  46.536  55.348  1.00  0.00    -0.267 OA
HETATM   31  N   UNL     1      26.619  45.905  53.371  1.00  0.00    -0.152 N 
HETATM   32  H   UNL     1      25.901  46.618  53.434  1.00  0.00     0.188 HD
ENDBRANCH   2  21
BRANCH   4  33
HETATM   33  C   UNL     1      23.969  48.089  49.528  1.00  0.00     0.105 A 
HETATM   34  O   UNL     1      24.663  49.241  49.279  1.00  0.00    -0.320 OA
HETATM   35  C   UNL     1      23.786  50.137  48.757  1.00  0.00     0.142 A 
HETATM   36  C   UNL     1      22.530  49.587  48.671  1.00  0.00     0.027 A 
HETATM   37  C   UNL     1      22.646  48.268  49.173  1.00  0.00     0.041 A 
ENDBRANCH   4  33
TORSDOF 5
ENDMDL
