MODEL 1
REMARK VINA RESULT:      -9.1      0.000      0.000
REMARK  7 active torsions:
REMARK  status: ('A' for Active; 'I' for Inactive)
REMARK    1  A    between atoms: C_2  and  N_3 
REMARK    2  A    between atoms: N_7  and  C_8 
REMARK    3  A    between atoms: C_9  and  N_10 
REMARK       I    between atoms: N_10  and  C_11 
REMARK    4  A    between atoms: C_11  and  C_12 
REMARK    5  A    between atoms: C_15  and  C_16 
REMARK    6  A    between atoms: C_16  and  O_17 
REMARK    7  A    between atoms: O_17  and  C_18 
ROOT
HETATM    1  N   UNL     1      23.509  47.931  49.924  1.00  0.00    -0.321 N 
HETATM    2  C   UNL     1      24.884  47.833  49.893  1.00  0.00     0.256 C 
HETATM    3  O   UNL     1      25.636  48.453  49.151  1.00  0.00    -0.267 OA
HETATM    4  H   UNL     1      22.980  47.187  50.363  1.00  0.00     0.169 HD
ENDROOT
BRANCH   1   5
HETATM    5  C   UNL     1      22.734  48.844  49.173  1.00  0.00     0.061 A 
HETATM    6  C   UNL     1      21.544  48.366  48.557  1.00  0.00     0.057 A 
HETATM    7  C   UNL     1      20.676  49.338  48.026  1.00  0.00     0.031 A 
HETATM    8  C   UNL     1      21.015  50.696  48.005  1.00  0.00     0.002 A 
HETATM    9  C   UNL     1      22.226  51.122  48.530  1.00  0.00     0.002 A 
HETATM   10  C   UNL     1      23.081  50.200  49.123  1.00  0.00     0.032 A 
BRANCH   6  11
HETATM   11  N   UNL     1      21.285  46.976  48.461  1.00  0.00    -0.376 N 
HETATM   12  C   UNL     1      21.898  46.314  47.275  1.00  0.00     0.150 C 
HETATM   13  C   UNL     1      20.995  46.416  46.034  1.00  0.00     0.254 C 
HETATM   14  N   UNL     1      19.624  45.803  46.324  1.00  0.00    -0.068 N 
HETATM   15  H   UNL     1      19.775  44.821  46.590  1.00  0.00     0.280 HD
HETATM   16  C   UNL     1      18.987  46.494  47.536  1.00  0.00     0.254 C 
HETATM   17  C   UNL     1      19.930  46.467  48.766  1.00  0.00     0.150 C 
BRANCH  14  18
HETATM   18  C   UNL     1      18.703  45.830  45.128  1.00  0.00     0.230 C 
HETATM   19  C   UNL     1      18.128  47.220  44.920  1.00  0.00     0.034 C 
ENDBRANCH  14  18
ENDBRANCH   6  11
ENDBRANCH   1   5
BRANCH   2  20
HETATM   20  C   UNL     1      25.441  46.764  50.756  1.00  0.00     0.032 A 
HETATM   21  C   UNL     1      25.398  46.935  52.142  1.00  0.00     0.017 A 
HETATM   22  C   UNL     1      25.916  45.947  52.980  1.00  0.00     0.010 A 
HETATM   23  C   UNL     1      26.461  44.771  52.441  1.00  0.00    -0.034 A 
HETATM   24  C   UNL     1      26.489  44.605  51.048  1.00  0.00     0.010 A 
HETATM   25  C   UNL     1      25.984  45.600  50.205  1.00  0.00     0.017 A 
BRANCH  23  26
HETATM   26  C   UNL     1      26.959  43.681  53.363  1.00  0.00     0.214 C 
BRANCH  26  27
HETATM   27  O   UNL     1      28.377  43.635  53.245  1.00  0.00    -0.347 OA
BRANCH  27  28
HETATM   28  C   UNL     1      29.110  44.018  54.333  1.00  0.00     0.069 A 
HETATM   29  C   UNL     1      28.929  45.181  55.081  1.00  0.00     0.037 A 
HETATM   30  C   UNL     1      29.761  45.448  56.174  1.00  0.00     0.003 A 
HETATM   31  C   UNL     1      30.773  44.555  56.522  1.00  0.00     0.000 A 
HETATM   32  C   UNL     1      30.956  43.392  55.779  1.00  0.00     0.003 A 
HETATM   33  C   UNL     1      30.126  43.126  54.690  1.00  0.00     0.037 A 
ENDBRANCH  27  28
ENDBRANCH  26  27
ENDBRANCH  23  26
ENDBRANCH   2  20
TORSDOF 7
ENDMDL
MODEL 2
REMARK VINA RESULT:      -8.8      1.457      2.003
REMARK  7 active torsions:
REMARK  status: ('A' for Active; 'I' for Inactive)
REMARK    1  A    between atoms: C_2  and  N_3 
REMARK    2  A    between atoms: N_7  and  C_8 
REMARK    3  A    between atoms: C_9  and  N_10 
REMARK       I    between atoms: N_10  and  C_11 
REMARK    4  A    between atoms: C_11  and  C_12 
REMARK    5  A    between atoms: C_15  and  C_16 
REMARK    6  A    between atoms: C_16  and  O_17 
REMARK    7  A    between atoms: O_17  and  C_18 
ROOT
HETATM    1  N   UNL     1      22.055  48.458  49.476  1.00  0.00    -0.321 N 
HETATM    2  C   UNL     1      23.336  48.185  49.045  1.00  0.00     0.256 C 
HETATM    3  O   UNL     1      23.871  48.634  48.039  1.00  0.00    -0.267 OA
HETATM    4  H   UNL     1      21.624  47.829  50.144  1.00  0.00     0.169 HD
ENDROOT
BRANCH   1   5
HETATM    5  C   UNL     1      21.170  49.387  48.884  1.00  0.00     0.061 A 
HETATM    6  C   UNL     1      19.999  48.888  48.247  1.00  0.00     0.057 A 
HETATM    7  C   UNL     1      19.027  49.836  47.884  1.00  0.00     0.031 A 
HETATM    8  C   UNL     1      19.244  51.211  48.039  1.00  0.00     0.002 A 
HETATM    9  C   UNL     1      20.436  51.674  48.577  1.00  0.00     0.002 A 
HETATM   10  C   UNL     1      21.395  50.764  49.009  1.00  0.00     0.032 A 
BRANCH   6  11
HETATM   11  N   UNL     1      19.860  47.504  47.969  1.00  0.00    -0.376 N 
HETATM   12  C   UNL     1      20.258  47.109  46.589  1.00  0.00     0.150 C 
HETATM   13  C   UNL     1      19.100  47.274  45.590  1.00  0.00     0.254 C 
HETATM   14  N   UNL     1      17.890  46.453  46.041  1.00  0.00    -0.068 N 
HETATM   15  H   UNL     1      18.188  45.471  46.099  1.00  0.00     0.280 HD
HETATM   16  C   UNL     1      17.471  46.871  47.456  1.00  0.00     0.254 C 
HETATM   17  C   UNL     1      18.658  46.786  48.448  1.00  0.00     0.150 C 
BRANCH  14  18
HETATM   18  C   UNL     1      16.731  46.537  45.076  1.00  0.00     0.230 C 
HETATM   19  C   UNL     1      15.883  47.764  45.356  1.00  0.00     0.034 C 
ENDBRANCH  14  18
ENDBRANCH   6  11
ENDBRANCH   1   5
BRANCH   2  20
HETATM   20  C   UNL     1      24.035  47.138  49.829  1.00  0.00     0.032 A 
HETATM   21  C   UNL     1      23.720  45.799  49.585  1.00  0.00     0.017 A 
HETATM   22  C   UNL     1      24.359  44.793  50.309  1.00  0.00     0.010 A 
HETATM   23  C   UNL     1      25.333  45.115  51.267  1.00  0.00    -0.034 A 
HETATM   24  C   UNL     1      25.650  46.463  51.496  1.00  0.00     0.010 A 
HETATM   25  C   UNL     1      25.000  47.474  50.783  1.00  0.00     0.017 A 
BRANCH  23  26
HETATM   26  C   UNL     1      26.065  44.011  51.997  1.00  0.00     0.214 C 
BRANCH  26  27
HETATM   27  O   UNL     1      27.455  44.171  51.735  1.00  0.00    -0.347 OA
BRANCH  27  28
HETATM   28  C   UNL     1      28.317  43.972  52.776  1.00  0.00     0.069 A 
HETATM   29  C   UNL     1      28.273  44.608  54.017  1.00  0.00     0.037 A 
HETATM   30  C   UNL     1      29.228  44.307  54.993  1.00  0.00     0.003 A 
HETATM   31  C   UNL     1      30.227  43.370  54.734  1.00  0.00     0.000 A 
HETATM   32  C   UNL     1      30.275  42.732  53.497  1.00  0.00     0.003 A 
HETATM   33  C   UNL     1      29.321  43.032  52.524  1.00  0.00     0.037 A 
ENDBRANCH  27  28
ENDBRANCH  26  27
ENDBRANCH  23  26
ENDBRANCH   2  20
TORSDOF 7
ENDMDL
MODEL 3
REMARK VINA RESULT:      -8.8      1.696      3.466
REMARK  7 active torsions:
REMARK  status: ('A' for Active; 'I' for Inactive)
REMARK    1  A    between atoms: C_2  and  N_3 
REMARK    2  A    between atoms: N_7  and  C_8 
REMARK    3  A    between atoms: C_9  and  N_10 
REMARK       I    between atoms: N_10  and  C_11 
REMARK    4  A    between atoms: C_11  and  C_12 
REMARK    5  A    between atoms: C_15  and  C_16 
REMARK    6  A    between atoms: C_16  and  O_17 
REMARK    7  A    between atoms: O_17  and  C_18 
ROOT
HETATM    1  N   UNL     1      22.692  46.138  49.391  1.00  0.00    -0.321 N 
HETATM    2  C   UNL     1      23.938  46.703  49.568  1.00  0.00     0.256 C 
HETATM    3  O   UNL     1      24.539  47.396  48.756  1.00  0.00    -0.267 OA
HETATM    4  H   UNL     1      22.418  45.370  49.992  1.00  0.00     0.169 HD
ENDROOT
BRANCH   1   5
HETATM    5  C   UNL     1      21.846  46.348  48.278  1.00  0.00     0.061 A 
HETATM    6  C   UNL     1      21.135  47.578  48.198  1.00  0.00     0.057 A 
HETATM    7  C   UNL     1      20.499  47.859  46.975  1.00  0.00     0.031 A 
HETATM    8  C   UNL     1      20.473  46.930  45.927  1.00  0.00     0.002 A 
HETATM    9  C   UNL     1      21.097  45.699  46.069  1.00  0.00     0.002 A 
HETATM   10  C   UNL     1      21.792  45.411  47.238  1.00  0.00     0.032 A 
BRANCH   6  11
HETATM   11  N   UNL     1      21.053  48.442  49.318  1.00  0.00    -0.376 N 
HETATM   12  C   UNL     1      19.670  48.677  49.818  1.00  0.00     0.150 C 
HETATM   13  C   UNL     1      18.977  49.827  49.068  1.00  0.00     0.254 C 
HETATM   14  N   UNL     1      19.801  51.110  49.191  1.00  0.00    -0.068 N 
HETATM   15  H   UNL     1      19.891  51.325  50.193  1.00  0.00     0.280 HD
HETATM   16  C   UNL     1      21.221  50.874  48.662  1.00  0.00     0.254 C 
HETATM   17  C   UNL     1      21.891  49.661  49.357  1.00  0.00     0.150 C 
BRANCH  14  18
HETATM   18  C   UNL     1      19.151  52.293  48.512  1.00  0.00     0.230 C 
HETATM   19  C   UNL     1      17.837  52.647  49.187  1.00  0.00     0.034 C 
ENDBRANCH  14  18
ENDBRANCH   6  11
ENDBRANCH   1   5
BRANCH   2  20
HETATM   20  C   UNL     1      24.627  46.286  50.813  1.00  0.00     0.032 A 
HETATM   21  C   UNL     1      25.468  47.202  51.449  1.00  0.00     0.017 A 
HETATM   22  C   UNL     1      26.133  46.837  52.620  1.00  0.00     0.010 A 
HETATM   23  C   UNL     1      25.945  45.562  53.177  1.00  0.00    -0.034 A 
HETATM   24  C   UNL     1      25.088  44.655  52.535  1.00  0.00     0.010 A 
HETATM   25  C   UNL     1      24.433  45.012  51.353  1.00  0.00     0.017 A 
BRANCH  23  26
HETATM   26  C   UNL     1      26.619  45.205  54.482  1.00  0.00     0.214 C 
BRANCH  26  27
HETATM   27  O   UNL     1      27.922  45.778  54.461  1.00  0.00    -0.347 OA
BRANCH  27  28
HETATM   28  C   UNL     1      28.952  45.014  54.933  1.00  0.00     0.069 A 
HETATM   29  C   UNL     1      29.371  43.787  54.419  1.00  0.00     0.037 A 
HETATM   30  C   UNL     1      30.443  43.109  55.008  1.00  0.00     0.003 A 
HETATM   31  C   UNL     1      31.100  43.655  56.110  1.00  0.00     0.000 A 
HETATM   32  C   UNL     1      30.686  44.880  56.626  1.00  0.00     0.003 A 
HETATM   33  C   UNL     1      29.617  45.555  56.037  1.00  0.00     0.037 A 
ENDBRANCH  27  28
ENDBRANCH  26  27
ENDBRANCH  23  26
ENDBRANCH   2  20
TORSDOF 7
ENDMDL
MODEL 4
REMARK VINA RESULT:      -8.8      2.079      3.717
REMARK  7 active torsions:
REMARK  status: ('A' for Active; 'I' for Inactive)
REMARK    1  A    between atoms: C_2  and  N_3 
REMARK    2  A    between atoms: N_7  and  C_8 
REMARK    3  A    between atoms: C_9  and  N_10 
REMARK       I    between atoms: N_10  and  C_11 
REMARK    4  A    between atoms: C_11  and  C_12 
REMARK    5  A    between atoms: C_15  and  C_16 
REMARK    6  A    between atoms: C_16  and  O_17 
REMARK    7  A    between atoms: O_17  and  C_18 
ROOT
HETATM    1  N   UNL     1      21.923  46.445  48.854  1.00  0.00    -0.321 N 
HETATM    2  C   UNL     1      23.197  46.963  48.967  1.00  0.00     0.256 C 
HETATM    3  O   UNL     1      23.707  47.794  48.225  1.00  0.00    -0.267 OA
HETATM    4  H   UNL     1      21.708  45.579  49.333  1.00  0.00     0.169 HD
ENDROOT
BRANCH   1   5
HETATM    5  C   UNL     1      20.948  46.862  47.920  1.00  0.00     0.061 A 
HETATM    6  C   UNL     1      20.258  48.082  48.169  1.00  0.00     0.057 A 
HETATM    7  C   UNL     1      19.478  48.590  47.115  1.00  0.00     0.031 A 
HETATM    8  C   UNL     1      19.299  47.880  45.921  1.00  0.00     0.002 A 
HETATM    9  C   UNL     1      19.910  46.647  45.743  1.00  0.00     0.002 A 
HETATM   10  C   UNL     1      20.742  46.142  46.736  1.00  0.00     0.032 A 
BRANCH   6  11
HETATM   11  N   UNL     1      20.338  48.714  49.435  1.00  0.00    -0.376 N 
HETATM   12  C   UNL     1      19.061  48.724  50.202  1.00  0.00     0.150 C 
HETATM   13  C   UNL     1      18.176  49.924  49.824  1.00  0.00     0.254 C 
HETATM   14  N   UNL     1      18.934  51.233  50.054  1.00  0.00    -0.068 N 
HETATM   15  H   UNL     1      19.197  51.267  51.048  1.00  0.00     0.280 HD
HETATM   16  C   UNL     1      20.242  51.229  49.253  1.00  0.00     0.254 C 
HETATM   17  C   UNL     1      21.098  49.976  49.569  1.00  0.00     0.150 C 
BRANCH  14  18
HETATM   18  C   UNL     1      18.103  52.456  49.745  1.00  0.00     0.230 C 
HETATM   19  C   UNL     1      16.623  52.156  49.906  1.00  0.00     0.034 C 
ENDBRANCH  14  18
ENDBRANCH   6  11
ENDBRANCH   1   5
BRANCH   2  20
HETATM   20  C   UNL     1      24.029  46.318  50.011  1.00  0.00     0.032 A 
HETATM   21  C   UNL     1      23.894  44.943  50.218  1.00  0.00     0.017 A 
HETATM   22  C   UNL     1      24.660  44.309  51.196  1.00  0.00     0.010 A 
HETATM   23  C   UNL     1      25.583  45.040  51.960  1.00  0.00    -0.034 A 
HETATM   24  C   UNL     1      25.719  46.419  51.736  1.00  0.00     0.010 A 
HETATM   25  C   UNL     1      24.941  47.060  50.768  1.00  0.00     0.017 A 
BRANCH  23  26
HETATM   26  C   UNL     1      26.455  44.328  52.970  1.00  0.00     0.214 C 
BRANCH  26  27
HETATM   27  O   UNL     1      27.353  45.289  53.514  1.00  0.00    -0.347 OA
BRANCH  27  28
HETATM   28  C   UNL     1      28.438  44.817  54.197  1.00  0.00     0.069 A 
HETATM   29  C   UNL     1      29.099  43.611  53.965  1.00  0.00     0.037 A 
HETATM   30  C   UNL     1      30.200  43.252  54.749  1.00  0.00     0.003 A 
HETATM   31  C   UNL     1      30.645  44.097  55.764  1.00  0.00     0.000 A 
HETATM   32  C   UNL     1      29.990  45.303  55.999  1.00  0.00     0.003 A 
HETATM   33  C   UNL     1      28.892  45.660  55.216  1.00  0.00     0.037 A 
ENDBRANCH  27  28
ENDBRANCH  26  27
ENDBRANCH  23  26
ENDBRANCH   2  20
TORSDOF 7
ENDMDL
MODEL 5
REMARK VINA RESULT:      -8.7      3.608      9.588
REMARK  7 active torsions:
REMARK  status: ('A' for Active; 'I' for Inactive)
REMARK    1  A    between atoms: C_2  and  N_3 
REMARK    2  A    between atoms: N_7  and  C_8 
REMARK    3  A    between atoms: C_9  and  N_10 
REMARK       I    between atoms: N_10  and  C_11 
REMARK    4  A    between atoms: C_11  and  C_12 
REMARK    5  A    between atoms: C_15  and  C_16 
REMARK    6  A    between atoms: C_16  and  O_17 
REMARK    7  A    between atoms: O_17  and  C_18 
ROOT
HETATM    1  N   UNL     1      27.089  44.679  51.489  1.00  0.00    -0.321 N 
HETATM    2  C   UNL     1      25.775  45.089  51.583  1.00  0.00     0.256 C 
HETATM    3  O   UNL     1      24.880  44.513  52.188  1.00  0.00    -0.267 OA
HETATM    4  H   UNL     1      27.665  45.064  50.750  1.00  0.00     0.169 HD
ENDROOT
BRANCH   1   5
HETATM    5  C   UNL     1      27.653  43.572  52.163  1.00  0.00     0.061 A 
HETATM    6  C   UNL     1      27.642  42.310  51.506  1.00  0.00     0.057 A 
HETATM    7  C   UNL     1      28.417  41.290  52.088  1.00  0.00     0.031 A 
HETATM    8  C   UNL     1      29.077  41.473  53.310  1.00  0.00     0.002 A 
HETATM    9  C   UNL     1      28.992  42.687  53.975  1.00  0.00     0.002 A 
HETATM   10  C   UNL     1      28.290  43.740  53.399  1.00  0.00     0.032 A 
BRANCH   6  11
HETATM   11  N   UNL     1      26.853  42.103  50.347  1.00  0.00    -0.376 N 
HETATM   12  C   UNL     1      25.760  41.104  50.513  1.00  0.00     0.150 C 
HETATM   13  C   UNL     1      26.252  39.670  50.254  1.00  0.00     0.254 C 
HETATM   14  N   UNL     1      26.849  39.561  48.850  1.00  0.00    -0.068 N 
HETATM   15  H   UNL     1      26.114  39.826  48.180  1.00  0.00     0.280 HD
HETATM   16  C   UNL     1      27.984  40.579  48.683  1.00  0.00     0.254 C 
HETATM   17  C   UNL     1      27.514  42.015  49.026  1.00  0.00     0.150 C 
BRANCH  14  18
HETATM   18  C   UNL     1      27.310  38.162  48.514  1.00  0.00     0.230 C 
HETATM   19  C   UNL     1      28.808  38.024  48.719  1.00  0.00     0.034 C 
ENDBRANCH  14  18
ENDBRANCH   6  11
ENDBRANCH   1   5
BRANCH   2  20
HETATM   20  C   UNL     1      25.440  46.263  50.741  1.00  0.00     0.032 A 
HETATM   21  C   UNL     1      24.120  46.419  50.309  1.00  0.00     0.017 A 
HETATM   22  C   UNL     1      23.775  47.512  49.513  1.00  0.00     0.010 A 
HETATM   23  C   UNL     1      24.741  48.468  49.161  1.00  0.00    -0.034 A 
HETATM   24  C   UNL     1      26.060  48.307  49.611  1.00  0.00     0.010 A 
HETATM   25  C   UNL     1      26.412  47.206  50.395  1.00  0.00     0.017 A 
BRANCH  23  26
HETATM   26  C   UNL     1      24.338  49.682  48.353  1.00  0.00     0.214 C 
BRANCH  26  27
HETATM   27  O   UNL     1      23.755  50.620  49.252  1.00  0.00    -0.347 OA
BRANCH  27  28
HETATM   28  C   UNL     1      22.398  50.772  49.207  1.00  0.00     0.069 A 
HETATM   29  C   UNL     1      21.561  51.040  50.291  1.00  0.00     0.037 A 
HETATM   30  C   UNL     1      20.182  51.168  50.097  1.00  0.00     0.003 A 
HETATM   31  C   UNL     1      19.636  51.031  48.822  1.00  0.00     0.000 A 
HETATM   32  C   UNL     1      20.467  50.765  47.737  1.00  0.00     0.003 A 
HETATM   33  C   UNL     1      21.842  50.638  47.931  1.00  0.00     0.037 A 
ENDBRANCH  27  28
ENDBRANCH  26  27
ENDBRANCH  23  26
ENDBRANCH   2  20
TORSDOF 7
ENDMDL
MODEL 6
REMARK VINA RESULT:      -8.5      4.134      9.546
REMARK  7 active torsions:
REMARK  status: ('A' for Active; 'I' for Inactive)
REMARK    1  A    between atoms: C_2  and  N_3 
REMARK    2  A    between atoms: N_7  and  C_8 
REMARK    3  A    between atoms: C_9  and  N_10 
REMARK       I    between atoms: N_10  and  C_11 
REMARK    4  A    between atoms: C_11  and  C_12 
REMARK    5  A    between atoms: C_15  and  C_16 
REMARK    6  A    between atoms: C_16  and  O_17 
REMARK    7  A    between atoms: O_17  and  C_18 
ROOT
HETATM    1  N   UNL     1      24.171  49.048  49.418  1.00  0.00    -0.321 N 
HETATM    2  C   UNL     1      23.646  49.763  48.361  1.00  0.00     0.256 C 
HETATM    3  O   UNL     1      24.234  50.065  47.330  1.00  0.00    -0.267 OA
HETATM    4  H   UNL     1      23.705  49.099  50.316  1.00  0.00     0.169 HD
ENDROOT
BRANCH   1   5
HETATM    5  C   UNL     1      25.451  48.451  49.449  1.00  0.00     0.061 A 
HETATM    6  C   UNL     1      25.534  47.053  49.703  1.00  0.00     0.057 A 
HETATM    7  C   UNL     1      26.785  46.447  49.489  1.00  0.00     0.031 A 
HETATM    8  C   UNL     1      27.919  47.197  49.150  1.00  0.00     0.002 A 
HETATM    9  C   UNL     1      27.827  48.573  49.001  1.00  0.00     0.002 A 
HETATM   10  C   UNL     1      26.594  49.200  49.139  1.00  0.00     0.032 A 
BRANCH   6  11
HETATM   11  N   UNL     1      24.409  46.336  50.183  1.00  0.00    -0.376 N 
HETATM   12  C   UNL     1      24.689  45.464  51.357  1.00  0.00     0.150 C 
HETATM   13  C   UNL     1      25.203  44.078  50.931  1.00  0.00     0.254 C 
HETATM   14  N   UNL     1      24.193  43.400  50.005  1.00  0.00    -0.068 N 
HETATM   15  H   UNL     1      23.306  43.321  50.521  1.00  0.00     0.280 HD
HETATM   16  C   UNL     1      23.916  44.291  48.789  1.00  0.00     0.254 C 
HETATM   17  C   UNL     1      23.478  45.715  49.215  1.00  0.00     0.150 C 
BRANCH  14  18
HETATM   18  C   UNL     1      24.619  42.012  49.587  1.00  0.00     0.230 C 
HETATM   19  C   UNL     1      25.678  41.466  50.527  1.00  0.00     0.034 C 
ENDBRANCH  14  18
ENDBRANCH   6  11
ENDBRANCH   1   5
BRANCH   2  20
HETATM   20  C   UNL     1      22.290  50.311  48.607  1.00  0.00     0.032 A 
HETATM   21  C   UNL     1      21.932  50.644  49.916  1.00  0.00     0.017 A 
HETATM   22  C   UNL     1      20.663  51.158  50.179  1.00  0.00     0.010 A 
HETATM   23  C   UNL     1      19.749  51.365  49.134  1.00  0.00    -0.034 A 
HETATM   24  C   UNL     1      20.123  51.039  47.821  1.00  0.00     0.010 A 
HETATM   25  C   UNL     1      21.389  50.508  47.557  1.00  0.00     0.017 A 
BRANCH  23  26
HETATM   26  C   UNL     1      18.400  51.986  49.425  1.00  0.00     0.214 C 
BRANCH  26  27
HETATM   27  O   UNL     1      17.603  50.995  50.065  1.00  0.00    -0.347 OA
BRANCH  27  28
HETATM   28  C   UNL     1      17.108  49.989  49.285  1.00  0.00     0.069 A 
HETATM   29  C   UNL     1      17.544  48.664  49.274  1.00  0.00     0.037 A 
HETATM   30  C   UNL     1      16.944  47.735  48.415  1.00  0.00     0.003 A 
HETATM   31  C   UNL     1      15.908  48.128  47.569  1.00  0.00     0.000 A 
HETATM   32  C   UNL     1      15.469  49.449  47.578  1.00  0.00     0.003 A 
HETATM   33  C   UNL     1      16.067  50.373  48.435  1.00  0.00     0.037 A 
ENDBRANCH  27  28
ENDBRANCH  26  27
ENDBRANCH  23  26
ENDBRANCH   2  20
TORSDOF 7
ENDMDL
MODEL 7
REMARK VINA RESULT:      -8.2      4.272      6.286
REMARK  7 active torsions:
REMARK  status: ('A' for Active; 'I' for Inactive)
REMARK    1  A    between atoms: C_2  and  N_3 
REMARK    2  A    between atoms: N_7  and  C_8 
REMARK    3  A    between atoms: C_9  and  N_10 
REMARK       I    between atoms: N_10  and  C_11 
REMARK    4  A    between atoms: C_11  and  C_12 
REMARK    5  A    between atoms: C_15  and  C_16 
REMARK    6  A    between atoms: C_16  and  O_17 
REMARK    7  A    between atoms: O_17  and  C_18 
ROOT
HETATM    1  N   UNL     1      27.234  41.875  49.068  1.00  0.00    -0.321 N 
HETATM    2  C   UNL     1      27.591  41.234  50.237  1.00  0.00     0.256 C 
HETATM    3  O   UNL     1      27.727  40.026  50.386  1.00  0.00    -0.267 OA
HETATM    4  H   UNL     1      26.879  42.822  49.124  1.00  0.00     0.169 HD
ENDROOT
BRANCH   1   5
HETATM    5  C   UNL     1      27.064  41.252  47.811  1.00  0.00     0.061 A 
HETATM    6  C   UNL     1      25.746  41.155  47.283  1.00  0.00     0.057 A 
HETATM    7  C   UNL     1      25.634  40.756  45.939  1.00  0.00     0.031 A 
HETATM    8  C   UNL     1      26.751  40.368  45.190  1.00  0.00     0.002 A 
HETATM    9  C   UNL     1      28.016  40.383  45.762  1.00  0.00     0.002 A 
HETATM   10  C   UNL     1      28.174  40.835  47.067  1.00  0.00     0.032 A 
BRANCH   6  11
HETATM   11  N   UNL     1      24.617  41.416  48.100  1.00  0.00    -0.376 N 
HETATM   12  C   UNL     1      23.405  40.623  47.750  1.00  0.00     0.150 C 
HETATM   13  C   UNL     1      22.577  41.301  46.646  1.00  0.00     0.254 C 
HETATM   14  N   UNL     1      22.171  42.711  47.079  1.00  0.00    -0.068 N 
HETATM   15  H   UNL     1      21.626  42.622  47.947  1.00  0.00     0.280 HD
HETATM   16  C   UNL     1      23.419  43.532  47.425  1.00  0.00     0.254 C 
HETATM   17  C   UNL     1      24.300  42.811  48.476  1.00  0.00     0.150 C 
BRANCH  14  18
HETATM   18  C   UNL     1      21.314  43.416  46.054  1.00  0.00     0.230 C 
HETATM   19  C   UNL     1      20.344  42.447  45.403  1.00  0.00     0.034 C 
ENDBRANCH  14  18
ENDBRANCH   6  11
ENDBRANCH   1   5
BRANCH   2  20
HETATM   20  C   UNL     1      27.666  42.122  51.422  1.00  0.00     0.032 A 
HETATM   21  C   UNL     1      27.376  43.479  51.259  1.00  0.00     0.017 A 
HETATM   22  C   UNL     1      27.441  44.339  52.356  1.00  0.00     0.010 A 
HETATM   23  C   UNL     1      27.775  43.847  53.627  1.00  0.00    -0.034 A 
HETATM   24  C   UNL     1      28.053  42.480  53.781  1.00  0.00     0.010 A 
HETATM   25  C   UNL     1      28.004  41.618  52.682  1.00  0.00     0.017 A 
BRANCH  23  26
HETATM   26  C   UNL     1      27.776  44.779  54.818  1.00  0.00     0.214 C 
BRANCH  26  27
HETATM   27  O   UNL     1      29.059  45.396  54.877  1.00  0.00    -0.347 OA
BRANCH  27  28
HETATM   28  C   UNL     1      29.887  45.023  55.897  1.00  0.00     0.069 A 
HETATM   29  C   UNL     1      30.788  43.958  55.881  1.00  0.00     0.037 A 
HETATM   30  C   UNL     1      31.575  43.688  57.006  1.00  0.00     0.003 A 
HETATM   31  C   UNL     1      31.466  44.482  58.147  1.00  0.00     0.000 A 
HETATM   32  C   UNL     1      30.569  45.547  58.167  1.00  0.00     0.003 A 
HETATM   33  C   UNL     1      29.785  45.815  57.045  1.00  0.00     0.037 A 
ENDBRANCH  27  28
ENDBRANCH  26  27
ENDBRANCH  23  26
ENDBRANCH   2  20
TORSDOF 7
ENDMDL
MODEL 8
REMARK VINA RESULT:      -7.9      4.029      9.899
REMARK  7 active torsions:
REMARK  status: ('A' for Active; 'I' for Inactive)
REMARK    1  A    between atoms: C_2  and  N_3 
REMARK    2  A    between atoms: N_7  and  C_8 
REMARK    3  A    between atoms: C_9  and  N_10 
REMARK       I    between atoms: N_10  and  C_11 
REMARK    4  A    between atoms: C_11  and  C_12 
REMARK    5  A    between atoms: C_15  and  C_16 
REMARK    6  A    between atoms: C_16  and  O_17 
REMARK    7  A    between atoms: O_17  and  C_18 
ROOT
HETATM    1  N   UNL     1      22.949  48.184  49.606  1.00  0.00    -0.321 N 
HETATM    2  C   UNL     1      22.816  49.091  48.575  1.00  0.00     0.256 C 
HETATM    3  O   UNL     1      23.646  49.320  47.703  1.00  0.00    -0.267 OA
HETATM    4  H   UNL     1      22.343  48.276  50.413  1.00  0.00     0.169 HD
ENDROOT
BRANCH   1   5
HETATM    5  C   UNL     1      24.026  47.285  49.774  1.00  0.00     0.061 A 
HETATM    6  C   UNL     1      23.896  45.973  49.238  1.00  0.00     0.057 A 
HETATM    7  C   UNL     1      25.063  45.188  49.206  1.00  0.00     0.031 A 
HETATM    8  C   UNL     1      26.265  45.630  49.772  1.00  0.00     0.002 A 
HETATM    9  C   UNL     1      26.337  46.879  50.373  1.00  0.00     0.002 A 
HETATM   10  C   UNL     1      25.223  47.710  50.366  1.00  0.00     0.032 A 
BRANCH   6  11
HETATM   11  N   UNL     1      22.638  45.491  48.799  1.00  0.00    -0.376 N 
HETATM   12  C   UNL     1      22.207  44.217  49.439  1.00  0.00     0.150 C 
HETATM   13  C   UNL     1      22.767  42.988  48.703  1.00  0.00     0.254 C 
HETATM   14  N   UNL     1      22.335  43.008  47.236  1.00  0.00    -0.068 N 
HETATM   15  H   UNL     1      21.306  43.011  47.217  1.00  0.00     0.280 HD
HETATM   16  C   UNL     1      22.791  44.313  46.572  1.00  0.00     0.254 C 
HETATM   17  C   UNL     1      22.299  45.553  47.360  1.00  0.00     0.150 C 
BRANCH  14  18
HETATM   18  C   UNL     1      22.816  41.801  46.465  1.00  0.00     0.230 C 
HETATM   19  C   UNL     1      22.740  40.549  47.321  1.00  0.00     0.034 C 
ENDBRANCH  14  18
ENDBRANCH   6  11
ENDBRANCH   1   5
BRANCH   2  20
HETATM   20  C   UNL     1      21.602  49.938  48.658  1.00  0.00     0.032 A 
HETATM   21  C   UNL     1      21.248  50.476  49.898  1.00  0.00     0.017 A 
HETATM   22  C   UNL     1      20.110  51.275  50.008  1.00  0.00     0.010 A 
HETATM   23  C   UNL     1      19.328  51.560  48.877  1.00  0.00    -0.034 A 
HETATM   24  C   UNL     1      19.701  51.024  47.635  1.00  0.00     0.010 A 
HETATM   25  C   UNL     1      20.832  50.210  47.524  1.00  0.00     0.017 A 
BRANCH  23  26
HETATM   26  C   UNL     1      18.135  52.481  49.000  1.00  0.00     0.214 C 
BRANCH  26  27
HETATM   27  O   UNL     1      17.002  51.675  49.306  1.00  0.00    -0.347 OA
BRANCH  27  28
HETATM   28  C   UNL     1      16.306  51.146  48.256  1.00  0.00     0.069 A 
HETATM   29  C   UNL     1      15.892  51.829  47.113  1.00  0.00     0.037 A 
HETATM   30  C   UNL     1      15.179  51.158  46.114  1.00  0.00     0.003 A 
HETATM   31  C   UNL     1      14.882  49.803  46.253  1.00  0.00     0.000 A 
HETATM   32  C   UNL     1      15.294  49.116  47.392  1.00  0.00     0.003 A 
HETATM   33  C   UNL     1      16.005  49.787  48.388  1.00  0.00     0.037 A 
ENDBRANCH  27  28
ENDBRANCH  26  27
ENDBRANCH  23  26
ENDBRANCH   2  20
TORSDOF 7
ENDMDL
MODEL 9
REMARK VINA RESULT:      -7.9      6.124      9.745
REMARK  7 active torsions:
REMARK  status: ('A' for Active; 'I' for Inactive)
REMARK    1  A    between atoms: C_2  and  N_3 
REMARK    2  A    between atoms: N_7  and  C_8 
REMARK    3  A    between atoms: C_9  and  N_10 
REMARK       I    between atoms: N_10  and  C_11 
REMARK    4  A    between atoms: C_11  and  C_12 
REMARK    5  A    between atoms: C_15  and  C_16 
REMARK    6  A    between atoms: C_16  and  O_17 
REMARK    7  A    between atoms: O_17  and  C_18 
ROOT
HETATM    1  N   UNL     1      28.456  41.530  50.984  1.00  0.00    -0.321 N 
HETATM    2  C   UNL     1      28.673  40.175  51.120  1.00  0.00     0.256 C 
HETATM    3  O   UNL     1      29.102  39.609  52.119  1.00  0.00    -0.267 OA
HETATM    4  H   UNL     1      28.374  41.916  50.051  1.00  0.00     0.169 HD
ENDROOT
BRANCH   1   5
HETATM    5  C   UNL     1      28.594  42.491  52.012  1.00  0.00     0.061 A 
HETATM    6  C   UNL     1      27.506  43.375  52.255  1.00  0.00     0.057 A 
HETATM    7  C   UNL     1      27.573  44.149  53.427  1.00  0.00     0.031 A 
HETATM    8  C   UNL     1      28.701  44.134  54.256  1.00  0.00     0.002 A 
HETATM    9  C   UNL     1      29.788  43.330  53.943  1.00  0.00     0.002 A 
HETATM   10  C   UNL     1      29.732  42.501  52.828  1.00  0.00     0.032 A 
BRANCH   6  11
HETATM   11  N   UNL     1      26.437  43.481  51.329  1.00  0.00    -0.376 N 
HETATM   12  C   UNL     1      26.833  43.990  49.985  1.00  0.00     0.150 C 
HETATM   13  C   UNL     1      26.833  45.528  49.934  1.00  0.00     0.254 C 
HETATM   14  N   UNL     1      25.454  46.070  50.313  1.00  0.00    -0.068 N 
HETATM   15  H   UNL     1      24.775  45.679  49.647  1.00  0.00     0.280 HD
HETATM   16  C   UNL     1      25.053  45.558  51.702  1.00  0.00     0.254 C 
HETATM   17  C   UNL     1      25.134  44.012  51.782  1.00  0.00     0.150 C 
BRANCH  14  18
HETATM   18  C   UNL     1      25.374  47.577  50.237  1.00  0.00     0.230 C 
HETATM   19  C   UNL     1      26.647  48.155  49.645  1.00  0.00     0.034 C 
ENDBRANCH  14  18
ENDBRANCH   6  11
ENDBRANCH   1   5
BRANCH   2  20
HETATM   20  C   UNL     1      28.489  39.397  49.871  1.00  0.00     0.032 A 
HETATM   21  C   UNL     1      27.258  39.472  49.214  1.00  0.00     0.017 A 
HETATM   22  C   UNL     1      27.054  38.749  48.038  1.00  0.00     0.010 A 
HETATM   23  C   UNL     1      28.085  37.964  47.498  1.00  0.00    -0.034 A 
HETATM   24  C   UNL     1      29.321  37.906  48.161  1.00  0.00     0.010 A 
HETATM   25  C   UNL     1      29.523  38.617  49.347  1.00  0.00     0.017 A 
BRANCH  23  26
HETATM   26  C   UNL     1      27.871  37.239  46.188  1.00  0.00     0.214 C 
BRANCH  26  27
HETATM   27  O   UNL     1      27.342  38.180  45.260  1.00  0.00    -0.347 OA
BRANCH  27  28
HETATM   28  C   UNL     1      28.234  38.859  44.479  1.00  0.00     0.069 A 
HETATM   29  C   UNL     1      28.338  40.245  44.360  1.00  0.00     0.037 A 
HETATM   30  C   UNL     1      29.301  40.807  43.515  1.00  0.00     0.003 A 
HETATM   31  C   UNL     1      30.163  39.986  42.789  1.00  0.00     0.000 A 
HETATM   32  C   UNL     1      30.064  38.602  42.905  1.00  0.00     0.003 A 
HETATM   33  C   UNL     1      29.103  38.044  43.749  1.00  0.00     0.037 A 
ENDBRANCH  27  28
ENDBRANCH  26  27
ENDBRANCH  23  26
ENDBRANCH   2  20
TORSDOF 7
ENDMDL
MODEL 10
REMARK VINA RESULT:      -7.9     12.739     13.440
REMARK  7 active torsions:
REMARK  status: ('A' for Active; 'I' for Inactive)
REMARK    1  A    between atoms: C_2  and  N_3 
REMARK    2  A    between atoms: N_7  and  C_8 
REMARK    3  A    between atoms: C_9  and  N_10 
REMARK       I    between atoms: N_10  and  C_11 
REMARK    4  A    between atoms: C_11  and  C_12 
REMARK    5  A    between atoms: C_15  and  C_16 
REMARK    6  A    between atoms: C_16  and  O_17 
REMARK    7  A    between atoms: O_17  and  C_18 
ROOT
HETATM    1  N   UNL     1      32.913  51.942  41.443  1.00  0.00    -0.321 N 
HETATM    2  C   UNL     1      33.324  51.744  42.745  1.00  0.00     0.256 C 
HETATM    3  O   UNL     1      32.623  51.835  43.746  1.00  0.00    -0.267 OA
HETATM    4  H   UNL     1      33.616  52.119  40.735  1.00  0.00     0.169 HD
ENDROOT
BRANCH   1   5
HETATM    5  C   UNL     1      31.584  52.186  41.030  1.00  0.00     0.061 A 
HETATM    6  C   UNL     1      30.659  51.105  41.073  1.00  0.00     0.057 A 
HETATM    7  C   UNL     1      29.303  51.429  40.892  1.00  0.00     0.031 A 
HETATM    8  C   UNL     1      28.892  52.730  40.575  1.00  0.00     0.002 A 
HETATM    9  C   UNL     1      29.827  53.747  40.447  1.00  0.00     0.002 A 
HETATM   10  C   UNL     1      31.171  53.479  40.685  1.00  0.00     0.032 A 
BRANCH   6  11
HETATM   11  N   UNL     1      31.110  49.773  41.253  1.00  0.00    -0.376 N 
HETATM   12  C   UNL     1      31.411  49.047  39.988  1.00  0.00     0.150 C 
HETATM   13  C   UNL     1      30.156  48.384  39.395  1.00  0.00     0.254 C 
HETATM   14  N   UNL     1      29.533  47.426  40.412  1.00  0.00    -0.068 N 
HETATM   15  H   UNL     1      30.244  46.721  40.648  1.00  0.00     0.280 HD
HETATM   16  C   UNL     1      29.209  48.176  41.709  1.00  0.00     0.254 C 
HETATM   17  C   UNL     1      30.453  48.915  42.264  1.00  0.00     0.150 C 
BRANCH  14  18
HETATM   18  C   UNL     1      28.319  46.706  39.874  1.00  0.00     0.230 C 
HETATM   19  C   UNL     1      27.261  46.552  40.952  1.00  0.00     0.034 C 
ENDBRANCH  14  18
ENDBRANCH   6  11
ENDBRANCH   1   5
BRANCH   2  20
HETATM   20  C   UNL     1      34.784  51.543  42.902  1.00  0.00     0.032 A 
HETATM   21  C   UNL     1      35.456  52.269  43.889  1.00  0.00     0.017 A 
HETATM   22  C   UNL     1      36.831  52.103  44.058  1.00  0.00     0.010 A 
HETATM   23  C   UNL     1      37.542  51.196  43.257  1.00  0.00    -0.034 A 
HETATM   24  C   UNL     1      36.855  50.463  42.277  1.00  0.00     0.010 A 
HETATM   25  C   UNL     1      35.480  50.638  42.095  1.00  0.00     0.017 A 
BRANCH  23  26
HETATM   26  C   UNL     1      39.019  50.979  43.496  1.00  0.00     0.214 C 
BRANCH  26  27
HETATM   27  O   UNL     1      39.167  50.450  44.810  1.00  0.00    -0.347 OA
BRANCH  27  28
HETATM   28  C   UNL     1      40.003  49.380  44.965  1.00  0.00     0.069 A 
HETATM   29  C   UNL     1      39.661  48.037  44.811  1.00  0.00     0.037 A 
HETATM   30  C   UNL     1      40.624  47.041  45.007  1.00  0.00     0.003 A 
HETATM   31  C   UNL     1      41.930  47.385  45.353  1.00  0.00     0.000 A 
HETATM   32  C   UNL     1      42.276  48.725  45.507  1.00  0.00     0.003 A 
HETATM   33  C   UNL     1      41.315  49.717  45.311  1.00  0.00     0.037 A 
ENDBRANCH  27  28
ENDBRANCH  26  27
ENDBRANCH  23  26
ENDBRANCH   2  20
TORSDOF 7
ENDMDL
