MODEL 1
REMARK VINA RESULT:      -9.1      0.000      0.000
REMARK  2 active torsions:
REMARK  status: ('A' for Active; 'I' for Inactive)
REMARK    1  A    between atoms: C_2  and  C_3 
REMARK    2  A    between atoms: C_7  and  C_8 
REMARK       I    between atoms: C_8  and  N_9 
ROOT
HETATM    1  C   UNL     1      23.917  49.958  48.313  1.00  0.00     0.271 C 
HETATM    2  N   UNL     1      24.587  48.997  49.093  1.00  0.00    -0.346 N 
HETATM    3  C   UNL     1      25.996  48.785  48.767  1.00  0.00     0.130 C 
HETATM    4  C   UNL     1      26.752  48.115  49.907  1.00  0.00     0.068 C 
HETATM    5  C   UNL     1      26.060  46.836  50.407  1.00  0.00     0.094 C 
HETATM    6  N   UNL     1      26.733  46.381  51.606  1.00  0.00    -0.334 N 
HETATM    7  C   UNL     1      26.569  45.120  52.112  1.00  0.00     0.255 C 
HETATM    8  O   UNL     1      26.805  44.869  53.288  1.00  0.00    -0.268 OA
HETATM    9  C   UNL     1      26.113  44.091  51.159  1.00  0.00     0.053 A 
HETATM   10  C   UNL     1      25.944  44.473  49.822  1.00  0.00     0.026 A 
HETATM   11  N   UNL     1      26.212  45.784  49.403  1.00  0.00    -0.265 NA
HETATM   12  C   UNL     1      25.889  42.776  51.580  1.00  0.00     0.019 A 
HETATM   13  C   UNL     1      25.513  41.814  50.645  1.00  0.00     0.001 A 
HETATM   14  C   UNL     1      25.387  42.165  49.301  1.00  0.00     0.002 A 
HETATM   15  C   UNL     1      25.617  43.483  48.890  1.00  0.00     0.024 A 
HETATM   16  C   UNL     1      24.577  47.126  50.705  1.00  0.00     0.068 C 
HETATM   17  C   UNL     1      23.876  47.795  49.534  1.00  0.00     0.130 C 
HETATM   18  O   UNL     1      24.455  50.482  47.339  1.00  0.00    -0.266 OA
HETATM   19  H   UNL     1      26.977  47.060  52.314  1.00  0.00     0.164 HD
HETATM   20  H   UNL     1      25.807  45.991  48.495  1.00  0.00     0.130 HD
ENDROOT
BRANCH   1  21
HETATM   21  C   UNL     1      22.588  50.323  48.728  1.00  0.00     0.119 A 
HETATM   22  N   UNL     1      22.220  50.635  50.006  1.00  0.00    -0.273 N 
HETATM   23  N   UNL     1      20.918  50.914  50.150  1.00  0.00    -0.178 NA
HETATM   24  H   UNL     1      22.811  50.657  50.831  1.00  0.00     0.189 HD
HETATM   25  C   UNL     1      20.430  50.876  48.900  1.00  0.00     0.064 A 
HETATM   26  C   UNL     1      21.452  50.538  47.975  1.00  0.00     0.066 A 
BRANCH  25  27
HETATM   27  C   UNL     1      18.962  51.176  48.644  1.00  0.00    -0.005 C 
HETATM   28  C   UNL     1      18.131  50.851  49.902  1.00  0.00     0.021 C 
HETATM   29  C   UNL     1      18.442  50.326  47.466  1.00  0.00     0.021 C 
HETATM   30  C   UNL     1      18.734  52.660  48.291  1.00  0.00     0.021 C 
ENDBRANCH  25  27
ENDBRANCH   1  21
TORSDOF 2
ENDMDL
MODEL 2
REMARK VINA RESULT:      -8.4      2.239      8.765
REMARK  2 active torsions:
REMARK  status: ('A' for Active; 'I' for Inactive)
REMARK    1  A    between atoms: C_2  and  C_3 
REMARK    2  A    between atoms: C_7  and  C_8 
REMARK       I    between atoms: C_8  and  N_9 
ROOT
HETATM    1  C   UNL     1      25.896  43.767  51.977  1.00  0.00     0.271 C 
HETATM    2  N   UNL     1      25.912  45.026  51.347  1.00  0.00    -0.346 N 
HETATM    3  C   UNL     1      25.927  46.183  52.240  1.00  0.00     0.130 C 
HETATM    4  C   UNL     1      26.408  47.444  51.534  1.00  0.00     0.068 C 
HETATM    5  C   UNL     1      25.649  47.717  50.225  1.00  0.00     0.094 C 
HETATM    6  N   UNL     1      26.297  48.809  49.530  1.00  0.00    -0.334 N 
HETATM    7  C   UNL     1      25.698  49.495  48.508  1.00  0.00     0.255 C 
HETATM    8  O   UNL     1      26.356  50.122  47.688  1.00  0.00    -0.268 OA
HETATM    9  C   UNL     1      24.224  49.447  48.470  1.00  0.00     0.053 A 
HETATM   10  C   UNL     1      23.569  48.760  49.500  1.00  0.00     0.026 A 
HETATM   11  N   UNL     1      24.289  48.153  50.539  1.00  0.00    -0.265 NA
HETATM   12  C   UNL     1      23.514  50.091  47.452  1.00  0.00     0.019 A 
HETATM   13  C   UNL     1      22.121  50.076  47.474  1.00  0.00     0.001 A 
HETATM   14  C   UNL     1      21.452  49.438  48.519  1.00  0.00     0.002 A 
HETATM   15  C   UNL     1      22.172  48.798  49.534  1.00  0.00     0.024 A 
HETATM   16  C   UNL     1      25.651  46.451  49.346  1.00  0.00     0.068 C 
HETATM   17  C   UNL     1      25.164  45.226  50.104  1.00  0.00     0.130 C 
HETATM   18  O   UNL     1      25.770  43.661  53.195  1.00  0.00    -0.266 OA
HETATM   19  H   UNL     1      27.306  48.817  49.469  1.00  0.00     0.164 HD
HETATM   20  H   UNL     1      23.731  47.483  51.059  1.00  0.00     0.130 HD
ENDROOT
BRANCH   1  21
HETATM   21  C   UNL     1      26.069  42.614  51.133  1.00  0.00     0.119 A 
HETATM   22  N   UNL     1      25.059  41.817  50.673  1.00  0.00    -0.273 N 
HETATM   23  N   UNL     1      25.472  40.784  49.927  1.00  0.00    -0.178 NA
HETATM   24  H   UNL     1      24.065  41.915  50.852  1.00  0.00     0.189 HD
HETATM   25  C   UNL     1      26.797  40.965  49.812  1.00  0.00     0.064 A 
HETATM   26  C   UNL     1      27.206  42.119  50.530  1.00  0.00     0.066 A 
BRANCH  25  27
HETATM   27  C   UNL     1      27.631  39.994  48.994  1.00  0.00    -0.005 C 
HETATM   28  C   UNL     1      28.705  39.339  49.886  1.00  0.00     0.021 C 
HETATM   29  C   UNL     1      28.329  40.738  47.834  1.00  0.00     0.021 C 
HETATM   30  C   UNL     1      26.769  38.871  48.382  1.00  0.00     0.021 C 
ENDBRANCH  25  27
ENDBRANCH   1  21
TORSDOF 2
ENDMDL
MODEL 3
REMARK VINA RESULT:      -8.0     11.922     15.255
REMARK  2 active torsions:
REMARK  status: ('A' for Active; 'I' for Inactive)
REMARK    1  A    between atoms: C_2  and  C_3 
REMARK    2  A    between atoms: C_7  and  C_8 
REMARK       I    between atoms: C_8  and  N_9 
ROOT
HETATM    1  C   UNL     1      37.164  51.480  42.090  1.00  0.00     0.271 C 
HETATM    2  N   UNL     1      35.849  50.983  42.006  1.00  0.00    -0.346 N 
HETATM    3  C   UNL     1      35.521  50.260  40.780  1.00  0.00     0.130 C 
HETATM    4  C   UNL     1      34.293  49.375  40.949  1.00  0.00     0.068 C 
HETATM    5  C   UNL     1      33.089  50.137  41.528  1.00  0.00     0.094 C 
HETATM    6  N   UNL     1      32.041  49.187  41.836  1.00  0.00    -0.334 N 
HETATM    7  C   UNL     1      30.745  49.563  42.065  1.00  0.00     0.255 C 
HETATM    8  O   UNL     1      29.974  48.847  42.692  1.00  0.00    -0.268 OA
HETATM    9  C   UNL     1      30.336  50.863  41.500  1.00  0.00     0.053 A 
HETATM   10  C   UNL     1      31.278  51.565  40.738  1.00  0.00     0.026 A 
HETATM   11  N   UNL     1      32.560  51.044  40.509  1.00  0.00    -0.265 NA
HETATM   12  C   UNL     1      29.042  51.353  41.699  1.00  0.00     0.019 A 
HETATM   13  C   UNL     1      28.667  52.556  41.105  1.00  0.00     0.001 A 
HETATM   14  C   UNL     1      29.577  53.245  40.303  1.00  0.00     0.002 A 
HETATM   15  C   UNL     1      30.869  52.745  40.108  1.00  0.00     0.024 A 
HETATM   16  C   UNL     1      33.512  50.896  42.800  1.00  0.00     0.068 C 
HETATM   17  C   UNL     1      34.743  51.759  42.571  1.00  0.00     0.130 C 
HETATM   18  O   UNL     1      37.935  51.418  41.134  1.00  0.00    -0.266 OA
HETATM   19  H   UNL     1      32.288  48.325  42.304  1.00  0.00     0.164 HD
HETATM   20  H   UNL     1      33.212  51.749  40.179  1.00  0.00     0.130 HD
ENDROOT
BRANCH   1  21
HETATM   21  C   UNL     1      37.573  52.032  43.355  1.00  0.00     0.119 A 
HETATM   22  N   UNL     1      37.769  51.314  44.501  1.00  0.00    -0.273 N 
HETATM   23  N   UNL     1      38.119  52.056  45.559  1.00  0.00    -0.178 NA
HETATM   24  H   UNL     1      37.659  50.314  44.629  1.00  0.00     0.189 HD
HETATM   25  C   UNL     1      38.252  53.297  45.066  1.00  0.00     0.064 A 
HETATM   26  C   UNL     1      37.947  53.319  43.680  1.00  0.00     0.066 A 
BRANCH  25  27
HETATM   27  C   UNL     1      38.679  54.438  45.975  1.00  0.00    -0.005 C 
HETATM   28  C   UNL     1      38.143  55.777  45.430  1.00  0.00     0.021 C 
HETATM   29  C   UNL     1      40.219  54.509  46.052  1.00  0.00     0.021 C 
HETATM   30  C   UNL     1      38.143  54.259  47.411  1.00  0.00     0.021 C 
ENDBRANCH  25  27
ENDBRANCH   1  21
TORSDOF 2
ENDMDL
MODEL 4
REMARK VINA RESULT:      -8.0      2.442      8.289
REMARK  2 active torsions:
REMARK  status: ('A' for Active; 'I' for Inactive)
REMARK    1  A    between atoms: C_2  and  C_3 
REMARK    2  A    between atoms: C_7  and  C_8 
REMARK       I    between atoms: C_8  and  N_9 
ROOT
HETATM    1  C   UNL     1      24.262  43.669  50.783  1.00  0.00     0.271 C 
HETATM    2  N   UNL     1      24.474  44.989  50.343  1.00  0.00    -0.346 N 
HETATM    3  C   UNL     1      24.931  45.932  51.361  1.00  0.00     0.130 C 
HETATM    4  C   UNL     1      25.574  47.169  50.747  1.00  0.00     0.068 C 
HETATM    5  C   UNL     1      24.686  47.833  49.681  1.00  0.00     0.094 C 
HETATM    6  N   UNL     1      25.448  48.870  49.020  1.00  0.00    -0.334 N 
HETATM    7  C   UNL     1      24.865  49.843  48.254  1.00  0.00     0.255 C 
HETATM    8  O   UNL     1      25.501  50.455  47.405  1.00  0.00    -0.268 OA
HETATM    9  C   UNL     1      23.442  50.118  48.527  1.00  0.00     0.053 A 
HETATM   10  C   UNL     1      22.832  49.411  49.571  1.00  0.00     0.026 A 
HETATM   11  N   UNL     1      23.553  48.484  50.338  1.00  0.00    -0.265 NA
HETATM   12  C   UNL     1      22.743  51.074  47.784  1.00  0.00     0.019 A 
HETATM   13  C   UNL     1      21.416  51.353  48.103  1.00  0.00     0.001 A 
HETATM   14  C   UNL     1      20.806  50.692  49.170  1.00  0.00     0.002 A 
HETATM   15  C   UNL     1      21.515  49.739  49.909  1.00  0.00     0.024 A 
HETATM   16  C   UNL     1      24.221  46.778  48.659  1.00  0.00     0.068 C 
HETATM   17  C   UNL     1      23.590  45.568  49.329  1.00  0.00     0.130 C 
HETATM   18  O   UNL     1      24.331  43.371  51.974  1.00  0.00    -0.266 OA
HETATM   19  H   UNL     1      26.401  48.673  48.744  1.00  0.00     0.164 HD
HETATM   20  H   UNL     1      22.948  47.865  50.869  1.00  0.00     0.130 HD
ENDROOT
BRANCH   1  21
HETATM   21  C   UNL     1      23.993  42.680  49.772  1.00  0.00     0.119 A 
HETATM   22  N   UNL     1      22.750  42.241  49.411  1.00  0.00    -0.273 N 
HETATM   23  N   UNL     1      22.757  41.293  48.465  1.00  0.00    -0.178 NA
HETATM   24  H   UNL     1      21.857  42.538  49.788  1.00  0.00     0.189 HD
HETATM   25  C   UNL     1      24.050  41.172  48.125  1.00  0.00     0.064 A 
HETATM   26  C   UNL     1      24.854  42.047  48.901  1.00  0.00     0.066 A 
BRANCH  25  27
HETATM   27  C   UNL     1      24.464  40.195  47.037  1.00  0.00    -0.005 C 
HETATM   28  C   UNL     1      25.629  39.316  47.533  1.00  0.00     0.021 C 
HETATM   29  C   UNL     1      24.918  40.963  45.776  1.00  0.00     0.021 C 
HETATM   30  C   UNL     1      23.303  39.265  46.629  1.00  0.00     0.021 C 
ENDBRANCH  25  27
ENDBRANCH   1  21
TORSDOF 2
ENDMDL
MODEL 5
REMARK VINA RESULT:      -7.8     11.363     14.638
REMARK  2 active torsions:
REMARK  status: ('A' for Active; 'I' for Inactive)
REMARK    1  A    between atoms: C_2  and  C_3 
REMARK    2  A    between atoms: C_7  and  C_8 
REMARK       I    between atoms: C_8  and  N_9 
ROOT
HETATM    1  C   UNL     1      33.825  51.590  43.093  1.00  0.00     0.271 C 
HETATM    2  N   UNL     1      32.670  51.521  42.292  1.00  0.00    -0.346 N 
HETATM    3  C   UNL     1      31.423  51.924  42.938  1.00  0.00     0.130 C 
HETATM    4  C   UNL     1      30.339  52.269  41.926  1.00  0.00     0.068 C 
HETATM    5  C   UNL     1      30.132  51.163  40.878  1.00  0.00     0.094 C 
HETATM    6  N   UNL     1      29.235  51.654  39.853  1.00  0.00    -0.334 N 
HETATM    7  C   UNL     1      28.607  50.827  38.961  1.00  0.00     0.255 C 
HETATM    8  O   UNL     1      28.185  51.246  37.890  1.00  0.00    -0.268 OA
HETATM    9  C   UNL     1      28.457  49.419  39.375  1.00  0.00     0.053 A 
HETATM   10  C   UNL     1      28.911  49.065  40.652  1.00  0.00     0.026 A 
HETATM   11  N   UNL     1      29.476  50.019  41.511  1.00  0.00    -0.265 NA
HETATM   12  C   UNL     1      27.854  48.485  38.527  1.00  0.00     0.019 A 
HETATM   13  C   UNL     1      27.675  47.176  38.968  1.00  0.00     0.001 A 
HETATM   14  C   UNL     1      28.077  46.818  40.255  1.00  0.00     0.002 A 
HETATM   15  C   UNL     1      28.677  47.760  41.097  1.00  0.00     0.024 A 
HETATM   16  C   UNL     1      31.486  50.770  40.258  1.00  0.00     0.068 C 
HETATM   17  C   UNL     1      32.527  50.438  41.315  1.00  0.00     0.130 C 
HETATM   18  O   UNL     1      33.758  51.847  44.294  1.00  0.00    -0.266 OA
HETATM   19  H   UNL     1      29.375  52.588  39.491  1.00  0.00     0.164 HD
HETATM   20  H   UNL     1      29.992  49.595  42.276  1.00  0.00     0.130 HD
ENDROOT
BRANCH   1  21
HETATM   21  C   UNL     1      35.088  51.379  42.436  1.00  0.00     0.119 A 
HETATM   22  N   UNL     1      35.990  50.405  42.758  1.00  0.00    -0.273 N 
HETATM   23  N   UNL     1      37.109  50.428  42.021  1.00  0.00    -0.178 NA
HETATM   24  H   UNL     1      35.908  49.704  43.487  1.00  0.00     0.189 HD
HETATM   25  C   UNL     1      36.891  51.395  41.116  1.00  0.00     0.064 A 
HETATM   26  C   UNL     1      35.622  51.996  41.323  1.00  0.00     0.066 A 
BRANCH  25  27
HETATM   27  C   UNL     1      37.942  51.705  40.063  1.00  0.00    -0.005 C 
HETATM   28  C   UNL     1      37.985  53.222  39.791  1.00  0.00     0.021 C 
HETATM   29  C   UNL     1      37.609  50.969  38.747  1.00  0.00     0.021 C 
HETATM   30  C   UNL     1      39.350  51.259  40.509  1.00  0.00     0.021 C 
ENDBRANCH  25  27
ENDBRANCH   1  21
TORSDOF 2
ENDMDL
MODEL 6
REMARK VINA RESULT:      -7.8     10.254     11.712
REMARK  2 active torsions:
REMARK  status: ('A' for Active; 'I' for Inactive)
REMARK    1  A    between atoms: C_2  and  C_3 
REMARK    2  A    between atoms: C_7  and  C_8 
REMARK       I    between atoms: C_8  and  N_9 
ROOT
HETATM    1  C   UNL     1      26.117  47.426  39.288  1.00  0.00     0.271 C 
HETATM    2  N   UNL     1      27.410  47.979  39.214  1.00  0.00    -0.346 N 
HETATM    3  C   UNL     1      28.510  47.018  39.170  1.00  0.00     0.130 C 
HETATM    4  C   UNL     1      29.791  47.639  38.630  1.00  0.00     0.068 C 
HETATM    5  C   UNL     1      30.170  48.941  39.355  1.00  0.00     0.094 C 
HETATM    6  N   UNL     1      31.276  49.559  38.655  1.00  0.00    -0.334 N 
HETATM    7  C   UNL     1      32.045  50.546  39.210  1.00  0.00     0.255 C 
HETATM    8  O   UNL     1      32.694  51.318  38.515  1.00  0.00    -0.268 OA
HETATM    9  C   UNL     1      32.056  50.609  40.684  1.00  0.00     0.053 A 
HETATM   10  C   UNL     1      31.336  49.631  41.381  1.00  0.00     0.026 A 
HETATM   11  N   UNL     1      30.640  48.620  40.703  1.00  0.00    -0.265 NA
HETATM   12  C   UNL     1      32.788  51.596  41.351  1.00  0.00     0.019 A 
HETATM   13  C   UNL     1      32.826  51.595  42.744  1.00  0.00     0.001 A 
HETATM   14  C   UNL     1      32.154  50.600  43.454  1.00  0.00     0.002 A 
HETATM   15  C   UNL     1      31.427  49.615  42.777  1.00  0.00     0.024 A 
HETATM   16  C   UNL     1      28.960  49.894  39.387  1.00  0.00     0.068 C 
HETATM   17  C   UNL     1      27.712  49.218  39.933  1.00  0.00     0.130 C 
HETATM   18  O   UNL     1      25.944  46.218  39.439  1.00  0.00    -0.266 OA
HETATM   19  H   UNL     1      31.248  49.606  37.645  1.00  0.00     0.164 HD
HETATM   20  H   UNL     1      29.963  48.150  41.295  1.00  0.00     0.130 HD
ENDROOT
BRANCH   1  21
HETATM   21  C   UNL     1      25.010  48.336  39.146  1.00  0.00     0.119 A 
HETATM   22  N   UNL     1      24.922  49.328  38.211  1.00  0.00    -0.273 N 
HETATM   23  N   UNL     1      23.806  50.064  38.297  1.00  0.00    -0.178 NA
HETATM   24  H   UNL     1      25.602  49.566  37.497  1.00  0.00     0.189 HD
HETATM   25  C   UNL     1      23.090  49.471  39.266  1.00  0.00     0.064 A 
HETATM   26  C   UNL     1      23.798  48.365  39.803  1.00  0.00     0.066 A 
BRANCH  25  27
HETATM   27  C   UNL     1      21.719  50.010  39.639  1.00  0.00    -0.005 C 
HETATM   28  C   UNL     1      21.859  51.397  40.297  1.00  0.00     0.021 C 
HETATM   29  C   UNL     1      21.022  49.053  40.630  1.00  0.00     0.021 C 
HETATM   30  C   UNL     1      20.805  50.157  38.405  1.00  0.00     0.021 C 
ENDBRANCH  25  27
ENDBRANCH   1  21
TORSDOF 2
ENDMDL
MODEL 7
REMARK VINA RESULT:      -7.7      9.848     12.130
REMARK  2 active torsions:
REMARK  status: ('A' for Active; 'I' for Inactive)
REMARK    1  A    between atoms: C_2  and  C_3 
REMARK    2  A    between atoms: C_7  and  C_8 
REMARK       I    between atoms: C_8  and  N_9 
ROOT
HETATM    1  C   UNL     1      27.325  50.180  38.855  1.00  0.00     0.271 C 
HETATM    2  N   UNL     1      28.260  50.680  39.781  1.00  0.00    -0.346 N 
HETATM    3  C   UNL     1      28.596  52.095  39.643  1.00  0.00     0.130 C 
HETATM    4  C   UNL     1      29.217  52.663  40.913  1.00  0.00     0.068 C 
HETATM    5  C   UNL     1      30.398  51.821  41.422  1.00  0.00     0.094 C 
HETATM    6  N   UNL     1      30.795  52.315  42.724  1.00  0.00    -0.334 N 
HETATM    7  C   UNL     1      31.995  51.997  43.302  1.00  0.00     0.255 C 
HETATM    8  O   UNL     1      32.161  52.078  44.512  1.00  0.00    -0.268 OA
HETATM    9  C   UNL     1      33.067  51.574  42.382  1.00  0.00     0.053 A 
HETATM   10  C   UNL     1      32.789  51.588  41.009  1.00  0.00     0.026 A 
HETATM   11  N   UNL     1      31.540  52.004  40.526  1.00  0.00    -0.265 NA
HETATM   12  C   UNL     1      34.323  51.201  42.871  1.00  0.00     0.019 A 
HETATM   13  C   UNL     1      35.333  50.861  41.974  1.00  0.00     0.001 A 
HETATM   14  C   UNL     1      35.088  50.916  40.602  1.00  0.00     0.002 A 
HETATM   15  C   UNL     1      33.829  51.293  40.122  1.00  0.00     0.024 A 
HETATM   16  C   UNL     1      29.983  50.341  41.518  1.00  0.00     0.068 C 
HETATM   17  C   UNL     1      29.369  49.832  40.224  1.00  0.00     0.130 C 
HETATM   18  O   UNL     1      26.924  50.864  37.915  1.00  0.00    -0.266 OA
HETATM   19  H   UNL     1      30.077  52.529  43.403  1.00  0.00     0.164 HD
HETATM   20  H   UNL     1      31.382  51.722  39.564  1.00  0.00     0.130 HD
ENDROOT
BRANCH   1  21
HETATM   21  C   UNL     1      26.836  48.844  39.079  1.00  0.00     0.119 A 
HETATM   22  N   UNL     1      27.069  47.773  38.264  1.00  0.00    -0.273 N 
HETATM   23  N   UNL     1      26.483  46.639  38.668  1.00  0.00    -0.178 NA
HETATM   24  H   UNL     1      27.607  47.758  37.404  1.00  0.00     0.189 HD
HETATM   25  C   UNL     1      25.922  46.955  39.845  1.00  0.00     0.064 A 
HETATM   26  C   UNL     1      26.146  48.322  40.154  1.00  0.00     0.066 A 
BRANCH  25  27
HETATM   27  C   UNL     1      25.176  45.898  40.643  1.00  0.00    -0.005 C 
HETATM   28  C   UNL     1      24.797  44.717  39.728  1.00  0.00     0.021 C 
HETATM   29  C   UNL     1      23.888  46.498  41.248  1.00  0.00     0.021 C 
HETATM   30  C   UNL     1      26.030  45.348  41.804  1.00  0.00     0.021 C 
ENDBRANCH  25  27
ENDBRANCH   1  21
TORSDOF 2
ENDMDL
MODEL 8
REMARK VINA RESULT:      -7.6     12.393     15.477
REMARK  2 active torsions:
REMARK  status: ('A' for Active; 'I' for Inactive)
REMARK    1  A    between atoms: C_2  and  C_3 
REMARK    2  A    between atoms: C_7  and  C_8 
REMARK       I    between atoms: C_8  and  N_9 
ROOT
HETATM    1  C   UNL     1      35.320  51.412  41.619  1.00  0.00     0.271 C 
HETATM    2  N   UNL     1      33.918  51.529  41.674  1.00  0.00    -0.346 N 
HETATM    3  C   UNL     1      33.254  50.723  42.696  1.00  0.00     0.130 C 
HETATM    4  C   UNL     1      31.854  51.235  43.007  1.00  0.00     0.068 C 
HETATM    5  C   UNL     1      30.994  51.417  41.745  1.00  0.00     0.094 C 
HETATM    6  N   UNL     1      29.764  52.086  42.112  1.00  0.00    -0.334 N 
HETATM    7  C   UNL     1      28.666  52.115  41.295  1.00  0.00     0.255 C 
HETATM    8  O   UNL     1      27.803  52.976  41.416  1.00  0.00    -0.268 OA
HETATM    9  C   UNL     1      28.580  51.044  40.285  1.00  0.00     0.053 A 
HETATM   10  C   UNL     1      29.585  50.069  40.284  1.00  0.00     0.026 A 
HETATM   11  N   UNL     1      30.629  50.102  41.220  1.00  0.00    -0.265 NA
HETATM   12  C   UNL     1      27.512  50.997  39.383  1.00  0.00     0.019 A 
HETATM   13  C   UNL     1      27.428  49.942  38.477  1.00  0.00     0.001 A 
HETATM   14  C   UNL     1      28.394  48.936  38.494  1.00  0.00     0.002 A 
HETATM   15  C   UNL     1      29.457  48.991  39.402  1.00  0.00     0.024 A 
HETATM   16  C   UNL     1      31.765  52.251  40.704  1.00  0.00     0.068 C 
HETATM   17  C   UNL     1      33.154  51.694  40.436  1.00  0.00     0.130 C 
HETATM   18  O   UNL     1      35.922  50.585  42.301  1.00  0.00    -0.266 OA
HETATM   19  H   UNL     1      29.809  52.880  42.737  1.00  0.00     0.164 HD
HETATM   20  H   UNL     1      31.410  49.513  40.951  1.00  0.00     0.130 HD
ENDROOT
BRANCH   1  21
HETATM   21  C   UNL     1      36.017  52.328  40.754  1.00  0.00     0.119 A 
HETATM   22  N   UNL     1      36.202  53.659  41.000  1.00  0.00    -0.273 N 
HETATM   23  N   UNL     1      36.857  54.310  40.031  1.00  0.00    -0.178 NA
HETATM   24  H   UNL     1      35.886  54.187  41.807  1.00  0.00     0.189 HD
HETATM   25  C   UNL     1      37.199  53.350  39.157  1.00  0.00     0.064 A 
HETATM   26  C   UNL     1      36.717  52.087  39.590  1.00  0.00     0.066 A 
BRANCH  25  27
HETATM   27  C   UNL     1      37.999  53.700  37.913  1.00  0.00    -0.005 C 
HETATM   28  C   UNL     1      39.436  54.097  38.305  1.00  0.00     0.021 C 
HETATM   29  C   UNL     1      37.338  54.881  37.170  1.00  0.00     0.021 C 
HETATM   30  C   UNL     1      38.082  52.513  36.932  1.00  0.00     0.021 C 
ENDBRANCH  25  27
ENDBRANCH   1  21
TORSDOF 2
ENDMDL
MODEL 9
REMARK VINA RESULT:      -7.6     10.706     13.692
REMARK  2 active torsions:
REMARK  status: ('A' for Active; 'I' for Inactive)
REMARK    1  A    between atoms: C_2  and  C_3 
REMARK    2  A    between atoms: C_7  and  C_8 
REMARK       I    between atoms: C_8  and  N_9 
ROOT
HETATM    1  C   UNL     1      31.024  52.092  41.892  1.00  0.00     0.271 C 
HETATM    2  N   UNL     1      30.025  51.526  41.077  1.00  0.00    -0.346 N 
HETATM    3  C   UNL     1      28.650  51.717  41.534  1.00  0.00     0.130 C 
HETATM    4  C   UNL     1      27.641  51.509  40.412  1.00  0.00     0.068 C 
HETATM    5  C   UNL     1      27.841  50.175  39.675  1.00  0.00     0.094 C 
HETATM    6  N   UNL     1      26.977  50.151  38.513  1.00  0.00    -0.334 N 
HETATM    7  C   UNL     1      26.684  49.000  37.832  1.00  0.00     0.255 C 
HETATM    8  O   UNL     1      26.300  49.026  36.670  1.00  0.00    -0.268 OA
HETATM    9  C   UNL     1      26.841  47.742  38.586  1.00  0.00     0.053 A 
HETATM   10  C   UNL     1      27.216  47.833  39.932  1.00  0.00     0.026 A 
HETATM   11  N   UNL     1      27.421  49.077  40.546  1.00  0.00    -0.265 NA
HETATM   12  C   UNL     1      26.594  46.508  37.976  1.00  0.00     0.019 A 
HETATM   13  C   UNL     1      26.696  45.340  38.728  1.00  0.00     0.001 A 
HETATM   14  C   UNL     1      27.021  45.416  40.083  1.00  0.00     0.002 A 
HETATM   15  C   UNL     1      27.264  46.655  40.685  1.00  0.00     0.024 A 
HETATM   16  C   UNL     1      29.313  50.029  39.247  1.00  0.00     0.068 C 
HETATM   17  C   UNL     1      30.272  50.249  40.406  1.00  0.00     0.130 C 
HETATM   18  O   UNL     1      30.755  52.595  42.982  1.00  0.00    -0.266 OA
HETATM   19  H   UNL     1      26.921  50.976  37.931  1.00  0.00     0.164 HD
HETATM   20  H   UNL     1      27.932  49.000  41.419  1.00  0.00     0.130 HD
ENDROOT
BRANCH   1  21
HETATM   21  C   UNL     1      32.369  52.082  41.377  1.00  0.00     0.119 A 
HETATM   22  N   UNL     1      32.810  52.820  40.315  1.00  0.00    -0.273 N 
HETATM   23  N   UNL     1      34.097  52.619  40.005  1.00  0.00    -0.178 NA
HETATM   24  H   UNL     1      32.273  53.467  39.747  1.00  0.00     0.189 HD
HETATM   25  C   UNL     1      34.543  51.788  40.960  1.00  0.00     0.064 A 
HETATM   26  C   UNL     1      33.497  51.452  41.858  1.00  0.00     0.066 A 
BRANCH  25  27
HETATM   27  C   UNL     1      35.997  51.345  40.966  1.00  0.00    -0.005 C 
HETATM   28  C   UNL     1      36.266  50.438  42.184  1.00  0.00     0.021 C 
HETATM   29  C   UNL     1      36.928  52.574  41.041  1.00  0.00     0.021 C 
HETATM   30  C   UNL     1      36.362  50.555  39.693  1.00  0.00     0.021 C 
ENDBRANCH  25  27
ENDBRANCH   1  21
TORSDOF 2
ENDMDL
MODEL 10
REMARK VINA RESULT:      -7.5      9.984     13.305
REMARK  2 active torsions:
REMARK  status: ('A' for Active; 'I' for Inactive)
REMARK    1  A    between atoms: C_2  and  C_3 
REMARK    2  A    between atoms: C_7  and  C_8 
REMARK       I    between atoms: C_8  and  N_9 
ROOT
HETATM    1  C   UNL     1      27.178  45.867  37.962  1.00  0.00     0.271 C 
HETATM    2  N   UNL     1      27.292  47.196  38.413  1.00  0.00    -0.346 N 
HETATM    3  C   UNL     1      26.871  48.225  37.465  1.00  0.00     0.130 C 
HETATM    4  C   UNL     1      26.579  49.552  38.154  1.00  0.00     0.068 C 
HETATM    5  C   UNL     1      27.732  50.016  39.061  1.00  0.00     0.094 C 
HETATM    6  N   UNL     1      27.293  51.168  39.819  1.00  0.00    -0.334 N 
HETATM    7  C   UNL     1      28.163  52.000  40.471  1.00  0.00     0.255 C 
HETATM    8  O   UNL     1      27.795  52.707  41.401  1.00  0.00    -0.268 OA
HETATM    9  C   UNL     1      29.553  52.003  39.976  1.00  0.00     0.053 A 
HETATM   10  C   UNL     1      29.847  51.210  38.860  1.00  0.00     0.026 A 
HETATM   11  N   UNL     1      28.852  50.450  38.227  1.00  0.00    -0.265 NA
HETATM   12  C   UNL     1      30.527  52.796  40.589  1.00  0.00     0.019 A 
HETATM   13  C   UNL     1      31.818  52.822  40.065  1.00  0.00     0.001 A 
HETATM   14  C   UNL     1      32.117  52.076  38.924  1.00  0.00     0.002 A 
HETATM   15  C   UNL     1      31.133  51.287  38.317  1.00  0.00     0.024 A 
HETATM   16  C   UNL     1      28.140  48.875  40.012  1.00  0.00     0.068 C 
HETATM   17  C   UNL     1      28.417  47.578  39.269  1.00  0.00     0.130 C 
HETATM   18  O   UNL     1      26.870  45.607  36.800  1.00  0.00    -0.266 OA
HETATM   19  H   UNL     1      26.375  51.152  40.242  1.00  0.00     0.164 HD
HETATM   20  H   UNL     1      29.238  49.737  37.617  1.00  0.00     0.130 HD
ENDROOT
BRANCH   1  21
HETATM   21  C   UNL     1      27.407  44.828  38.932  1.00  0.00     0.119 A 
HETATM   22  N   UNL     1      28.575  44.135  39.083  1.00  0.00    -0.273 N 
HETATM   23  N   UNL     1      28.535  43.194  40.035  1.00  0.00    -0.178 NA
HETATM   24  H   UNL     1      29.431  44.245  38.550  1.00  0.00     0.189 HD
HETATM   25  C   UNL     1      27.324  43.340  40.597  1.00  0.00     0.064 A 
HETATM   26  C   UNL     1      26.597  44.375  39.953  1.00  0.00     0.066 A 
BRANCH  25  27
HETATM   27  C   UNL     1      26.912  42.454  41.761  1.00  0.00    -0.005 C 
HETATM   28  C   UNL     1      25.948  41.355  41.271  1.00  0.00     0.021 C 
HETATM   29  C   UNL     1      26.204  43.295  42.845  1.00  0.00     0.021 C 
HETATM   30  C   UNL     1      28.127  41.766  42.417  1.00  0.00     0.021 C 
ENDBRANCH  25  27
ENDBRANCH   1  21
TORSDOF 2
ENDMDL
