MODEL 1
REMARK VINA RESULT:     -10.5      0.000      0.000
REMARK  8 active torsions:
REMARK  status: ('A' for Active; 'I' for Inactive)
REMARK    1  A    between atoms: N_2  and  C_3 
REMARK    2  A    between atoms: C_4  and  C_5 
REMARK       I    between atoms: C_5  and  N_6 
REMARK    3  A    between atoms: N_6  and  C_7 
REMARK    4  A    between atoms: C_7  and  C_8 
REMARK    5  A    between atoms: N_13  and  C_15 
REMARK    6  A    between atoms: C_15  and  C_16 
REMARK    7  A    between atoms: C_16  and  C_17 
REMARK    8  A    between atoms: C_17  and  C_18 
ROOT
HETATM    1  C   UNL     1      24.209  47.500  50.100  1.00  0.00     0.140 C 
HETATM    2  O   UNL     1      24.737  46.187  50.393  1.00  0.00    -0.373 OA
HETATM    3  C   UNL     1      26.128  46.336  50.751  1.00  0.00     0.064 C 
HETATM    4  C   UNL     1      26.917  45.324  49.912  1.00  0.00     0.066 C 
HETATM    5  C   UNL     1      26.597  43.884  50.303  1.00  0.00     0.237 C 
HETATM    6  N   UNL     1      26.806  43.665  51.790  1.00  0.00    -0.071 N 
HETATM    7  H   UNL     1      26.428  42.726  51.972  1.00  0.00     0.279 HD
HETATM    8  C   UNL     1      25.923  44.610  52.577  1.00  0.00     0.237 C 
HETATM    9  C   UNL     1      26.269  46.053  52.250  1.00  0.00     0.066 C 
HETATM   10  C   UNL     1      26.513  47.785  50.421  1.00  0.00     0.041 C 
HETATM   11  C   UNL     1      25.394  48.252  49.521  1.00  0.00     0.036 C 
ENDROOT
BRANCH   1  12
HETATM   12  C   UNL     1      23.013  47.420  49.149  1.00  0.00     0.155 C 
BRANCH  12  13
HETATM   13  N   UNL     1      22.052  48.480  49.371  1.00  0.00    -0.354 N 
HETATM   14  C   UNL     1      21.340  49.025  48.313  1.00  0.00     0.253 C 
HETATM   15  O   UNL     1      21.536  48.689  47.152  1.00  0.00    -0.268 OA
HETATM   16  H   UNL     1      21.782  48.716  50.318  1.00  0.00     0.162 HD
BRANCH  14  17
HETATM   17  C   UNL     1      20.320  50.039  48.706  1.00  0.00     0.053 A 
HETATM   18  C   UNL     1      19.214  49.707  49.525  1.00  0.00     0.025 A 
HETATM   19  C   UNL     1      18.308  50.741  49.832  1.00  0.00     0.025 A 
HETATM   20  C   UNL     1      18.481  52.040  49.346  1.00  0.00     0.002 A 
HETATM   21  C   UNL     1      19.565  52.344  48.532  1.00  0.00     0.001 A 
HETATM   22  C   UNL     1      20.482  51.347  48.209  1.00  0.00     0.019 A 
BRANCH  18  23
HETATM   23  N   UNL     1      19.045  48.412  50.052  1.00  0.00    -0.291 NA
HETATM   24  C   UNL     1      18.527  48.419  51.418  1.00  0.00     0.116 C 
HETATM   25  C   UNL     1      18.422  47.429  49.165  1.00  0.00     0.116 C 
ENDBRANCH  18  23
ENDBRANCH  14  17
ENDBRANCH  12  13
ENDBRANCH   1  12
BRANCH   6  26
HETATM   26  C   UNL     1      28.272  43.618  52.173  1.00  0.00     0.235 C 
BRANCH  26  27
HETATM   27  C   UNL     1      28.523  43.294  53.642  1.00  0.00     0.032 C 
BRANCH  27  28
HETATM   28  C   UNL     1      30.001  43.184  54.018  1.00  0.00     0.040 C 
BRANCH  28  29
HETATM   29  C   UNL     1      30.258  43.826  55.357  1.00  0.00    -0.058 A 
HETATM   30  C   UNL     1      29.636  45.036  55.696  1.00  0.00     0.007 A 
HETATM   31  C   UNL     1      29.907  45.651  56.920  1.00  0.00     0.001 A 
HETATM   32  C   UNL     1      30.802  45.065  57.813  1.00  0.00     0.000 A 
HETATM   33  C   UNL     1      31.425  43.863  57.485  1.00  0.00     0.001 A 
HETATM   34  C   UNL     1      31.154  43.245  56.263  1.00  0.00     0.007 A 
ENDBRANCH  28  29
ENDBRANCH  27  28
ENDBRANCH  26  27
ENDBRANCH   6  26
TORSDOF 8
ENDMDL
MODEL 2
REMARK VINA RESULT:      -9.6      1.385      2.144
REMARK  8 active torsions:
REMARK  status: ('A' for Active; 'I' for Inactive)
REMARK    1  A    between atoms: N_2  and  C_3 
REMARK    2  A    between atoms: C_4  and  C_5 
REMARK       I    between atoms: C_5  and  N_6 
REMARK    3  A    between atoms: N_6  and  C_7 
REMARK    4  A    between atoms: C_7  and  C_8 
REMARK    5  A    between atoms: N_13  and  C_15 
REMARK    6  A    between atoms: C_15  and  C_16 
REMARK    7  A    between atoms: C_16  and  C_17 
REMARK    8  A    between atoms: C_17  and  C_18 
ROOT
HETATM    1  C   UNL     1      24.723  46.837  49.303  1.00  0.00     0.140 C 
HETATM    2  O   UNL     1      25.663  46.444  50.328  1.00  0.00    -0.373 OA
HETATM    3  C   UNL     1      25.281  45.135  50.803  1.00  0.00     0.064 C 
HETATM    4  C   UNL     1      25.238  45.209  52.334  1.00  0.00     0.066 C 
HETATM    5  C   UNL     1      26.624  45.421  52.936  1.00  0.00     0.237 C 
HETATM    6  N   UNL     1      27.595  44.359  52.453  1.00  0.00    -0.071 N 
HETATM    7  H   UNL     1      28.515  44.673  52.790  1.00  0.00     0.279 HD
HETATM    8  C   UNL     1      27.688  44.399  50.942  1.00  0.00     0.237 C 
HETATM    9  C   UNL     1      26.330  44.127  50.320  1.00  0.00     0.066 C 
HETATM   10  C   UNL     1      23.902  44.834  50.200  1.00  0.00     0.041 C 
HETATM   11  C   UNL     1      23.420  46.185  49.729  1.00  0.00     0.036 C 
ENDROOT
BRANCH   1  12
HETATM   12  C   UNL     1      24.633  48.360  49.184  1.00  0.00     0.155 C 
BRANCH  12  13
HETATM   13  N   UNL     1      23.266  48.837  49.165  1.00  0.00    -0.354 N 
HETATM   14  C   UNL     1      22.815  49.655  48.139  1.00  0.00     0.253 C 
HETATM   15  O   UNL     1      23.556  50.060  47.253  1.00  0.00    -0.268 OA
HETATM   16  H   UNL     1      22.593  48.447  49.813  1.00  0.00     0.162 HD
BRANCH  14  17
HETATM   17  C   UNL     1      21.363  49.987  48.201  1.00  0.00     0.053 A 
HETATM   18  C   UNL     1      20.363  48.999  48.040  1.00  0.00     0.025 A 
HETATM   19  C   UNL     1      19.021  49.424  48.113  1.00  0.00     0.025 A 
HETATM   20  C   UNL     1      18.684  50.764  48.327  1.00  0.00     0.002 A 
HETATM   21  C   UNL     1      19.680  51.722  48.469  1.00  0.00     0.001 A 
HETATM   22  C   UNL     1      21.017  51.338  48.403  1.00  0.00     0.019 A 
BRANCH  18  23
HETATM   23  N   UNL     1      20.686  47.640  47.860  1.00  0.00    -0.291 NA
HETATM   24  C   UNL     1      20.019  46.767  48.822  1.00  0.00     0.116 C 
HETATM   25  C   UNL     1      20.680  47.151  46.480  1.00  0.00     0.116 C 
ENDBRANCH  18  23
ENDBRANCH  14  17
ENDBRANCH  12  13
ENDBRANCH   1  12
BRANCH   6  26
HETATM   26  C   UNL     1      27.345  43.006  53.089  1.00  0.00     0.235 C 
BRANCH  26  27
HETATM   27  C   UNL     1      28.378  42.608  54.137  1.00  0.00     0.032 C 
BRANCH  27  28
HETATM   28  C   UNL     1      29.720  43.329  54.002  1.00  0.00     0.040 C 
BRANCH  28  29
HETATM   29  C   UNL     1      30.153  43.896  55.329  1.00  0.00    -0.058 A 
HETATM   30  C   UNL     1      31.070  43.204  56.133  1.00  0.00     0.007 A 
HETATM   31  C   UNL     1      31.440  43.710  57.380  1.00  0.00     0.001 A 
HETATM   32  C   UNL     1      30.894  44.909  57.837  1.00  0.00     0.000 A 
HETATM   33  C   UNL     1      29.982  45.604  57.046  1.00  0.00     0.001 A 
HETATM   34  C   UNL     1      29.613  45.101  55.798  1.00  0.00     0.007 A 
ENDBRANCH  28  29
ENDBRANCH  27  28
ENDBRANCH  26  27
ENDBRANCH   6  26
TORSDOF 8
ENDMDL
MODEL 3
REMARK VINA RESULT:      -9.5      1.647      3.203
REMARK  8 active torsions:
REMARK  status: ('A' for Active; 'I' for Inactive)
REMARK    1  A    between atoms: N_2  and  C_3 
REMARK    2  A    between atoms: C_4  and  C_5 
REMARK       I    between atoms: C_5  and  N_6 
REMARK    3  A    between atoms: N_6  and  C_7 
REMARK    4  A    between atoms: C_7  and  C_8 
REMARK    5  A    between atoms: N_13  and  C_15 
REMARK    6  A    between atoms: C_15  and  C_16 
REMARK    7  A    between atoms: C_16  and  C_17 
REMARK    8  A    between atoms: C_17  and  C_18 
ROOT
HETATM    1  C   UNL     1      23.089  44.522  48.556  1.00  0.00     0.140 C 
HETATM    2  O   UNL     1      23.850  44.818  49.749  1.00  0.00    -0.373 OA
HETATM    3  C   UNL     1      24.911  43.844  49.853  1.00  0.00     0.064 C 
HETATM    4  C   UNL     1      24.865  43.283  51.280  1.00  0.00     0.066 C 
HETATM    5  C   UNL     1      25.238  44.334  52.320  1.00  0.00     0.237 C 
HETATM    6  N   UNL     1      26.586  44.958  52.005  1.00  0.00    -0.071 N 
HETATM    7  H   UNL     1      26.674  45.741  52.666  1.00  0.00     0.279 HD
HETATM    8  C   UNL     1      26.548  45.595  50.632  1.00  0.00     0.237 C 
HETATM    9  C   UNL     1      26.240  44.552  49.572  1.00  0.00     0.066 C 
HETATM   10  C   UNL     1      24.622  42.766  48.799  1.00  0.00     0.041 C 
HETATM   11  C   UNL     1      23.179  43.012  48.429  1.00  0.00     0.036 C 
ENDROOT
BRANCH   1  12
HETATM   12  C   UNL     1      21.654  45.040  48.669  1.00  0.00     0.155 C 
BRANCH  12  13
HETATM   13  N   UNL     1      21.590  46.482  48.794  1.00  0.00    -0.354 N 
HETATM   14  C   UNL     1      21.623  47.293  47.670  1.00  0.00     0.253 C 
HETATM   15  O   UNL     1      21.772  46.841  46.542  1.00  0.00    -0.268 OA
HETATM   16  H   UNL     1      21.362  46.894  49.690  1.00  0.00     0.162 HD
BRANCH  14  17
HETATM   17  C   UNL     1      21.452  48.748  47.947  1.00  0.00     0.053 A 
HETATM   18  C   UNL     1      22.534  49.561  48.361  1.00  0.00     0.025 A 
HETATM   19  C   UNL     1      22.260  50.923  48.599  1.00  0.00     0.025 A 
HETATM   20  C   UNL     1      20.976  51.454  48.445  1.00  0.00     0.002 A 
HETATM   21  C   UNL     1      19.923  50.636  48.052  1.00  0.00     0.001 A 
HETATM   22  C   UNL     1      20.158  49.286  47.807  1.00  0.00     0.019 A 
BRANCH  18  23
HETATM   23  N   UNL     1      23.840  49.050  48.486  1.00  0.00    -0.291 NA
HETATM   24  C   UNL     1      24.863  49.992  48.037  1.00  0.00     0.116 C 
HETATM   25  C   UNL     1      24.148  48.361  49.740  1.00  0.00     0.116 C 
ENDBRANCH  18  23
ENDBRANCH  14  17
ENDBRANCH  12  13
ENDBRANCH   1  12
BRANCH   6  26
HETATM   26  C   UNL     1      27.744  44.022  52.294  1.00  0.00     0.235 C 
BRANCH  26  27
HETATM   27  C   UNL     1      28.102  43.910  53.771  1.00  0.00     0.032 C 
BRANCH  27  28
HETATM   28  C   UNL     1      29.492  43.333  54.039  1.00  0.00     0.040 C 
BRANCH  28  29
HETATM   29  C   UNL     1      30.058  43.884  55.322  1.00  0.00    -0.058 A 
HETATM   30  C   UNL     1      30.999  43.150  56.058  1.00  0.00     0.007 A 
HETATM   31  C   UNL     1      31.492  43.644  57.267  1.00  0.00     0.001 A 
HETATM   32  C   UNL     1      31.047  44.871  57.754  1.00  0.00     0.000 A 
HETATM   33  C   UNL     1      30.112  45.609  57.031  1.00  0.00     0.001 A 
HETATM   34  C   UNL     1      29.620  45.118  55.820  1.00  0.00     0.007 A 
ENDBRANCH  28  29
ENDBRANCH  27  28
ENDBRANCH  26  27
ENDBRANCH   6  26
TORSDOF 8
ENDMDL
MODEL 4
REMARK VINA RESULT:      -9.5      1.654      2.729
REMARK  8 active torsions:
REMARK  status: ('A' for Active; 'I' for Inactive)
REMARK    1  A    between atoms: N_2  and  C_3 
REMARK    2  A    between atoms: C_4  and  C_5 
REMARK       I    between atoms: C_5  and  N_6 
REMARK    3  A    between atoms: N_6  and  C_7 
REMARK    4  A    between atoms: C_7  and  C_8 
REMARK    5  A    between atoms: N_13  and  C_15 
REMARK    6  A    between atoms: C_15  and  C_16 
REMARK    7  A    between atoms: C_16  and  C_17 
REMARK    8  A    between atoms: C_17  and  C_18 
ROOT
HETATM    1  C   UNL     1      23.488  44.213  48.554  1.00  0.00     0.140 C 
HETATM    2  O   UNL     1      24.212  44.531  49.764  1.00  0.00    -0.373 OA
HETATM    3  C   UNL     1      25.201  43.501  49.975  1.00  0.00     0.064 C 
HETATM    4  C   UNL     1      25.054  43.030  51.427  1.00  0.00     0.066 C 
HETATM    5  C   UNL     1      25.447  44.116  52.423  1.00  0.00     0.237 C 
HETATM    6  N   UNL     1      26.846  44.634  52.140  1.00  0.00    -0.071 N 
HETATM    7  H   UNL     1      26.954  45.448  52.759  1.00  0.00     0.279 HD
HETATM    8  C   UNL     1      26.912  45.190  50.733  1.00  0.00     0.237 C 
HETATM    9  C   UNL     1      26.585  44.107  49.720  1.00  0.00     0.066 C 
HETATM   10  C   UNL     1      24.890  42.382  48.971  1.00  0.00     0.041 C 
HETATM   11  C   UNL     1      23.485  42.695  48.517  1.00  0.00     0.036 C 
ENDROOT
BRANCH   1  12
HETATM   12  C   UNL     1      22.086  44.826  48.566  1.00  0.00     0.155 C 
BRANCH  12  13
HETATM   13  N   UNL     1      22.106  46.257  48.783  1.00  0.00    -0.354 N 
HETATM   14  C   UNL     1      22.023  47.137  47.714  1.00  0.00     0.253 C 
HETATM   15  O   UNL     1      21.998  46.752  46.552  1.00  0.00    -0.268 OA
HETATM   16  H   UNL     1      22.019  46.619  49.724  1.00  0.00     0.162 HD
BRANCH  14  17
HETATM   17  C   UNL     1      21.957  48.577  48.097  1.00  0.00     0.053 A 
HETATM   18  C   UNL     1      20.769  49.165  48.590  1.00  0.00     0.025 A 
HETATM   19  C   UNL     1      20.817  50.535  48.918  1.00  0.00     0.025 A 
HETATM   20  C   UNL     1      21.983  51.289  48.757  1.00  0.00     0.002 A 
HETATM   21  C   UNL     1      23.136  50.697  48.257  1.00  0.00     0.001 A 
HETATM   22  C   UNL     1      23.125  49.345  47.924  1.00  0.00     0.019 A 
BRANCH  18  23
HETATM   23  N   UNL     1      19.596  48.411  48.792  1.00  0.00    -0.291 NA
HETATM   24  C   UNL     1      19.077  48.524  50.152  1.00  0.00     0.116 C 
HETATM   25  C   UNL     1      18.584  48.495  47.739  1.00  0.00     0.116 C 
ENDBRANCH  18  23
ENDBRANCH  14  17
ENDBRANCH  12  13
ENDBRANCH   1  12
BRANCH   6  26
HETATM   26  C   UNL     1      27.926  43.647  52.538  1.00  0.00     0.235 C 
BRANCH  26  27
HETATM   27  C   UNL     1      28.404  43.792  53.978  1.00  0.00     0.032 C 
BRANCH  27  28
HETATM   28  C   UNL     1      29.896  43.524  54.175  1.00  0.00     0.040 C 
BRANCH  28  29
HETATM   29  C   UNL     1      30.347  44.000  55.532  1.00  0.00    -0.058 A 
HETATM   30  C   UNL     1      31.249  43.240  56.289  1.00  0.00     0.007 A 
HETATM   31  C   UNL     1      31.634  43.662  57.563  1.00  0.00     0.001 A 
HETATM   32  C   UNL     1      31.119  44.843  58.093  1.00  0.00     0.000 A 
HETATM   33  C   UNL     1      30.222  45.606  57.349  1.00  0.00     0.001 A 
HETATM   34  C   UNL     1      29.837  45.187  56.074  1.00  0.00     0.007 A 
ENDBRANCH  28  29
ENDBRANCH  27  28
ENDBRANCH  26  27
ENDBRANCH   6  26
TORSDOF 8
ENDMDL
MODEL 5
REMARK VINA RESULT:      -9.4      1.416      2.127
REMARK  8 active torsions:
REMARK  status: ('A' for Active; 'I' for Inactive)
REMARK    1  A    between atoms: N_2  and  C_3 
REMARK    2  A    between atoms: C_4  and  C_5 
REMARK       I    between atoms: C_5  and  N_6 
REMARK    3  A    between atoms: N_6  and  C_7 
REMARK    4  A    between atoms: C_7  and  C_8 
REMARK    5  A    between atoms: N_13  and  C_15 
REMARK    6  A    between atoms: C_15  and  C_16 
REMARK    7  A    between atoms: C_16  and  C_17 
REMARK    8  A    between atoms: C_17  and  C_18 
ROOT
HETATM    1  C   UNL     1      23.973  47.158  49.683  1.00  0.00     0.140 C 
HETATM    2  O   UNL     1      24.595  45.927  50.114  1.00  0.00    -0.373 OA
HETATM    3  C   UNL     1      25.860  46.259  50.727  1.00  0.00     0.064 C 
HETATM    4  C   UNL     1      26.919  45.352  50.088  1.00  0.00     0.066 C 
HETATM    5  C   UNL     1      26.714  43.886  50.456  1.00  0.00     0.237 C 
HETATM    6  N   UNL     1      26.656  43.706  51.962  1.00  0.00    -0.071 N 
HETATM    7  H   UNL     1      26.372  42.727  52.098  1.00  0.00     0.279 HD
HETATM    8  C   UNL     1      25.525  44.534  52.534  1.00  0.00     0.237 C 
HETATM    9  C   UNL     1      25.742  46.007  52.234  1.00  0.00     0.066 C 
HETATM   10  C   UNL     1      26.116  47.743  50.430  1.00  0.00     0.041 C 
HETATM   11  C   UNL     1      25.143  48.054  49.318  1.00  0.00     0.036 C 
ENDROOT
BRANCH   1  12
HETATM   12  C   UNL     1      23.004  46.917  48.524  1.00  0.00     0.155 C 
BRANCH  12  13
HETATM   13  N   UNL     1      22.209  48.085  48.209  1.00  0.00    -0.354 N 
HETATM   14  C   UNL     1      20.842  48.096  48.441  1.00  0.00     0.253 C 
HETATM   15  O   UNL     1      20.242  47.112  48.852  1.00  0.00    -0.268 OA
HETATM   16  H   UNL     1      22.673  48.953  47.968  1.00  0.00     0.162 HD
BRANCH  14  17
HETATM   17  C   UNL     1      20.173  49.399  48.158  1.00  0.00     0.053 A 
HETATM   18  C   UNL     1      20.650  50.616  48.700  1.00  0.00     0.025 A 
HETATM   19  C   UNL     1      19.940  51.788  48.371  1.00  0.00     0.025 A 
HETATM   20  C   UNL     1      18.807  51.757  47.553  1.00  0.00     0.002 A 
HETATM   21  C   UNL     1      18.345  50.550  47.043  1.00  0.00     0.001 A 
HETATM   22  C   UNL     1      19.023  49.372  47.345  1.00  0.00     0.019 A 
BRANCH  18  23
HETATM   23  N   UNL     1      21.811  50.669  49.496  1.00  0.00    -0.291 NA
HETATM   24  C   UNL     1      22.951  51.256  48.797  1.00  0.00     0.116 C 
HETATM   25  C   UNL     1      21.630  51.131  50.873  1.00  0.00     0.116 C 
ENDBRANCH  18  23
ENDBRANCH  14  17
ENDBRANCH  12  13
ENDBRANCH   1  12
BRANCH   6  26
HETATM   26  C   UNL     1      28.014  43.853  52.620  1.00  0.00     0.235 C 
BRANCH  26  27
HETATM   27  C   UNL     1      27.958  44.023  54.134  1.00  0.00     0.032 C 
BRANCH  27  28
HETATM   28  C   UNL     1      28.703  45.252  54.656  1.00  0.00     0.040 C 
BRANCH  28  29
HETATM   29  C   UNL     1      29.693  44.860  55.723  1.00  0.00    -0.058 A 
HETATM   30  C   UNL     1      30.495  43.721  55.564  1.00  0.00     0.007 A 
HETATM   31  C   UNL     1      31.382  43.335  56.571  1.00  0.00     0.001 A 
HETATM   32  C   UNL     1      31.473  44.080  57.745  1.00  0.00     0.000 A 
HETATM   33  C   UNL     1      30.680  45.214  57.912  1.00  0.00     0.001 A 
HETATM   34  C   UNL     1      29.794  45.603  56.906  1.00  0.00     0.007 A 
ENDBRANCH  28  29
ENDBRANCH  27  28
ENDBRANCH  26  27
ENDBRANCH   6  26
TORSDOF 8
ENDMDL
MODEL 6
REMARK VINA RESULT:      -9.3      2.916     10.085
REMARK  8 active torsions:
REMARK  status: ('A' for Active; 'I' for Inactive)
REMARK    1  A    between atoms: N_2  and  C_3 
REMARK    2  A    between atoms: C_4  and  C_5 
REMARK       I    between atoms: C_5  and  N_6 
REMARK    3  A    between atoms: N_6  and  C_7 
REMARK    4  A    between atoms: C_7  and  C_8 
REMARK    5  A    between atoms: N_13  and  C_15 
REMARK    6  A    between atoms: C_15  and  C_16 
REMARK    7  A    between atoms: C_16  and  C_17 
REMARK    8  A    between atoms: C_17  and  C_18 
ROOT
HETATM    1  C   UNL     1      27.200  41.033  51.831  1.00  0.00     0.140 C 
HETATM    2  O   UNL     1      26.809  42.362  51.420  1.00  0.00    -0.373 OA
HETATM    3  C   UNL     1      25.877  42.233  50.324  1.00  0.00     0.064 C 
HETATM    4  C   UNL     1      26.369  43.160  49.206  1.00  0.00     0.066 C 
HETATM    5  C   UNL     1      26.264  44.631  49.596  1.00  0.00     0.237 C 
HETATM    6  N   UNL     1      24.853  44.979  50.033  1.00  0.00    -0.071 N 
HETATM    7  H   UNL     1      24.923  45.934  50.409  1.00  0.00     0.279 HD
HETATM    8  C   UNL     1      24.453  44.115  51.210  1.00  0.00     0.237 C 
HETATM    9  C   UNL     1      24.489  42.646  50.825  1.00  0.00     0.066 C 
HETATM   10  C   UNL     1      25.898  40.757  49.902  1.00  0.00     0.041 C 
HETATM   11  C   UNL     1      27.154  40.223  50.548  1.00  0.00     0.036 C 
ENDROOT
BRANCH   1  12
HETATM   12  C   UNL     1      28.576  41.039  52.500  1.00  0.00     0.155 C 
BRANCH  12  13
HETATM   13  N   UNL     1      28.666  42.001  53.579  1.00  0.00    -0.354 N 
HETATM   14  C   UNL     1      29.582  43.041  53.528  1.00  0.00     0.253 C 
HETATM   15  O   UNL     1      30.390  43.155  52.615  1.00  0.00    -0.268 OA
HETATM   16  H   UNL     1      27.954  42.009  54.299  1.00  0.00     0.162 HD
BRANCH  14  17
HETATM   17  C   UNL     1      29.493  44.004  54.662  1.00  0.00     0.053 A 
HETATM   18  C   UNL     1      28.349  44.810  54.870  1.00  0.00     0.025 A 
HETATM   19  C   UNL     1      28.373  45.690  55.971  1.00  0.00     0.025 A 
HETATM   20  C   UNL     1      29.480  45.775  56.821  1.00  0.00     0.002 A 
HETATM   21  C   UNL     1      30.601  44.987  56.592  1.00  0.00     0.001 A 
HETATM   22  C   UNL     1      30.611  44.105  55.514  1.00  0.00     0.019 A 
BRANCH  18  23
HETATM   23  N   UNL     1      27.211  44.710  54.045  1.00  0.00    -0.291 NA
HETATM   24  C   UNL     1      26.120  43.968  54.672  1.00  0.00     0.116 C 
HETATM   25  C   UNL     1      26.805  45.934  53.353  1.00  0.00     0.116 C 
ENDBRANCH  18  23
ENDBRANCH  14  17
ENDBRANCH  12  13
ENDBRANCH   1  12
BRANCH   6  26
HETATM   26  C   UNL     1      23.881  45.047  48.872  1.00  0.00     0.235 C 
BRANCH  26  27
HETATM   27  C   UNL     1      23.042  46.319  48.834  1.00  0.00     0.032 C 
BRANCH  27  28
HETATM   28  C   UNL     1      23.744  47.552  49.404  1.00  0.00     0.040 C 
BRANCH  28  29
HETATM   29  C   UNL     1      22.970  48.803  49.075  1.00  0.00    -0.058 A 
HETATM   30  C   UNL     1      23.641  50.010  48.830  1.00  0.00     0.007 A 
HETATM   31  C   UNL     1      22.922  51.177  48.565  1.00  0.00     0.001 A 
HETATM   32  C   UNL     1      21.529  51.150  48.547  1.00  0.00     0.000 A 
HETATM   33  C   UNL     1      20.853  49.956  48.788  1.00  0.00     0.001 A 
HETATM   34  C   UNL     1      21.570  48.788  49.051  1.00  0.00     0.007 A 
ENDBRANCH  28  29
ENDBRANCH  27  28
ENDBRANCH  26  27
ENDBRANCH   6  26
TORSDOF 8
ENDMDL
MODEL 7
REMARK VINA RESULT:      -8.2      4.153      5.177
REMARK  8 active torsions:
REMARK  status: ('A' for Active; 'I' for Inactive)
REMARK    1  A    between atoms: N_2  and  C_3 
REMARK    2  A    between atoms: C_4  and  C_5 
REMARK       I    between atoms: C_5  and  N_6 
REMARK    3  A    between atoms: N_6  and  C_7 
REMARK    4  A    between atoms: C_7  and  C_8 
REMARK    5  A    between atoms: N_13  and  C_15 
REMARK    6  A    between atoms: C_15  and  C_16 
REMARK    7  A    between atoms: C_16  and  C_17 
REMARK    8  A    between atoms: C_17  and  C_18 
ROOT
HETATM    1  C   UNL     1      24.547  44.603  50.563  1.00  0.00     0.140 C 
HETATM    2  O   UNL     1      25.290  43.587  51.272  1.00  0.00    -0.373 OA
HETATM    3  C   UNL     1      26.697  43.854  51.089  1.00  0.00     0.064 C 
HETATM    4  C   UNL     1      27.348  42.541  50.639  1.00  0.00     0.066 C 
HETATM    5  C   UNL     1      27.323  41.484  51.738  1.00  0.00     0.237 C 
HETATM    6  N   UNL     1      27.951  42.013  53.016  1.00  0.00    -0.071 N 
HETATM    7  H   UNL     1      27.753  41.292  53.723  1.00  0.00     0.279 HD
HETATM    8  C   UNL     1      27.205  43.245  53.482  1.00  0.00     0.237 C 
HETATM    9  C   UNL     1      27.271  44.335  52.426  1.00  0.00     0.066 C 
HETATM   10  C   UNL     1      26.800  44.948  50.016  1.00  0.00     0.041 C 
HETATM   11  C   UNL     1      25.431  44.945  49.377  1.00  0.00     0.036 C 
ENDROOT
BRANCH   1  12
HETATM   12  C   UNL     1      23.158  44.101  50.164  1.00  0.00     0.155 C 
BRANCH  12  13
HETATM   13  N   UNL     1      23.028  43.899  48.736  1.00  0.00    -0.354 N 
HETATM   14  C   UNL     1      21.826  44.149  48.091  1.00  0.00     0.253 C 
HETATM   15  O   UNL     1      20.816  44.482  48.698  1.00  0.00    -0.268 OA
HETATM   16  H   UNL     1      23.857  43.727  48.180  1.00  0.00     0.162 HD
BRANCH  14  17
HETATM   17  C   UNL     1      21.870  43.988  46.609  1.00  0.00     0.053 A 
HETATM   18  C   UNL     1      21.789  42.717  45.993  1.00  0.00     0.025 A 
HETATM   19  C   UNL     1      21.843  42.680  44.586  1.00  0.00     0.025 A 
HETATM   20  C   UNL     1      21.981  43.844  43.823  1.00  0.00     0.002 A 
HETATM   21  C   UNL     1      22.074  45.082  44.447  1.00  0.00     0.001 A 
HETATM   22  C   UNL     1      22.022  45.156  45.836  1.00  0.00     0.019 A 
BRANCH  18  23
HETATM   23  N   UNL     1      21.614  41.539  46.745  1.00  0.00    -0.291 NA
HETATM   24  C   UNL     1      20.548  40.687  46.224  1.00  0.00     0.116 C 
HETATM   25  C   UNL     1      22.835  40.829  47.129  1.00  0.00     0.116 C 
ENDBRANCH  18  23
ENDBRANCH  14  17
ENDBRANCH  12  13
ENDBRANCH   1  12
BRANCH   6  26
HETATM   26  C   UNL     1      29.460  42.119  52.924  1.00  0.00     0.235 C 
BRANCH  26  27
HETATM   27  C   UNL     1      30.048  43.310  53.673  1.00  0.00     0.032 C 
BRANCH  27  28
HETATM   28  C   UNL     1      30.775  42.942  54.967  1.00  0.00     0.040 C 
BRANCH  28  29
HETATM   29  C   UNL     1      30.567  44.007  56.013  1.00  0.00    -0.058 A 
HETATM   30  C   UNL     1      31.252  43.946  57.235  1.00  0.00     0.007 A 
HETATM   31  C   UNL     1      31.028  44.910  58.220  1.00  0.00     0.001 A 
HETATM   32  C   UNL     1      30.117  45.940  57.994  1.00  0.00     0.000 A 
HETATM   33  C   UNL     1      29.432  46.011  56.783  1.00  0.00     0.001 A 
HETATM   34  C   UNL     1      29.656  45.049  55.797  1.00  0.00     0.007 A 
ENDBRANCH  28  29
ENDBRANCH  27  28
ENDBRANCH  26  27
ENDBRANCH   6  26
TORSDOF 8
ENDMDL
MODEL 8
REMARK VINA RESULT:      -8.2     12.921     16.884
REMARK  8 active torsions:
REMARK  status: ('A' for Active; 'I' for Inactive)
REMARK    1  A    between atoms: N_2  and  C_3 
REMARK    2  A    between atoms: C_4  and  C_5 
REMARK       I    between atoms: C_5  and  N_6 
REMARK    3  A    between atoms: N_6  and  C_7 
REMARK    4  A    between atoms: C_7  and  C_8 
REMARK    5  A    between atoms: N_13  and  C_15 
REMARK    6  A    between atoms: C_15  and  C_16 
REMARK    7  A    between atoms: C_16  and  C_17 
REMARK    8  A    between atoms: C_17  and  C_18 
ROOT
HETATM    1  C   UNL     1      34.035  51.412  42.424  1.00  0.00     0.140 C 
HETATM    2  O   UNL     1      33.570  50.313  41.610  1.00  0.00    -0.373 OA
HETATM    3  C   UNL     1      32.155  50.148  41.851  1.00  0.00     0.064 C 
HETATM    4  C   UNL     1      31.922  48.662  42.148  1.00  0.00     0.066 C 
HETATM    5  C   UNL     1      32.184  47.786  40.927  1.00  0.00     0.237 C 
HETATM    6  N   UNL     1      31.368  48.255  39.736  1.00  0.00    -0.071 N 
HETATM    7  H   UNL     1      31.722  47.704  38.942  1.00  0.00     0.279 HD
HETATM    8  C   UNL     1      31.714  49.692  39.411  1.00  0.00     0.237 C 
HETATM    9  C   UNL     1      31.401  50.593  40.593  1.00  0.00     0.066 C 
HETATM   10  C   UNL     1      31.808  51.039  43.051  1.00  0.00     0.041 C 
HETATM   11  C   UNL     1      33.154  51.353  43.659  1.00  0.00     0.036 C 
ENDROOT
BRANCH   1  12
HETATM   12  C   UNL     1      35.528  51.283  42.733  1.00  0.00     0.155 C 
BRANCH  12  13
HETATM   13  N   UNL     1      36.109  52.523  43.204  1.00  0.00    -0.354 N 
HETATM   14  C   UNL     1      37.182  52.516  44.082  1.00  0.00     0.253 C 
HETATM   15  O   UNL     1      37.638  51.479  44.546  1.00  0.00    -0.268 OA
HETATM   16  H   UNL     1      35.836  53.396  42.769  1.00  0.00     0.162 HD
BRANCH  14  17
HETATM   17  C   UNL     1      37.734  53.863  44.402  1.00  0.00     0.053 A 
HETATM   18  C   UNL     1      38.147  54.761  43.389  1.00  0.00     0.025 A 
HETATM   19  C   UNL     1      38.657  56.007  43.804  1.00  0.00     0.025 A 
HETATM   20  C   UNL     1      38.763  56.347  45.156  1.00  0.00     0.002 A 
HETATM   21  C   UNL     1      38.365  55.446  46.137  1.00  0.00     0.001 A 
HETATM   22  C   UNL     1      37.855  54.206  45.763  1.00  0.00     0.019 A 
BRANCH  18  23
HETATM   23  N   UNL     1      38.014  54.449  42.022  1.00  0.00    -0.291 NA
HETATM   24  C   UNL     1      37.156  55.389  41.307  1.00  0.00     0.116 C 
HETATM   25  C   UNL     1      39.244  54.083  41.320  1.00  0.00     0.116 C 
ENDBRANCH  18  23
ENDBRANCH  14  17
ENDBRANCH  12  13
ENDBRANCH   1  12
BRANCH   6  26
HETATM   26  C   UNL     1      29.895  47.917  39.867  1.00  0.00     0.235 C 
BRANCH  26  27
HETATM   27  C   UNL     1      29.044  48.369  38.686  1.00  0.00     0.032 C 
BRANCH  27  28
HETATM   28  C   UNL     1      27.760  49.099  39.080  1.00  0.00     0.040 C 
BRANCH  28  29
HETATM   29  C   UNL     1      28.062  50.512  39.508  1.00  0.00    -0.058 A 
HETATM   30  C   UNL     1      27.834  50.919  40.830  1.00  0.00     0.007 A 
HETATM   31  C   UNL     1      28.076  52.239  41.215  1.00  0.00     0.001 A 
HETATM   32  C   UNL     1      28.543  53.164  40.283  1.00  0.00     0.000 A 
HETATM   33  C   UNL     1      28.773  52.770  38.966  1.00  0.00     0.001 A 
HETATM   34  C   UNL     1      28.534  51.450  38.580  1.00  0.00     0.007 A 
ENDBRANCH  28  29
ENDBRANCH  27  28
ENDBRANCH  26  27
ENDBRANCH   6  26
TORSDOF 8
ENDMDL
MODEL 9
REMARK VINA RESULT:      -8.2      2.484     10.920
REMARK  8 active torsions:
REMARK  status: ('A' for Active; 'I' for Inactive)
REMARK    1  A    between atoms: N_2  and  C_3 
REMARK    2  A    between atoms: C_4  and  C_5 
REMARK       I    between atoms: C_5  and  N_6 
REMARK    3  A    between atoms: N_6  and  C_7 
REMARK    4  A    between atoms: C_7  and  C_8 
REMARK    5  A    between atoms: N_13  and  C_15 
REMARK    6  A    between atoms: C_15  and  C_16 
REMARK    7  A    between atoms: C_16  and  C_17 
REMARK    8  A    between atoms: C_17  and  C_18 
ROOT
HETATM    1  C   UNL     1      24.715  44.418  49.845  1.00  0.00     0.140 C 
HETATM    2  O   UNL     1      24.110  45.006  48.672  1.00  0.00    -0.373 OA
HETATM    3  C   UNL     1      22.688  44.758  48.733  1.00  0.00     0.064 C 
HETATM    4  C   UNL     1      22.277  44.177  47.375  1.00  0.00     0.066 C 
HETATM    5  C   UNL     1      22.417  45.197  46.250  1.00  0.00     0.237 C 
HETATM    6  N   UNL     1      21.653  46.469  46.570  1.00  0.00    -0.071 N 
HETATM    7  H   UNL     1      21.928  47.133  45.834  1.00  0.00     0.279 HD
HETATM    8  C   UNL     1      22.170  47.066  47.861  1.00  0.00     0.237 C 
HETATM    9  C   UNL     1      21.982  46.090  49.009  1.00  0.00     0.066 C 
HETATM   10  C   UNL     1      22.465  43.763  49.880  1.00  0.00     0.041 C 
HETATM   11  C   UNL     1      23.846  43.209  50.140  1.00  0.00     0.036 C 
ENDROOT
BRANCH   1  12
HETATM   12  C   UNL     1      26.184  44.068  49.598  1.00  0.00     0.155 C 
BRANCH  12  13
HETATM   13  N   UNL     1      26.993  44.180  50.794  1.00  0.00    -0.354 N 
HETATM   14  C   UNL     1      27.349  43.053  51.518  1.00  0.00     0.253 C 
HETATM   15  O   UNL     1      26.947  41.934  51.224  1.00  0.00    -0.268 OA
HETATM   16  H   UNL     1      27.433  45.065  51.015  1.00  0.00     0.162 HD
BRANCH  14  17
HETATM   17  C   UNL     1      28.262  43.314  52.668  1.00  0.00     0.053 A 
HETATM   18  C   UNL     1      27.919  44.215  53.703  1.00  0.00     0.025 A 
HETATM   19  C   UNL     1      28.857  44.390  54.740  1.00  0.00     0.025 A 
HETATM   20  C   UNL     1      30.080  43.712  54.749  1.00  0.00     0.002 A 
HETATM   21  C   UNL     1      30.404  42.841  53.716  1.00  0.00     0.001 A 
HETATM   22  C   UNL     1      29.500  42.643  52.675  1.00  0.00     0.019 A 
BRANCH  18  23
HETATM   23  N   UNL     1      26.677  44.879  53.728  1.00  0.00    -0.291 NA
HETATM   24  C   UNL     1      25.665  44.159  54.497  1.00  0.00     0.116 C 
HETATM   25  C   UNL     1      26.719  46.322  53.967  1.00  0.00     0.116 C 
ENDBRANCH  18  23
ENDBRANCH  14  17
ENDBRANCH  12  13
ENDBRANCH   1  12
BRANCH   6  26
HETATM   26  C   UNL     1      20.152  46.295  46.449  1.00  0.00     0.235 C 
BRANCH  26  27
HETATM   27  C   UNL     1      19.340  47.428  47.067  1.00  0.00     0.032 C 
BRANCH  27  28
HETATM   28  C   UNL     1      19.210  48.665  46.179  1.00  0.00     0.040 C 
BRANCH  28  29
HETATM   29  C   UNL     1      19.228  49.921  47.012  1.00  0.00    -0.058 A 
HETATM   30  C   UNL     1      18.101  50.754  47.067  1.00  0.00     0.007 A 
HETATM   31  C   UNL     1      18.132  51.937  47.806  1.00  0.00     0.001 A 
HETATM   32  C   UNL     1      19.289  52.302  48.493  1.00  0.00     0.000 A 
HETATM   33  C   UNL     1      20.414  51.481  48.445  1.00  0.00     0.001 A 
HETATM   34  C   UNL     1      20.384  50.296  47.709  1.00  0.00     0.007 A 
ENDBRANCH  28  29
ENDBRANCH  27  28
ENDBRANCH  26  27
ENDBRANCH   6  26
TORSDOF 8
ENDMDL
MODEL 10
REMARK VINA RESULT:      -8.1      1.850      3.179
REMARK  8 active torsions:
REMARK  status: ('A' for Active; 'I' for Inactive)
REMARK    1  A    between atoms: N_2  and  C_3 
REMARK    2  A    between atoms: C_4  and  C_5 
REMARK       I    between atoms: C_5  and  N_6 
REMARK    3  A    between atoms: N_6  and  C_7 
REMARK    4  A    between atoms: C_7  and  C_8 
REMARK    5  A    between atoms: N_13  and  C_15 
REMARK    6  A    between atoms: C_15  and  C_16 
REMARK    7  A    between atoms: C_16  and  C_17 
REMARK    8  A    between atoms: C_17  and  C_18 
ROOT
HETATM    1  C   UNL     1      23.117  44.638  48.731  1.00  0.00     0.140 C 
HETATM    2  O   UNL     1      24.461  44.548  49.254  1.00  0.00    -0.373 OA
HETATM    3  C   UNL     1      24.545  43.353  50.061  1.00  0.00     0.064 C 
HETATM    4  C   UNL     1      25.166  43.761  51.403  1.00  0.00     0.066 C 
HETATM    5  C   UNL     1      26.621  44.196  51.251  1.00  0.00     0.237 C 
HETATM    6  N   UNL     1      27.440  43.123  50.557  1.00  0.00    -0.071 N 
HETATM    7  H   UNL     1      28.350  43.566  50.373  1.00  0.00     0.279 HD
HETATM    8  C   UNL     1      26.854  42.834  49.191  1.00  0.00     0.237 C 
HETATM    9  C   UNL     1      25.424  42.338  49.323  1.00  0.00     0.066 C 
HETATM   10  C   UNL     1      23.111  42.831  50.224  1.00  0.00     0.041 C 
HETATM   11  C   UNL     1      22.259  44.008  49.813  1.00  0.00     0.036 C 
ENDROOT
BRANCH   1  12
HETATM   12  C   UNL     1      22.738  46.087  48.417  1.00  0.00     0.155 C 
BRANCH  12  13
HETATM   13  N   UNL     1      21.307  46.274  48.295  1.00  0.00    -0.354 N 
HETATM   14  C   UNL     1      20.737  47.522  48.494  1.00  0.00     0.253 C 
HETATM   15  O   UNL     1      21.395  48.493  48.843  1.00  0.00    -0.268 OA
HETATM   16  H   UNL     1      20.740  45.531  47.908  1.00  0.00     0.162 HD
BRANCH  14  17
HETATM   17  C   UNL     1      19.269  47.583  48.240  1.00  0.00     0.053 A 
HETATM   18  C   UNL     1      18.392  48.294  49.094  1.00  0.00     0.025 A 
HETATM   19  C   UNL     1      17.022  48.282  48.763  1.00  0.00     0.025 A 
HETATM   20  C   UNL     1      16.541  47.593  47.646  1.00  0.00     0.002 A 
HETATM   21  C   UNL     1      17.415  46.889  46.827  1.00  0.00     0.001 A 
HETATM   22  C   UNL     1      18.776  46.879  47.124  1.00  0.00     0.019 A 
BRANCH  18  23
HETATM   23  N   UNL     1      18.865  49.022  50.202  1.00  0.00    -0.291 NA
HETATM   24  C   UNL     1      18.667  50.462  50.061  1.00  0.00     0.116 C 
HETATM   25  C   UNL     1      18.531  48.483  51.521  1.00  0.00     0.116 C 
ENDBRANCH  18  23
ENDBRANCH  14  17
ENDBRANCH  12  13
ENDBRANCH   1  12
BRANCH   6  26
HETATM   26  C   UNL     1      27.717  41.930  51.450  1.00  0.00     0.235 C 
BRANCH  26  27
HETATM   27  C   UNL     1      28.857  42.143  52.440  1.00  0.00     0.032 C 
BRANCH  27  28
HETATM   28  C   UNL     1      28.417  42.188  53.904  1.00  0.00     0.040 C 
BRANCH  28  29
HETATM   29  C   UNL     1      29.103  43.316  54.630  1.00  0.00    -0.058 A 
HETATM   30  C   UNL     1      30.368  43.127  55.205  1.00  0.00     0.007 A 
HETATM   31  C   UNL     1      30.984  44.161  55.912  1.00  0.00     0.001 A 
HETATM   32  C   UNL     1      30.342  45.389  56.056  1.00  0.00     0.000 A 
HETATM   33  C   UNL     1      29.085  45.587  55.489  1.00  0.00     0.001 A 
HETATM   34  C   UNL     1      28.468  44.556  54.779  1.00  0.00     0.007 A 
ENDBRANCH  28  29
ENDBRANCH  27  28
ENDBRANCH  26  27
ENDBRANCH   6  26
TORSDOF 8
ENDMDL
