MODEL 1
REMARK VINA RESULT:      -9.1      0.000      0.000
REMARK  4 active torsions:
REMARK  status: ('A' for Active; 'I' for Inactive)
REMARK    1  A    between atoms: C_4  and  C_5 
REMARK    2  A    between atoms: C_8  and  C_9 
REMARK    3  A    between atoms: C_9  and  N_10 
REMARK       I    between atoms: N_10  and  C_11 
REMARK       I    between atoms: C_11  and  N_12 
REMARK    4  A    between atoms: N_12  and  C_13 
ROOT
HETATM    1  C   UNL     1      25.717  46.576  53.906  1.00  0.00     0.213 C 
ENDROOT
BRANCH   1   2
HETATM    2  C   UNL     1      27.003  45.921  54.249  1.00  0.00     0.190 A 
HETATM    3  O   UNL     1      27.499  45.038  53.339  1.00  0.00    -0.194 OA
HETATM    4  N   UNL     1      28.649  44.493  53.903  1.00  0.00    -0.106 NA
HETATM    5  C   UNL     1      28.742  45.099  55.098  1.00  0.00     0.189 A 
HETATM    6  N   UNL     1      27.730  46.007  55.342  1.00  0.00    -0.202 NA
BRANCH   5   7
HETATM    7  C   UNL     1      29.790  44.814  56.074  1.00  0.00     0.014 A 
HETATM    8  C   UNL     1      30.702  43.767  55.871  1.00  0.00     0.015 A 
HETATM    9  C   UNL     1      31.696  43.493  56.815  1.00  0.00     0.001 A 
HETATM   10  C   UNL     1      31.790  44.264  57.972  1.00  0.00     0.000 A 
HETATM   11  C   UNL     1      30.891  45.306  58.188  1.00  0.00     0.001 A 
HETATM   12  C   UNL     1      29.897  45.580  57.245  1.00  0.00     0.015 A 
ENDBRANCH   5   7
ENDBRANCH   1   2
BRANCH   1  13
HETATM   13  N   UNL     1      25.707  46.986  52.517  1.00  0.00    -0.335 N 
HETATM   14  C   UNL     1      25.041  46.267  51.576  1.00  0.00     0.321 C 
HETATM   15  N   UNL     1      24.915  46.810  50.335  1.00  0.00    -0.309 N 
HETATM   16  O   UNL     1      24.483  45.201  51.825  1.00  0.00    -0.247 OA
HETATM   17  H   UNL     1      24.199  46.329  49.802  1.00  0.00     0.170 HD
HETATM   18  H   UNL     1      25.830  47.970  52.333  1.00  0.00     0.164 HD
BRANCH  15  19
HETATM   19  C   UNL     1      25.565  47.875  49.689  1.00  0.00     0.036 A 
HETATM   20  C   UNL     1      26.952  48.022  49.625  1.00  0.00     0.029 A 
HETATM   21  C   UNL     1      27.515  49.117  48.962  1.00  0.00     0.002 A 
HETATM   22  C   UNL     1      26.698  50.064  48.349  1.00  0.00     0.000 A 
HETATM   23  C   UNL     1      25.316  49.905  48.376  1.00  0.00     0.002 A 
HETATM   24  C   UNL     1      24.753  48.809  49.032  1.00  0.00     0.029 A 
ENDBRANCH  15  19
ENDBRANCH   1  13
TORSDOF 4
ENDMDL
MODEL 2
REMARK VINA RESULT:      -8.8      1.770      2.305
REMARK  4 active torsions:
REMARK  status: ('A' for Active; 'I' for Inactive)
REMARK    1  A    between atoms: C_4  and  C_5 
REMARK    2  A    between atoms: C_8  and  C_9 
REMARK    3  A    between atoms: C_9  and  N_10 
REMARK       I    between atoms: N_10  and  C_11 
REMARK       I    between atoms: C_11  and  N_12 
REMARK    4  A    between atoms: N_12  and  C_13 
ROOT
HETATM    1  C   UNL     1      26.242  43.410  50.328  1.00  0.00     0.213 C 
ENDROOT
BRANCH   1   2
HETATM    2  C   UNL     1      27.117  43.192  51.505  1.00  0.00     0.190 A 
HETATM    3  O   UNL     1      27.210  41.915  51.969  1.00  0.00    -0.194 OA
HETATM    4  N   UNL     1      28.004  41.965  53.111  1.00  0.00    -0.106 NA
HETATM    5  C   UNL     1      28.320  43.266  53.228  1.00  0.00     0.189 A 
HETATM    6  N   UNL     1      27.786  44.060  52.233  1.00  0.00    -0.202 NA
BRANCH   5   7
HETATM    7  C   UNL     1      29.124  43.810  54.319  1.00  0.00     0.014 A 
HETATM    8  C   UNL     1      30.226  43.105  54.827  1.00  0.00     0.015 A 
HETATM    9  C   UNL     1      30.985  43.628  55.878  1.00  0.00     0.001 A 
HETATM   10  C   UNL     1      30.650  44.862  56.433  1.00  0.00     0.000 A 
HETATM   11  C   UNL     1      29.559  45.573  55.939  1.00  0.00     0.001 A 
HETATM   12  C   UNL     1      28.799  45.051  54.889  1.00  0.00     0.015 A 
ENDBRANCH   5   7
ENDBRANCH   1   2
BRANCH   1  13
HETATM   13  N   UNL     1      25.940  44.818  50.169  1.00  0.00    -0.335 N 
HETATM   14  C   UNL     1      24.838  45.370  50.740  1.00  0.00     0.321 C 
HETATM   15  N   UNL     1      24.719  46.725  50.710  1.00  0.00    -0.309 N 
HETATM   16  O   UNL     1      24.001  44.707  51.348  1.00  0.00    -0.247 OA
HETATM   17  H   UNL     1      24.019  47.041  51.372  1.00  0.00     0.170 HD
HETATM   18  H   UNL     1      26.721  45.434  50.003  1.00  0.00     0.164 HD
BRANCH  15  19
HETATM   19  C   UNL     1      25.370  47.723  49.966  1.00  0.00     0.036 A 
HETATM   20  C   UNL     1      26.757  47.873  49.902  1.00  0.00     0.029 A 
HETATM   21  C   UNL     1      27.320  48.897  49.136  1.00  0.00     0.002 A 
HETATM   22  C   UNL     1      26.504  49.770  48.419  1.00  0.00     0.000 A 
HETATM   23  C   UNL     1      25.123  49.606  48.448  1.00  0.00     0.002 A 
HETATM   24  C   UNL     1      24.560  48.578  49.207  1.00  0.00     0.029 A 
ENDBRANCH  15  19
ENDBRANCH   1  13
TORSDOF 4
ENDMDL
MODEL 3
REMARK VINA RESULT:      -8.5      2.228      8.587
REMARK  4 active torsions:
REMARK  status: ('A' for Active; 'I' for Inactive)
REMARK    1  A    between atoms: C_4  and  C_5 
REMARK    2  A    between atoms: C_8  and  C_9 
REMARK    3  A    between atoms: C_9  and  N_10 
REMARK       I    between atoms: N_10  and  C_11 
REMARK       I    between atoms: C_11  and  N_12 
REMARK    4  A    between atoms: N_12  and  C_13 
ROOT
HETATM    1  C   UNL     1      26.118  44.497  50.047  1.00  0.00     0.213 C 
ENDROOT
BRANCH   1   2
HETATM    2  C   UNL     1      25.718  45.913  49.871  1.00  0.00     0.190 A 
HETATM    3  O   UNL     1      26.532  46.853  50.428  1.00  0.00    -0.194 OA
HETATM    4  N   UNL     1      25.922  48.085  50.212  1.00  0.00    -0.106 NA
HETATM    5  C   UNL     1      24.798  47.776  49.544  1.00  0.00     0.189 A 
HETATM    6  N   UNL     1      24.644  46.424  49.306  1.00  0.00    -0.202 NA
BRANCH   5   7
HETATM    7  C   UNL     1      23.804  48.762  49.127  1.00  0.00     0.014 A 
HETATM    8  C   UNL     1      24.193  50.029  48.664  1.00  0.00     0.015 A 
HETATM    9  C   UNL     1      23.235  50.971  48.277  1.00  0.00     0.001 A 
HETATM   10  C   UNL     1      21.880  50.658  48.349  1.00  0.00     0.000 A 
HETATM   11  C   UNL     1      21.479  49.405  48.807  1.00  0.00     0.001 A 
HETATM   12  C   UNL     1      22.435  48.462  49.194  1.00  0.00     0.015 A 
ENDBRANCH   5   7
ENDBRANCH   1   2
BRANCH   1  13
HETATM   13  N   UNL     1      26.594  44.265  51.396  1.00  0.00    -0.335 N 
HETATM   14  C   UNL     1      25.743  43.892  52.387  1.00  0.00     0.321 C 
HETATM   15  N   UNL     1      26.284  43.508  53.576  1.00  0.00    -0.309 N 
HETATM   16  O   UNL     1      24.529  43.806  52.224  1.00  0.00    -0.247 OA
HETATM   17  H   UNL     1      25.602  43.013  54.140  1.00  0.00     0.170 HD
HETATM   18  H   UNL     1      27.558  43.985  51.496  1.00  0.00     0.164 HD
BRANCH  15  19
HETATM   19  C   UNL     1      27.564  43.660  54.134  1.00  0.00     0.036 A 
HETATM   20  C   UNL     1      28.571  42.695  54.058  1.00  0.00     0.029 A 
HETATM   21  C   UNL     1      29.817  42.930  54.646  1.00  0.00     0.002 A 
HETATM   22  C   UNL     1      30.072  44.133  55.301  1.00  0.00     0.000 A 
HETATM   23  C   UNL     1      29.086  45.115  55.349  1.00  0.00     0.002 A 
HETATM   24  C   UNL     1      27.843  44.884  54.756  1.00  0.00     0.029 A 
ENDBRANCH  15  19
ENDBRANCH   1  13
TORSDOF 4
ENDMDL
MODEL 4
REMARK VINA RESULT:      -8.4      1.360      7.757
REMARK  4 active torsions:
REMARK  status: ('A' for Active; 'I' for Inactive)
REMARK    1  A    between atoms: C_4  and  C_5 
REMARK    2  A    between atoms: C_8  and  C_9 
REMARK    3  A    between atoms: C_9  and  N_10 
REMARK       I    between atoms: N_10  and  C_11 
REMARK       I    between atoms: C_11  and  N_12 
REMARK    4  A    between atoms: N_12  and  C_13 
ROOT
HETATM    1  C   UNL     1      25.043  44.295  53.435  1.00  0.00     0.213 C 
ENDROOT
BRANCH   1   2
HETATM    2  C   UNL     1      24.907  45.166  52.244  1.00  0.00     0.190 A 
HETATM    3  O   UNL     1      24.059  44.739  51.268  1.00  0.00    -0.194 OA
HETATM    4  N   UNL     1      24.156  45.658  50.227  1.00  0.00    -0.106 NA
HETATM    5  C   UNL     1      25.052  46.556  50.671  1.00  0.00     0.189 A 
HETATM    6  N   UNL     1      25.535  46.281  51.936  1.00  0.00    -0.202 NA
BRANCH   5   7
HETATM    7  C   UNL     1      25.507  47.703  49.891  1.00  0.00     0.014 A 
HETATM    8  C   UNL     1      24.590  48.554  49.253  1.00  0.00     0.015 A 
HETATM    9  C   UNL     1      25.033  49.644  48.499  1.00  0.00     0.001 A 
HETATM   10  C   UNL     1      26.398  49.896  48.375  1.00  0.00     0.000 A 
HETATM   11  C   UNL     1      27.320  49.061  49.001  1.00  0.00     0.001 A 
HETATM   12  C   UNL     1      26.877  47.970  49.756  1.00  0.00     0.015 A 
ENDBRANCH   5   7
ENDBRANCH   1   2
BRANCH   1  13
HETATM   13  N   UNL     1      26.436  44.153  53.809  1.00  0.00    -0.335 N 
HETATM   14  C   UNL     1      27.286  43.388  53.075  1.00  0.00     0.321 C 
HETATM   15  N   UNL     1      28.612  43.452  53.371  1.00  0.00    -0.309 N 
HETATM   16  O   UNL     1      26.917  42.718  52.114  1.00  0.00    -0.247 OA
HETATM   17  H   UNL     1      29.169  43.061  52.620  1.00  0.00     0.170 HD
HETATM   18  H   UNL     1      26.845  44.910  54.333  1.00  0.00     0.164 HD
BRANCH  15  19
HETATM   19  C   UNL     1      29.319  43.949  54.479  1.00  0.00     0.036 A 
HETATM   20  C   UNL     1      30.358  43.266  55.116  1.00  0.00     0.029 A 
HETATM   21  C   UNL     1      31.006  43.835  56.215  1.00  0.00     0.002 A 
HETATM   22  C   UNL     1      30.631  45.095  56.679  1.00  0.00     0.000 A 
HETATM   23  C   UNL     1      29.622  45.798  56.027  1.00  0.00     0.002 A 
HETATM   24  C   UNL     1      28.979  45.233  54.925  1.00  0.00     0.029 A 
ENDBRANCH  15  19
ENDBRANCH   1  13
TORSDOF 4
ENDMDL
MODEL 5
REMARK VINA RESULT:      -8.4      3.172      9.381
REMARK  4 active torsions:
REMARK  status: ('A' for Active; 'I' for Inactive)
REMARK    1  A    between atoms: C_4  and  C_5 
REMARK    2  A    between atoms: C_8  and  C_9 
REMARK    3  A    between atoms: C_9  and  N_10 
REMARK       I    between atoms: N_10  and  C_11 
REMARK       I    between atoms: C_11  and  N_12 
REMARK    4  A    between atoms: N_12  and  C_13 
ROOT
HETATM    1  C   UNL     1      24.433  46.220  49.627  1.00  0.00     0.213 C 
ENDROOT
BRANCH   1   2
HETATM    2  C   UNL     1      23.832  47.563  49.450  1.00  0.00     0.190 A 
HETATM    3  O   UNL     1      24.632  48.631  49.724  1.00  0.00    -0.194 OA
HETATM    4  N   UNL     1      23.842  49.767  49.573  1.00  0.00    -0.106 NA
HETATM    5  C   UNL     1      22.640  49.281  49.219  1.00  0.00     0.189 A 
HETATM    6  N   UNL     1      22.603  47.903  49.125  1.00  0.00    -0.202 NA
BRANCH   5   7
HETATM    7  C   UNL     1      21.464  50.114  48.983  1.00  0.00     0.014 A 
HETATM    8  C   UNL     1      20.870  50.838  50.028  1.00  0.00     0.015 A 
HETATM    9  C   UNL     1      19.738  51.625  49.796  1.00  0.00     0.001 A 
HETATM   10  C   UNL     1      19.188  51.696  48.518  1.00  0.00     0.000 A 
HETATM   11  C   UNL     1      19.767  50.983  47.471  1.00  0.00     0.001 A 
HETATM   12  C   UNL     1      20.899  50.195  47.702  1.00  0.00     0.015 A 
ENDBRANCH   5   7
ENDBRANCH   1   2
BRANCH   1  13
HETATM   13  N   UNL     1      24.975  46.075  50.963  1.00  0.00    -0.335 N 
HETATM   14  C   UNL     1      24.612  45.036  51.760  1.00  0.00     0.321 C 
HETATM   15  N   UNL     1      25.299  44.858  52.922  1.00  0.00    -0.309 N 
HETATM   16  O   UNL     1      23.758  44.216  51.436  1.00  0.00    -0.247 OA
HETATM   17  H   UNL     1      25.132  43.933  53.301  1.00  0.00     0.170 HD
HETATM   18  H   UNL     1      25.882  46.480  51.132  1.00  0.00     0.164 HD
BRANCH  15  19
HETATM   19  C   UNL     1      26.167  45.686  53.653  1.00  0.00     0.036 A 
HETATM   20  C   UNL     1      25.871  47.002  54.018  1.00  0.00     0.029 A 
HETATM   21  C   UNL     1      26.796  47.756  54.746  1.00  0.00     0.002 A 
HETATM   22  C   UNL     1      28.016  47.198  55.125  1.00  0.00     0.000 A 
HETATM   23  C   UNL     1      28.303  45.877  54.797  1.00  0.00     0.002 A 
HETATM   24  C   UNL     1      27.376  45.121  54.076  1.00  0.00     0.029 A 
ENDBRANCH  15  19
ENDBRANCH   1  13
TORSDOF 4
ENDMDL
MODEL 6
REMARK VINA RESULT:      -8.4      1.545      8.292
REMARK  4 active torsions:
REMARK  status: ('A' for Active; 'I' for Inactive)
REMARK    1  A    between atoms: C_4  and  C_5 
REMARK    2  A    between atoms: C_8  and  C_9 
REMARK    3  A    between atoms: C_9  and  N_10 
REMARK       I    between atoms: N_10  and  C_11 
REMARK       I    between atoms: C_11  and  N_12 
REMARK    4  A    between atoms: N_12  and  C_13 
ROOT
HETATM    1  C   UNL     1      27.193  43.651  52.511  1.00  0.00     0.213 C 
ENDROOT
BRANCH   1   2
HETATM    2  C   UNL     1      26.738  45.009  52.128  1.00  0.00     0.190 A 
HETATM    3  O   UNL     1      26.106  45.735  53.092  1.00  0.00    -0.194 OA
HETATM    4  N   UNL     1      25.699  46.922  52.491  1.00  0.00    -0.106 NA
HETATM    5  C   UNL     1      26.123  46.804  51.222  1.00  0.00     0.189 A 
HETATM    6  N   UNL     1      26.786  45.620  50.964  1.00  0.00    -0.202 NA
BRANCH   5   7
HETATM    7  C   UNL     1      25.888  47.810  50.190  1.00  0.00     0.014 A 
HETATM    8  C   UNL     1      26.958  48.478  49.573  1.00  0.00     0.015 A 
HETATM    9  C   UNL     1      26.724  49.448  48.594  1.00  0.00     0.001 A 
HETATM   10  C   UNL     1      25.418  49.761  48.220  1.00  0.00     0.000 A 
HETATM   11  C   UNL     1      24.347  49.107  48.824  1.00  0.00     0.001 A 
HETATM   12  C   UNL     1      24.579  48.137  49.803  1.00  0.00     0.015 A 
ENDBRANCH   5   7
ENDBRANCH   1   2
BRANCH   1  13
HETATM   13  N   UNL     1      28.224  43.725  53.526  1.00  0.00    -0.335 N 
HETATM   14  C   UNL     1      29.337  42.949  53.457  1.00  0.00     0.321 C 
HETATM   15  N   UNL     1      30.345  43.206  54.334  1.00  0.00    -0.309 N 
HETATM   16  O   UNL     1      29.499  42.096  52.589  1.00  0.00    -0.247 OA
HETATM   17  H   UNL     1      31.206  42.761  54.036  1.00  0.00     0.170 HD
HETATM   18  H   UNL     1      28.311  44.599  54.023  1.00  0.00     0.164 HD
BRANCH  15  19
HETATM   19  C   UNL     1      30.407  43.952  55.524  1.00  0.00     0.036 A 
HETATM   20  C   UNL     1      29.670  45.114  55.758  1.00  0.00     0.029 A 
HETATM   21  C   UNL     1      29.795  45.795  56.972  1.00  0.00     0.002 A 
HETATM   22  C   UNL     1      30.646  45.313  57.965  1.00  0.00     0.000 A 
HETATM   23  C   UNL     1      31.356  44.135  57.754  1.00  0.00     0.002 A 
HETATM   24  C   UNL     1      31.226  43.451  56.544  1.00  0.00     0.029 A 
ENDBRANCH  15  19
ENDBRANCH   1  13
TORSDOF 4
ENDMDL
MODEL 7
REMARK VINA RESULT:      -8.4      4.859      6.069
REMARK  4 active torsions:
REMARK  status: ('A' for Active; 'I' for Inactive)
REMARK    1  A    between atoms: C_4  and  C_5 
REMARK    2  A    between atoms: C_8  and  C_9 
REMARK    3  A    between atoms: C_9  and  N_10 
REMARK       I    between atoms: N_10  and  C_11 
REMARK       I    between atoms: C_11  and  N_12 
REMARK    4  A    between atoms: N_12  and  C_13 
ROOT
HETATM    1  C   UNL     1      27.235  43.764  51.777  1.00  0.00     0.213 C 
ENDROOT
BRANCH   1   2
HETATM    2  C   UNL     1      28.359  43.716  52.743  1.00  0.00     0.190 A 
HETATM    3  O   UNL     1      29.395  42.889  52.433  1.00  0.00    -0.194 OA
HETATM    4  N   UNL     1      30.279  42.942  53.506  1.00  0.00    -0.106 NA
HETATM    5  C   UNL     1      29.697  43.797  54.363  1.00  0.00     0.189 A 
HETATM    6  N   UNL     1      28.496  44.307  53.910  1.00  0.00    -0.202 NA
BRANCH   5   7
HETATM    7  C   UNL     1      30.252  44.143  55.669  1.00  0.00     0.014 A 
HETATM    8  C   UNL     1      29.868  45.320  56.329  1.00  0.00     0.015 A 
HETATM    9  C   UNL     1      30.412  45.650  57.574  1.00  0.00     0.001 A 
HETATM   10  C   UNL     1      31.346  44.806  58.172  1.00  0.00     0.000 A 
HETATM   11  C   UNL     1      31.738  43.635  57.528  1.00  0.00     0.001 A 
HETATM   12  C   UNL     1      31.195  43.304  56.283  1.00  0.00     0.015 A 
ENDBRANCH   5   7
ENDBRANCH   1   2
BRANCH   1  13
HETATM   13  N   UNL     1      27.294  42.637  50.868  1.00  0.00    -0.335 N 
HETATM   14  C   UNL     1      26.934  42.766  49.565  1.00  0.00     0.321 C 
HETATM   15  N   UNL     1      27.194  41.724  48.729  1.00  0.00    -0.309 N 
HETATM   16  O   UNL     1      26.469  43.805  49.102  1.00  0.00    -0.247 OA
HETATM   17  H   UNL     1      27.131  42.014  47.760  1.00  0.00     0.170 HD
HETATM   18  H   UNL     1      27.961  41.913  51.085  1.00  0.00     0.164 HD
BRANCH  15  19
HETATM   19  C   UNL     1      27.528  40.378  48.958  1.00  0.00     0.036 A 
HETATM   20  C   UNL     1      26.614  39.403  49.364  1.00  0.00     0.029 A 
HETATM   21  C   UNL     1      27.034  38.086  49.571  1.00  0.00     0.002 A 
HETATM   22  C   UNL     1      28.366  37.731  49.362  1.00  0.00     0.000 A 
HETATM   23  C   UNL     1      29.275  38.689  48.922  1.00  0.00     0.002 A 
HETATM   24  C   UNL     1      28.854  40.002  48.708  1.00  0.00     0.029 A 
ENDBRANCH  15  19
ENDBRANCH   1  13
TORSDOF 4
ENDMDL
MODEL 8
REMARK VINA RESULT:      -8.3      3.714      7.627
REMARK  4 active torsions:
REMARK  status: ('A' for Active; 'I' for Inactive)
REMARK    1  A    between atoms: C_4  and  C_5 
REMARK    2  A    between atoms: C_8  and  C_9 
REMARK    3  A    between atoms: C_9  and  N_10 
REMARK       I    between atoms: N_10  and  C_11 
REMARK       I    between atoms: C_11  and  N_12 
REMARK    4  A    between atoms: N_12  and  C_13 
ROOT
HETATM    1  C   UNL     1      25.778  44.926  54.304  1.00  0.00     0.213 C 
ENDROOT
BRANCH   1   2
HETATM    2  C   UNL     1      25.831  44.121  53.061  1.00  0.00     0.190 A 
HETATM    3  O   UNL     1      24.678  44.033  52.340  1.00  0.00    -0.194 OA
HETATM    4  N   UNL     1      24.939  43.171  51.279  1.00  0.00    -0.106 NA
HETATM    5  C   UNL     1      26.223  42.820  51.455  1.00  0.00     0.189 A 
HETATM    6  N   UNL     1      26.814  43.405  52.558  1.00  0.00    -0.202 NA
BRANCH   5   7
HETATM    7  C   UNL     1      26.936  41.885  50.589  1.00  0.00     0.014 A 
HETATM    8  C   UNL     1      27.705  40.842  51.128  1.00  0.00     0.015 A 
HETATM    9  C   UNL     1      28.392  39.957  50.293  1.00  0.00     0.001 A 
HETATM   10  C   UNL     1      28.319  40.104  48.910  1.00  0.00     0.000 A 
HETATM   11  C   UNL     1      27.560  41.135  48.360  1.00  0.00     0.001 A 
HETATM   12  C   UNL     1      26.872  42.021  49.194  1.00  0.00     0.015 A 
ENDBRANCH   5   7
ENDBRANCH   1   2
BRANCH   1  13
HETATM   13  N   UNL     1      27.102  45.075  54.873  1.00  0.00    -0.335 N 
HETATM   14  C   UNL     1      27.746  46.271  54.853  1.00  0.00     0.321 C 
HETATM   15  N   UNL     1      28.898  46.383  55.569  1.00  0.00    -0.309 N 
HETATM   16  O   UNL     1      27.290  47.262  54.290  1.00  0.00    -0.247 OA
HETATM   17  H   UNL     1      29.150  47.356  55.697  1.00  0.00     0.170 HD
HETATM   18  H   UNL     1      27.352  44.437  55.613  1.00  0.00     0.164 HD
BRANCH  15  19
HETATM   19  C   UNL     1      29.759  45.434  56.145  1.00  0.00     0.036 A 
HETATM   20  C   UNL     1      30.258  44.318  55.470  1.00  0.00     0.029 A 
HETATM   21  C   UNL     1      31.109  43.422  56.123  1.00  0.00     0.002 A 
HETATM   22  C   UNL     1      31.479  43.641  57.449  1.00  0.00     0.000 A 
HETATM   23  C   UNL     1      31.016  44.770  58.117  1.00  0.00     0.002 A 
HETATM   24  C   UNL     1      30.171  45.669  57.464  1.00  0.00     0.029 A 
ENDBRANCH  15  19
ENDBRANCH   1  13
TORSDOF 4
ENDMDL
MODEL 9
REMARK VINA RESULT:      -8.1      3.959      4.999
REMARK  4 active torsions:
REMARK  status: ('A' for Active; 'I' for Inactive)
REMARK    1  A    between atoms: C_4  and  C_5 
REMARK    2  A    between atoms: C_8  and  C_9 
REMARK    3  A    between atoms: C_9  and  N_10 
REMARK       I    between atoms: N_10  and  C_11 
REMARK       I    between atoms: C_11  and  N_12 
REMARK    4  A    between atoms: N_12  and  C_13 
ROOT
HETATM    1  C   UNL     1      25.766  45.120  51.563  1.00  0.00     0.213 C 
ENDROOT
BRANCH   1   2
HETATM    2  C   UNL     1      26.591  45.287  52.783  1.00  0.00     0.190 A 
HETATM    3  O   UNL     1      26.383  46.419  53.512  1.00  0.00    -0.194 OA
HETATM    4  N   UNL     1      27.313  46.401  54.546  1.00  0.00    -0.106 NA
HETATM    5  C   UNL     1      27.995  45.260  54.349  1.00  0.00     0.189 A 
HETATM    6  N   UNL     1      27.561  44.534  53.257  1.00  0.00    -0.202 NA
BRANCH   5   7
HETATM    7  C   UNL     1      29.114  44.828  55.183  1.00  0.00     0.014 A 
HETATM    8  C   UNL     1      29.802  43.636  54.908  1.00  0.00     0.015 A 
HETATM    9  C   UNL     1      30.865  43.224  55.716  1.00  0.00     0.001 A 
HETATM   10  C   UNL     1      31.251  43.998  56.809  1.00  0.00     0.000 A 
HETATM   11  C   UNL     1      30.577  45.183  57.094  1.00  0.00     0.001 A 
HETATM   12  C   UNL     1      29.514  45.596  56.286  1.00  0.00     0.015 A 
ENDBRANCH   5   7
ENDBRANCH   1   2
BRANCH   1  13
HETATM   13  N   UNL     1      26.001  43.823  50.960  1.00  0.00    -0.335 N 
HETATM   14  C   UNL     1      25.014  42.894  50.885  1.00  0.00     0.321 C 
HETATM   15  N   UNL     1      25.248  41.779  50.141  1.00  0.00    -0.309 N 
HETATM   16  O   UNL     1      23.904  43.059  51.385  1.00  0.00    -0.247 OA
HETATM   17  H   UNL     1      24.383  41.290  49.940  1.00  0.00     0.170 HD
HETATM   18  H   UNL     1      26.727  43.772  50.262  1.00  0.00     0.164 HD
BRANCH  15  19
HETATM   19  C   UNL     1      26.422  41.212  49.617  1.00  0.00     0.036 A 
HETATM   20  C   UNL     1      26.892  41.442  48.322  1.00  0.00     0.029 A 
HETATM   21  C   UNL     1      28.070  40.833  47.881  1.00  0.00     0.002 A 
HETATM   22  C   UNL     1      28.795  40.003  48.734  1.00  0.00     0.000 A 
HETATM   23  C   UNL     1      28.354  39.798  50.038  1.00  0.00     0.002 A 
HETATM   24  C   UNL     1      27.180  40.411  50.481  1.00  0.00     0.029 A 
ENDBRANCH  15  19
ENDBRANCH   1  13
TORSDOF 4
ENDMDL
MODEL 10
REMARK VINA RESULT:      -8.1      2.922      4.241
REMARK  4 active torsions:
REMARK  status: ('A' for Active; 'I' for Inactive)
REMARK    1  A    between atoms: C_4  and  C_5 
REMARK    2  A    between atoms: C_8  and  C_9 
REMARK    3  A    between atoms: C_9  and  N_10 
REMARK       I    between atoms: N_10  and  C_11 
REMARK       I    between atoms: C_11  and  N_12 
REMARK    4  A    between atoms: N_12  and  C_13 
ROOT
HETATM    1  C   UNL     1      25.828  46.582  52.760  1.00  0.00     0.213 C 
ENDROOT
BRANCH   1   2
HETATM    2  C   UNL     1      26.797  46.446  53.873  1.00  0.00     0.190 A 
HETATM    3  O   UNL     1      26.945  47.527  54.689  1.00  0.00    -0.194 OA
HETATM    4  N   UNL     1      27.952  47.206  55.595  1.00  0.00    -0.106 NA
HETATM    5  C   UNL     1      28.317  45.961  55.244  1.00  0.00     0.189 A 
HETATM    6  N   UNL     1      27.606  45.453  54.174  1.00  0.00    -0.202 NA
BRANCH   5   7
HETATM    7  C   UNL     1      29.385  45.213  55.902  1.00  0.00     0.014 A 
HETATM    8  C   UNL     1      29.874  45.603  57.158  1.00  0.00     0.015 A 
HETATM    9  C   UNL     1      30.904  44.888  57.776  1.00  0.00     0.001 A 
HETATM   10  C   UNL     1      31.455  43.775  57.145  1.00  0.00     0.000 A 
HETATM   11  C   UNL     1      30.980  43.376  55.899  1.00  0.00     0.001 A 
HETATM   12  C   UNL     1      29.951  44.090  55.279  1.00  0.00     0.015 A 
ENDBRANCH   5   7
ENDBRANCH   1   2
BRANCH   1  13
HETATM   13  N   UNL     1      26.003  45.512  51.798  1.00  0.00    -0.335 N 
HETATM   14  C   UNL     1      26.389  45.770  50.521  1.00  0.00     0.321 C 
HETATM   15  N   UNL     1      26.715  44.712  49.731  1.00  0.00    -0.309 N 
HETATM   16  O   UNL     1      26.534  46.910  50.088  1.00  0.00    -0.247 OA
HETATM   17  H   UNL     1      27.226  45.018  48.910  1.00  0.00     0.170 HD
HETATM   18  H   UNL     1      26.235  44.603  52.167  1.00  0.00     0.164 HD
BRANCH  15  19
HETATM   19  C   UNL     1      26.490  43.330  49.847  1.00  0.00     0.036 A 
HETATM   20  C   UNL     1      27.293  42.466  50.595  1.00  0.00     0.029 A 
HETATM   21  C   UNL     1      26.996  41.101  50.653  1.00  0.00     0.002 A 
HETATM   22  C   UNL     1      25.888  40.592  49.978  1.00  0.00     0.000 A 
HETATM   23  C   UNL     1      25.062  41.452  49.261  1.00  0.00     0.002 A 
HETATM   24  C   UNL     1      25.354  42.816  49.208  1.00  0.00     0.029 A 
ENDBRANCH  15  19
ENDBRANCH   1  13
TORSDOF 4
ENDMDL
