MODEL 1
REMARK VINA RESULT:     -10.0      0.000      0.000
REMARK  7 active torsions:
REMARK  status: ('A' for Active; 'I' for Inactive)
REMARK    1  A    between atoms: C_2  and  C_3 
REMARK    2  A    between atoms: C_3  and  N_4 
REMARK       I    between atoms: N_4  and  C_5 
REMARK    3  A    between atoms: C_5  and  C_6 
REMARK    4  A    between atoms: C_6  and  C_7 
REMARK    5  A    between atoms: C_7  and  C_8 
REMARK       I    between atoms: C_8  and  N_9 
REMARK    6  A    between atoms: N_9  and  N_10 
REMARK       I    between atoms: N_10  and  C_11 
REMARK    7  A    between atoms: C_11  and  C_12 
ROOT
HETATM    1  C   UNL     1      25.284  46.966  50.658  1.00  0.00     0.236 C 
HETATM    2  N   UNL     1      25.259  47.158  52.018  1.00  0.00    -0.267 N 
HETATM    3  O   UNL     1      26.117  46.255  50.095  1.00  0.00    -0.272 OA
HETATM    4  H   UNL     1      24.701  47.876  52.481  1.00  0.00     0.190 HD
ENDROOT
BRANCH   1   5
HETATM    5  C   UNL     1      24.270  47.765  49.877  1.00  0.00     0.114 C 
BRANCH   5   6
HETATM    6  C   UNL     1      24.985  48.647  48.866  1.00  0.00     0.112 C 
BRANCH   6   7
HETATM    7  C   UNL     1      24.148  49.813  48.369  1.00  0.00     0.218 C 
HETATM    8  N   UNL     1      23.095  50.172  49.171  1.00  0.00    -0.357 N 
HETATM    9  H   UNL     1      23.096  49.910  50.156  1.00  0.00     0.162 HD
HETATM   10  O   UNL     1      24.366  50.334  47.278  1.00  0.00    -0.274 OA
BRANCH   8  11
HETATM   11  C   UNL     1      22.199  51.238  48.781  1.00  0.00     0.161 C 
BRANCH  11  12
HETATM   12  C   UNL     1      20.746  50.824  48.781  1.00  0.00    -0.038 A 
HETATM   13  C   UNL     1      19.838  51.280  49.768  1.00  0.00     0.012 A 
HETATM   14  C   UNL     1      18.503  50.862  49.777  1.00  0.00     0.040 A 
HETATM   15  C   UNL     1      18.105  49.971  48.806  1.00  0.00     0.105 A 
HETATM   16  C   UNL     1      18.979  49.500  47.857  1.00  0.00     0.105 A 
HETATM   17  O   UNL     1      16.857  49.448  48.669  1.00  0.00    -0.323 OA
HETATM   18  C   UNL     1      20.298  49.903  47.818  1.00  0.00     0.048 A 
HETATM   19  O   UNL     1      18.393  48.616  47.005  1.00  0.00    -0.323 OA
HETATM   20  C   UNL     1      17.052  48.579  47.535  1.00  0.00     0.352 A 
ENDBRANCH  11  12
ENDBRANCH   8  11
ENDBRANCH   6   7
ENDBRANCH   5   6
ENDBRANCH   1   5
BRANCH   2  21
HETATM   21  N   UNL     1      26.285  46.582  52.776  1.00  0.00    -0.262 N 
HETATM   22  C   UNL     1      26.476  46.995  54.077  1.00  0.00     0.286 C 
HETATM   23  O   UNL     1      25.757  47.848  54.596  1.00  0.00    -0.264 OA
HETATM   24  H   UNL     1      26.883  45.908  52.305  1.00  0.00     0.190 HD
BRANCH  22  25
HETATM   25  C   UNL     1      27.563  46.355  54.782  1.00  0.00     0.103 A 
HETATM   26  N   UNL     1      27.919  46.742  56.056  1.00  0.00    -0.351 N 
HETATM   27  H   UNL     1      27.458  47.486  56.565  1.00  0.00     0.166 HD
HETATM   28  C   UNL     1      28.955  45.977  56.536  1.00  0.00     0.043 A 
HETATM   29  C   UNL     1      29.295  45.076  55.528  1.00  0.00    -0.005 A 
HETATM   30  C   UNL     1      29.608  46.012  57.772  1.00  0.00     0.032 A 
HETATM   31  C   UNL     1      28.421  45.325  54.432  1.00  0.00     0.049 A 
HETATM   32  C   UNL     1      30.340  44.161  55.756  1.00  0.00     0.037 A 
HETATM   33  C   UNL     1      31.000  44.185  56.988  1.00  0.00     0.035 A 
HETATM   34  C   UNL     1      30.642  45.093  57.982  1.00  0.00     0.026 A 
HETATM   35 CL   UNL     1      32.278  43.066  57.282  1.00  0.00    -0.084 Cl
ENDBRANCH  22  25
ENDBRANCH   2  21
TORSDOF 7
ENDMDL
MODEL 2
REMARK VINA RESULT:     -10.0      4.432     11.863
REMARK  7 active torsions:
REMARK  status: ('A' for Active; 'I' for Inactive)
REMARK    1  A    between atoms: C_2  and  C_3 
REMARK    2  A    between atoms: C_3  and  N_4 
REMARK       I    between atoms: N_4  and  C_5 
REMARK    3  A    between atoms: C_5  and  C_6 
REMARK    4  A    between atoms: C_6  and  C_7 
REMARK    5  A    between atoms: C_7  and  C_8 
REMARK       I    between atoms: C_8  and  N_9 
REMARK    6  A    between atoms: N_9  and  N_10 
REMARK       I    between atoms: N_10  and  C_11 
REMARK    7  A    between atoms: C_11  and  C_12 
ROOT
HETATM    1  C   UNL     1      24.747  46.942  50.217  1.00  0.00     0.236 C 
HETATM    2  N   UNL     1      23.636  46.664  49.457  1.00  0.00    -0.267 N 
HETATM    3  O   UNL     1      24.779  47.844  51.055  1.00  0.00    -0.272 OA
HETATM    4  H   UNL     1      23.645  46.051  48.641  1.00  0.00     0.190 HD
ENDROOT
BRANCH   1   5
HETATM    5  C   UNL     1      25.970  46.122  49.892  1.00  0.00     0.114 C 
BRANCH   5   6
HETATM    6  C   UNL     1      25.573  44.666  49.703  1.00  0.00     0.112 C 
BRANCH   6   7
HETATM    7  C   UNL     1      26.660  43.678  50.086  1.00  0.00     0.218 C 
HETATM    8  N   UNL     1      27.086  43.738  51.389  1.00  0.00    -0.357 N 
HETATM    9  H   UNL     1      26.487  44.158  52.098  1.00  0.00     0.162 HD
HETATM   10  O   UNL     1      27.172  42.938  49.249  1.00  0.00    -0.274 OA
BRANCH   8  11
HETATM   11  C   UNL     1      28.149  42.879  51.859  1.00  0.00     0.161 C 
BRANCH  11  12
HETATM   12  C   UNL     1      28.829  43.400  53.104  1.00  0.00    -0.038 A 
HETATM   13  C   UNL     1      29.994  42.792  53.631  1.00  0.00     0.012 A 
HETATM   14  C   UNL     1      30.594  43.263  54.804  1.00  0.00     0.040 A 
HETATM   15  C   UNL     1      29.998  44.325  55.445  1.00  0.00     0.105 A 
HETATM   16  C   UNL     1      28.854  44.911  54.961  1.00  0.00     0.105 A 
HETATM   17  O   UNL     1      30.430  44.904  56.598  1.00  0.00    -0.323 OA
HETATM   18  C   UNL     1      28.246  44.473  53.801  1.00  0.00     0.048 A 
HETATM   19  O   UNL     1      28.417  45.929  55.750  1.00  0.00    -0.323 OA
HETATM   20  C   UNL     1      29.415  45.909  56.792  1.00  0.00     0.352 A 
ENDBRANCH  11  12
ENDBRANCH   8  11
ENDBRANCH   6   7
ENDBRANCH   5   6
ENDBRANCH   1   5
BRANCH   2  21
HETATM   21  N   UNL     1      22.527  47.507  49.591  1.00  0.00    -0.262 N 
HETATM   22  C   UNL     1      22.294  48.470  48.635  1.00  0.00     0.286 C 
HETATM   23  O   UNL     1      23.027  48.601  47.655  1.00  0.00    -0.264 OA
HETATM   24  H   UNL     1      21.964  47.396  50.431  1.00  0.00     0.190 HD
BRANCH  22  25
HETATM   25  C   UNL     1      21.133  49.303  48.858  1.00  0.00     0.103 A 
HETATM   26  N   UNL     1      21.064  50.587  48.361  1.00  0.00    -0.351 N 
HETATM   27  H   UNL     1      21.806  51.021  47.826  1.00  0.00     0.166 HD
HETATM   28  C   UNL     1      19.860  51.174  48.670  1.00  0.00     0.043 A 
HETATM   29  C   UNL     1      19.133  50.244  49.411  1.00  0.00    -0.005 A 
HETATM   30  C   UNL     1      19.365  52.443  48.351  1.00  0.00     0.032 A 
HETATM   31  C   UNL     1      19.941  49.078  49.528  1.00  0.00     0.049 A 
HETATM   32  C   UNL     1      17.846  50.590  49.864  1.00  0.00     0.037 A 
HETATM   33  C   UNL     1      17.338  51.855  49.550  1.00  0.00     0.035 A 
HETATM   34  C   UNL     1      18.083  52.767  48.806  1.00  0.00     0.026 A 
HETATM   35 CL   UNL     1      15.761  52.289  50.093  1.00  0.00    -0.084 Cl
ENDBRANCH  22  25
ENDBRANCH   2  21
TORSDOF 7
ENDMDL
MODEL 3
REMARK VINA RESULT:     -10.0      1.946      2.461
REMARK  7 active torsions:
REMARK  status: ('A' for Active; 'I' for Inactive)
REMARK    1  A    between atoms: C_2  and  C_3 
REMARK    2  A    between atoms: C_3  and  N_4 
REMARK       I    between atoms: N_4  and  C_5 
REMARK    3  A    between atoms: C_5  and  C_6 
REMARK    4  A    between atoms: C_6  and  C_7 
REMARK    5  A    between atoms: C_7  and  C_8 
REMARK       I    between atoms: C_8  and  N_9 
REMARK    6  A    between atoms: N_9  and  N_10 
REMARK       I    between atoms: N_10  and  C_11 
REMARK    7  A    between atoms: C_11  and  C_12 
ROOT
HETATM    1  C   UNL     1      24.759  47.211  50.299  1.00  0.00     0.236 C 
HETATM    2  N   UNL     1      24.886  45.987  50.909  1.00  0.00    -0.267 N 
HETATM    3  O   UNL     1      25.573  48.123  50.445  1.00  0.00    -0.272 OA
HETATM    4  H   UNL     1      24.141  45.290  50.947  1.00  0.00     0.190 HD
ENDROOT
BRANCH   1   5
HETATM    5  C   UNL     1      23.494  47.402  49.498  1.00  0.00     0.114 C 
BRANCH   5   6
HETATM    6  C   UNL     1      23.618  48.652  48.641  1.00  0.00     0.112 C 
BRANCH   6   7
HETATM    7  C   UNL     1      22.990  49.887  49.263  1.00  0.00     0.218 C 
HETATM    8  N   UNL     1      21.671  49.767  49.622  1.00  0.00    -0.357 N 
HETATM    9  H   UNL     1      21.271  48.842  49.775  1.00  0.00     0.162 HD
HETATM   10  O   UNL     1      23.614  50.942  49.353  1.00  0.00    -0.274 OA
BRANCH   8  11
HETATM   11  C   UNL     1      20.952  50.890  50.181  1.00  0.00     0.161 C 
BRANCH  11  12
HETATM   12  C   UNL     1      19.699  51.237  49.411  1.00  0.00    -0.038 A 
HETATM   13  C   UNL     1      19.658  51.207  47.996  1.00  0.00     0.012 A 
HETATM   14  C   UNL     1      18.501  51.564  47.294  1.00  0.00     0.040 A 
HETATM   15  C   UNL     1      17.409  51.972  48.026  1.00  0.00     0.105 A 
HETATM   16  C   UNL     1      17.441  52.031  49.397  1.00  0.00     0.105 A 
HETATM   17  O   UNL     1      16.212  52.367  47.516  1.00  0.00    -0.323 OA
HETATM   18  C   UNL     1      18.564  51.674  50.116  1.00  0.00     0.048 A 
HETATM   19  O   UNL     1      16.269  52.476  49.925  1.00  0.00    -0.323 OA
HETATM   20  C   UNL     1      15.500  52.699  48.725  1.00  0.00     0.352 A 
ENDBRANCH  11  12
ENDBRANCH   8  11
ENDBRANCH   6   7
ENDBRANCH   5   6
ENDBRANCH   1   5
BRANCH   2  21
HETATM   21  N   UNL     1      25.948  45.812  51.803  1.00  0.00    -0.262 N 
HETATM   22  C   UNL     1      26.225  44.551  52.283  1.00  0.00     0.286 C 
HETATM   23  O   UNL     1      25.571  43.568  51.935  1.00  0.00    -0.264 OA
HETATM   24  H   UNL     1      26.443  46.649  52.098  1.00  0.00     0.190 HD
BRANCH  22  25
HETATM   25  C   UNL     1      27.331  44.464  53.209  1.00  0.00     0.103 A 
HETATM   26  N   UNL     1      27.646  45.509  54.052  1.00  0.00    -0.351 N 
HETATM   27  H   UNL     1      27.139  46.385  54.071  1.00  0.00     0.166 HD
HETATM   28  C   UNL     1      28.711  45.190  54.860  1.00  0.00     0.043 A 
HETATM   29  C   UNL     1      29.112  43.901  54.514  1.00  0.00    -0.005 A 
HETATM   30  C   UNL     1      29.341  45.937  55.861  1.00  0.00     0.032 A 
HETATM   31  C   UNL     1      28.246  43.458  53.475  1.00  0.00     0.049 A 
HETATM   32  C   UNL     1      30.199  43.320  55.194  1.00  0.00     0.037 A 
HETATM   33  C   UNL     1      30.836  44.055  56.199  1.00  0.00     0.035 A 
HETATM   34  C   UNL     1      30.416  45.341  56.529  1.00  0.00     0.026 A 
HETATM   35 CL   UNL     1      32.164  43.352  57.044  1.00  0.00    -0.084 Cl
ENDBRANCH  22  25
ENDBRANCH   2  21
TORSDOF 7
ENDMDL
MODEL 4
REMARK VINA RESULT:     -10.0      4.346     11.805
REMARK  7 active torsions:
REMARK  status: ('A' for Active; 'I' for Inactive)
REMARK    1  A    between atoms: C_2  and  C_3 
REMARK    2  A    between atoms: C_3  and  N_4 
REMARK       I    between atoms: N_4  and  C_5 
REMARK    3  A    between atoms: C_5  and  C_6 
REMARK    4  A    between atoms: C_6  and  C_7 
REMARK    5  A    between atoms: C_7  and  C_8 
REMARK       I    between atoms: C_8  and  N_9 
REMARK    6  A    between atoms: N_9  and  N_10 
REMARK       I    between atoms: N_10  and  C_11 
REMARK    7  A    between atoms: C_11  and  C_12 
ROOT
HETATM    1  C   UNL     1      25.315  45.559  49.496  1.00  0.00     0.236 C 
HETATM    2  N   UNL     1      25.328  46.916  49.713  1.00  0.00    -0.267 N 
HETATM    3  O   UNL     1      24.287  44.928  49.249  1.00  0.00    -0.272 OA
HETATM    4  H   UNL     1      26.127  47.423  50.094  1.00  0.00     0.190 HD
ENDROOT
BRANCH   1   5
HETATM    5  C   UNL     1      26.644  44.867  49.671  1.00  0.00     0.114 C 
BRANCH   5   6
HETATM    6  C   UNL     1      26.498  43.727  50.667  1.00  0.00     0.112 C 
BRANCH   6   7
HETATM    7  C   UNL     1      26.350  44.186  52.108  1.00  0.00     0.218 C 
HETATM    8  N   UNL     1      27.405  44.903  52.614  1.00  0.00    -0.357 N 
HETATM    9  H   UNL     1      28.050  45.370  51.979  1.00  0.00     0.162 HD
HETATM   10  O   UNL     1      25.380  43.856  52.785  1.00  0.00    -0.274 OA
BRANCH   8  11
HETATM   11  C   UNL     1      27.400  45.354  53.987  1.00  0.00     0.161 C 
BRANCH  11  12
HETATM   12  C   UNL     1      28.610  44.896  54.768  1.00  0.00    -0.038 A 
HETATM   13  C   UNL     1      29.344  43.742  54.402  1.00  0.00     0.012 A 
HETATM   14  C   UNL     1      30.442  43.310  55.154  1.00  0.00     0.040 A 
HETATM   15  C   UNL     1      30.771  44.030  56.280  1.00  0.00     0.105 A 
HETATM   16  C   UNL     1      30.054  45.138  56.662  1.00  0.00     0.105 A 
HETATM   17  O   UNL     1      31.792  43.751  57.134  1.00  0.00    -0.323 OA
HETATM   18  C   UNL     1      28.973  45.593  55.934  1.00  0.00     0.048 A 
HETATM   19  O   UNL     1      30.529  45.693  57.809  1.00  0.00    -0.323 OA
HETATM   20  C   UNL     1      31.622  44.800  58.108  1.00  0.00     0.352 A 
ENDBRANCH  11  12
ENDBRANCH   8  11
ENDBRANCH   6   7
ENDBRANCH   5   6
ENDBRANCH   1   5
BRANCH   2  21
HETATM   21  N   UNL     1      24.098  47.583  49.737  1.00  0.00    -0.262 N 
HETATM   22  C   UNL     1      23.983  48.806  49.114  1.00  0.00     0.286 C 
HETATM   23  O   UNL     1      24.931  49.323  48.522  1.00  0.00    -0.264 OA
HETATM   24  H   UNL     1      23.348  47.147  50.266  1.00  0.00     0.190 HD
BRANCH  22  25
HETATM   25  C   UNL     1      22.681  49.429  49.197  1.00  0.00     0.103 A 
HETATM   26  N   UNL     1      21.573  48.724  49.616  1.00  0.00    -0.351 N 
HETATM   27  H   UNL     1      21.598  47.747  49.880  1.00  0.00     0.166 HD
HETATM   28  C   UNL     1      20.457  49.525  49.644  1.00  0.00     0.043 A 
HETATM   29  C   UNL     1      20.852  50.788  49.209  1.00  0.00    -0.005 A 
HETATM   30  C   UNL     1      19.142  49.231  50.021  1.00  0.00     0.032 A 
HETATM   31  C   UNL     1      22.246  50.716  48.925  1.00  0.00     0.049 A 
HETATM   32  C   UNL     1      19.893  51.816  49.138  1.00  0.00     0.037 A 
HETATM   33  C   UNL     1      18.576  51.536  49.513  1.00  0.00     0.035 A 
HETATM   34  C   UNL     1      18.204  50.266  49.948  1.00  0.00     0.026 A 
HETATM   35 CL   UNL     1      17.393  52.787  49.438  1.00  0.00    -0.084 Cl
ENDBRANCH  22  25
ENDBRANCH   2  21
TORSDOF 7
ENDMDL
MODEL 5
REMARK VINA RESULT:     -10.0      1.739      2.386
REMARK  7 active torsions:
REMARK  status: ('A' for Active; 'I' for Inactive)
REMARK    1  A    between atoms: C_2  and  C_3 
REMARK    2  A    between atoms: C_3  and  N_4 
REMARK       I    between atoms: N_4  and  C_5 
REMARK    3  A    between atoms: C_5  and  C_6 
REMARK    4  A    between atoms: C_6  and  C_7 
REMARK    5  A    between atoms: C_7  and  C_8 
REMARK       I    between atoms: C_8  and  N_9 
REMARK    6  A    between atoms: N_9  and  N_10 
REMARK       I    between atoms: N_10  and  C_11 
REMARK    7  A    between atoms: C_11  and  C_12 
ROOT
HETATM    1  C   UNL     1      24.222  46.659  49.967  1.00  0.00     0.236 C 
HETATM    2  N   UNL     1      24.494  47.073  51.248  1.00  0.00    -0.267 N 
HETATM    3  O   UNL     1      24.791  45.707  49.433  1.00  0.00    -0.272 OA
HETATM    4  H   UNL     1      24.172  47.959  51.640  1.00  0.00     0.190 HD
ENDROOT
BRANCH   1   5
HETATM    5  C   UNL     1      23.233  47.513  49.211  1.00  0.00     0.114 C 
BRANCH   5   6
HETATM    6  C   UNL     1      23.881  48.838  48.844  1.00  0.00     0.112 C 
BRANCH   6   7
HETATM    7  C   UNL     1      23.132  50.053  49.363  1.00  0.00     0.218 C 
HETATM    8  N   UNL     1      21.858  49.816  49.815  1.00  0.00    -0.357 N 
HETATM    9  H   UNL     1      21.586  48.875  50.093  1.00  0.00     0.162 HD
HETATM   10  O   UNL     1      23.620  51.178  49.299  1.00  0.00    -0.274 OA
BRANCH   8  11
HETATM   11  C   UNL     1      21.030  50.902  50.291  1.00  0.00     0.161 C 
BRANCH  11  12
HETATM   12  C   UNL     1      19.836  51.172  49.404  1.00  0.00    -0.038 A 
HETATM   13  C   UNL     1      19.904  51.039  47.996  1.00  0.00     0.012 A 
HETATM   14  C   UNL     1      18.802  51.326  47.184  1.00  0.00     0.040 A 
HETATM   15  C   UNL     1      17.652  51.768  47.798  1.00  0.00     0.105 A 
HETATM   16  C   UNL     1      17.577  51.927  49.161  1.00  0.00     0.105 A 
HETATM   17  O   UNL     1      16.494  52.106  47.171  1.00  0.00    -0.323 OA
HETATM   18  C   UNL     1      18.646  51.642  49.987  1.00  0.00     0.048 A 
HETATM   19  O   UNL     1      16.364  52.390  49.564  1.00  0.00    -0.323 OA
HETATM   20  C   UNL     1      15.688  52.514  48.295  1.00  0.00     0.352 A 
ENDBRANCH  11  12
ENDBRANCH   8  11
ENDBRANCH   6   7
ENDBRANCH   5   6
ENDBRANCH   1   5
BRANCH   2  21
HETATM   21  N   UNL     1      25.528  46.428  51.935  1.00  0.00    -0.262 N 
HETATM   22  C   UNL     1      25.936  46.920  53.156  1.00  0.00     0.286 C 
HETATM   23  O   UNL     1      25.403  47.904  53.668  1.00  0.00    -0.264 OA
HETATM   24  H   UNL     1      25.970  45.641  51.468  1.00  0.00     0.190 HD
BRANCH  22  25
HETATM   25  C   UNL     1      27.016  46.198  53.790  1.00  0.00     0.103 A 
HETATM   26  N   UNL     1      27.408  44.954  53.344  1.00  0.00    -0.351 N 
HETATM   27  H   UNL     1      26.971  44.474  52.567  1.00  0.00     0.166 HD
HETATM   28  C   UNL     1      28.469  44.476  54.076  1.00  0.00     0.043 A 
HETATM   29  C   UNL     1      28.760  45.436  55.043  1.00  0.00    -0.005 A 
HETATM   30  C   UNL     1      29.185  43.281  53.955  1.00  0.00     0.032 A 
HETATM   31  C   UNL     1      27.841  46.508  54.859  1.00  0.00     0.049 A 
HETATM   32  C   UNL     1      29.817  45.199  55.942  1.00  0.00     0.037 A 
HETATM   33  C   UNL     1      30.543  44.009  55.830  1.00  0.00     0.035 A 
HETATM   34  C   UNL     1      30.235  43.065  54.854  1.00  0.00     0.026 A 
HETATM   35 CL   UNL     1      31.844  43.710  56.921  1.00  0.00    -0.084 Cl
ENDBRANCH  22  25
ENDBRANCH   2  21
TORSDOF 7
ENDMDL
MODEL 6
REMARK VINA RESULT:      -9.4      3.006      4.059
REMARK  7 active torsions:
REMARK  status: ('A' for Active; 'I' for Inactive)
REMARK    1  A    between atoms: C_2  and  C_3 
REMARK    2  A    between atoms: C_3  and  N_4 
REMARK       I    between atoms: N_4  and  C_5 
REMARK    3  A    between atoms: C_5  and  C_6 
REMARK    4  A    between atoms: C_6  and  C_7 
REMARK    5  A    between atoms: C_7  and  C_8 
REMARK       I    between atoms: C_8  and  N_9 
REMARK    6  A    between atoms: N_9  and  N_10 
REMARK       I    between atoms: N_10  and  C_11 
REMARK    7  A    between atoms: C_11  and  C_12 
ROOT
HETATM    1  C   UNL     1      24.924  42.233  50.306  1.00  0.00     0.236 C 
HETATM    2  N   UNL     1      24.759  43.024  51.417  1.00  0.00    -0.267 N 
HETATM    3  O   UNL     1      25.917  41.529  50.124  1.00  0.00    -0.272 OA
HETATM    4  H   UNL     1      24.041  43.744  51.501  1.00  0.00     0.190 HD
ENDROOT
BRANCH   1   5
HETATM    5  C   UNL     1      23.839  42.352  49.265  1.00  0.00     0.114 C 
BRANCH   5   6
HETATM    6  C   UNL     1      22.684  43.168  49.823  1.00  0.00     0.112 C 
BRANCH   6   7
HETATM    7  C   UNL     1      22.060  44.118  48.817  1.00  0.00     0.218 C 
HETATM    8  N   UNL     1      21.082  44.946  49.308  1.00  0.00    -0.357 N 
HETATM    9  H   UNL     1      21.038  45.139  50.308  1.00  0.00     0.162 HD
HETATM   10  O   UNL     1      22.364  44.076  47.627  1.00  0.00    -0.274 OA
BRANCH   8  11
HETATM   11  C   UNL     1      20.382  45.862  48.436  1.00  0.00     0.161 C 
BRANCH  11  12
HETATM   12  C   UNL     1      20.857  47.291  48.568  1.00  0.00    -0.038 A 
HETATM   13  C   UNL     1      20.065  48.289  49.184  1.00  0.00     0.012 A 
HETATM   14  C   UNL     1      20.502  49.616  49.269  1.00  0.00     0.040 A 
HETATM   15  C   UNL     1      21.721  49.924  48.710  1.00  0.00     0.105 A 
HETATM   16  C   UNL     1      22.492  48.973  48.088  1.00  0.00     0.105 A 
HETATM   17  O   UNL     1      22.297  51.156  48.686  1.00  0.00    -0.323 OA
HETATM   18  C   UNL     1      22.090  47.655  47.998  1.00  0.00     0.048 A 
HETATM   19  O   UNL     1      23.648  49.486  47.588  1.00  0.00    -0.323 OA
HETATM   20  C   UNL     1      23.510  50.873  47.960  1.00  0.00     0.352 A 
ENDBRANCH  11  12
ENDBRANCH   8  11
ENDBRANCH   6   7
ENDBRANCH   5   6
ENDBRANCH   1   5
BRANCH   2  21
HETATM   21  N   UNL     1      25.815  43.089  52.333  1.00  0.00    -0.262 N 
HETATM   22  C   UNL     1      26.597  44.221  52.381  1.00  0.00     0.286 C 
HETATM   23  O   UNL     1      26.383  45.187  51.649  1.00  0.00    -0.264 OA
HETATM   24  H   UNL     1      25.986  42.260  52.896  1.00  0.00     0.190 HD
BRANCH  22  25
HETATM   25  C   UNL     1      27.670  44.198  53.349  1.00  0.00     0.103 A 
HETATM   26  N   UNL     1      27.869  45.242  54.228  1.00  0.00    -0.351 N 
HETATM   27  H   UNL     1      27.293  46.075  54.247  1.00  0.00     0.166 HD
HETATM   28  C   UNL     1      28.923  44.987  55.071  1.00  0.00     0.043 A 
HETATM   29  C   UNL     1      29.439  43.743  54.713  1.00  0.00    -0.005 A 
HETATM   30  C   UNL     1      29.453  45.755  56.114  1.00  0.00     0.032 A 
HETATM   31  C   UNL     1      28.651  43.260  53.630  1.00  0.00     0.049 A 
HETATM   32  C   UNL     1      30.541  43.232  55.423  1.00  0.00     0.037 A 
HETATM   33  C   UNL     1      31.078  43.987  56.469  1.00  0.00     0.035 A 
HETATM   34  C   UNL     1      30.545  45.228  56.812  1.00  0.00     0.026 A 
HETATM   35 CL   UNL     1      32.424  43.370  57.352  1.00  0.00    -0.084 Cl
ENDBRANCH  22  25
ENDBRANCH   2  21
TORSDOF 7
ENDMDL
MODEL 7
REMARK VINA RESULT:      -9.4      4.563     12.025
REMARK  7 active torsions:
REMARK  status: ('A' for Active; 'I' for Inactive)
REMARK    1  A    between atoms: C_2  and  C_3 
REMARK    2  A    between atoms: C_3  and  N_4 
REMARK       I    between atoms: N_4  and  C_5 
REMARK    3  A    between atoms: C_5  and  C_6 
REMARK    4  A    between atoms: C_6  and  C_7 
REMARK    5  A    between atoms: C_7  and  C_8 
REMARK       I    between atoms: C_8  and  N_9 
REMARK    6  A    between atoms: N_9  and  N_10 
REMARK       I    between atoms: N_10  and  C_11 
REMARK    7  A    between atoms: C_11  and  C_12 
ROOT
HETATM    1  C   UNL     1      26.179  45.721  49.866  1.00  0.00     0.236 C 
HETATM    2  N   UNL     1      24.832  45.452  49.873  1.00  0.00    -0.267 N 
HETATM    3  O   UNL     1      26.637  46.857  49.733  1.00  0.00    -0.272 OA
HETATM    4  H   UNL     1      24.440  44.513  49.799  1.00  0.00     0.190 HD
ENDROOT
BRANCH   1   5
HETATM    5  C   UNL     1      27.078  44.512  49.941  1.00  0.00     0.114 C 
BRANCH   5   6
HETATM    6  C   UNL     1      26.428  43.448  50.812  1.00  0.00     0.112 C 
BRANCH   6   7
HETATM    7  C   UNL     1      27.392  42.758  51.761  1.00  0.00     0.218 C 
HETATM    8  N   UNL     1      28.501  43.485  52.112  1.00  0.00    -0.357 N 
HETATM    9  H   UNL     1      28.490  44.499  52.023  1.00  0.00     0.162 HD
HETATM   10  O   UNL     1      27.215  41.595  52.114  1.00  0.00    -0.274 OA
BRANCH   8  11
HETATM   11  C   UNL     1      29.514  42.917  52.974  1.00  0.00     0.161 C 
BRANCH  11  12
HETATM   12  C   UNL     1      29.680  43.670  54.274  1.00  0.00    -0.038 A 
HETATM   13  C   UNL     1      28.924  44.830  54.569  1.00  0.00     0.012 A 
HETATM   14  C   UNL     1      29.112  45.538  55.761  1.00  0.00     0.040 A 
HETATM   15  C   UNL     1      30.078  45.082  56.630  1.00  0.00     0.105 A 
HETATM   16  C   UNL     1      30.837  43.973  56.348  1.00  0.00     0.105 A 
HETATM   17  O   UNL     1      30.407  45.648  57.822  1.00  0.00    -0.323 OA
HETATM   18  C   UNL     1      30.666  43.249  55.184  1.00  0.00     0.048 A 
HETATM   19  O   UNL     1      31.744  43.702  57.324  1.00  0.00    -0.323 OA
HETATM   20  C   UNL     1      31.474  44.776  58.248  1.00  0.00     0.352 A 
ENDBRANCH  11  12
ENDBRANCH   8  11
ENDBRANCH   6   7
ENDBRANCH   5   6
ENDBRANCH   1   5
BRANCH   2  21
HETATM   21  N   UNL     1      23.954  46.514  49.630  1.00  0.00    -0.262 N 
HETATM   22  C   UNL     1      22.851  46.307  48.832  1.00  0.00     0.286 C 
HETATM   23  O   UNL     1      22.607  45.207  48.337  1.00  0.00    -0.264 OA
HETATM   24  H   UNL     1      24.205  47.417  50.024  1.00  0.00     0.190 HD
BRANCH  22  25
HETATM   25  C   UNL     1      22.004  47.461  48.626  1.00  0.00     0.103 A 
HETATM   26  N   UNL     1      22.092  48.570  49.440  1.00  0.00    -0.351 N 
HETATM   27  H   UNL     1      22.734  48.644  50.219  1.00  0.00     0.166 HD
HETATM   28  C   UNL     1      21.215  49.550  49.039  1.00  0.00     0.043 A 
HETATM   29  C   UNL     1      20.522  49.049  47.939  1.00  0.00    -0.005 A 
HETATM   30  C   UNL     1      20.989  50.828  49.560  1.00  0.00     0.032 A 
HETATM   31  C   UNL     1      21.019  47.738  47.692  1.00  0.00     0.049 A 
HETATM   32  C   UNL     1      19.548  49.857  47.322  1.00  0.00     0.037 A 
HETATM   33  C   UNL     1      19.313  51.137  47.831  1.00  0.00     0.035 A 
HETATM   34  C   UNL     1      20.020  51.618  48.931  1.00  0.00     0.026 A 
HETATM   35 CL   UNL     1      18.128  52.139  47.081  1.00  0.00    -0.084 Cl
ENDBRANCH  22  25
ENDBRANCH   2  21
TORSDOF 7
ENDMDL
MODEL 8
REMARK VINA RESULT:      -9.2      2.034      2.248
REMARK  7 active torsions:
REMARK  status: ('A' for Active; 'I' for Inactive)
REMARK    1  A    between atoms: C_2  and  C_3 
REMARK    2  A    between atoms: C_3  and  N_4 
REMARK       I    between atoms: N_4  and  C_5 
REMARK    3  A    between atoms: C_5  and  C_6 
REMARK    4  A    between atoms: C_6  and  C_7 
REMARK    5  A    between atoms: C_7  and  C_8 
REMARK       I    between atoms: C_8  and  N_9 
REMARK    6  A    between atoms: N_9  and  N_10 
REMARK       I    between atoms: N_10  and  C_11 
REMARK    7  A    between atoms: C_11  and  C_12 
ROOT
HETATM    1  C   UNL     1      24.920  45.475  49.578  1.00  0.00     0.236 C 
HETATM    2  N   UNL     1      25.283  44.262  50.110  1.00  0.00    -0.267 N 
HETATM    3  O   UNL     1      25.522  46.522  49.819  1.00  0.00    -0.272 OA
HETATM    4  H   UNL     1      24.699  43.426  50.071  1.00  0.00     0.190 HD
ENDROOT
BRANCH   1   5
HETATM    5  C   UNL     1      23.666  45.460  48.739  1.00  0.00     0.114 C 
BRANCH   5   6
HETATM    6  C   UNL     1      22.727  46.561  49.206  1.00  0.00     0.112 C 
BRANCH   6   7
HETATM    7  C   UNL     1      22.436  47.610  48.148  1.00  0.00     0.218 C 
HETATM    8  N   UNL     1      22.370  48.905  48.598  1.00  0.00    -0.357 N 
HETATM    9  H   UNL     1      22.816  49.158  49.478  1.00  0.00     0.162 HD
HETATM   10  O   UNL     1      22.196  47.294  46.986  1.00  0.00    -0.274 OA
BRANCH   8  11
HETATM   11  C   UNL     1      22.053  49.987  47.692  1.00  0.00     0.161 C 
BRANCH  11  12
HETATM   12  C   UNL     1      20.654  50.526  47.876  1.00  0.00    -0.038 A 
HETATM   13  C   UNL     1      20.403  51.742  48.557  1.00  0.00     0.012 A 
HETATM   14  C   UNL     1      19.100  52.213  48.750  1.00  0.00     0.040 A 
HETATM   15  C   UNL     1      18.064  51.441  48.276  1.00  0.00     0.105 A 
HETATM   16  C   UNL     1      18.288  50.248  47.634  1.00  0.00     0.105 A 
HETATM   17  O   UNL     1      16.740  51.732  48.385  1.00  0.00    -0.323 OA
HETATM   18  C   UNL     1      19.563  49.763  47.421  1.00  0.00     0.048 A 
HETATM   19  O   UNL     1      17.134  49.633  47.263  1.00  0.00    -0.323 OA
HETATM   20  C   UNL     1      16.157  50.574  47.753  1.00  0.00     0.352 A 
ENDBRANCH  11  12
ENDBRANCH   8  11
ENDBRANCH   6   7
ENDBRANCH   5   6
ENDBRANCH   1   5
BRANCH   2  21
HETATM   21  N   UNL     1      26.333  44.245  51.035  1.00  0.00    -0.262 N 
HETATM   22  C   UNL     1      26.045  44.155  52.380  1.00  0.00     0.286 C 
HETATM   23  O   UNL     1      24.887  44.074  52.790  1.00  0.00    -0.264 OA
HETATM   24  H   UNL     1      27.274  44.351  50.666  1.00  0.00     0.190 HD
BRANCH  22  25
HETATM   25  C   UNL     1      27.189  44.154  53.264  1.00  0.00     0.103 A 
HETATM   26  N   UNL     1      27.542  45.277  53.982  1.00  0.00    -0.351 N 
HETATM   27  H   UNL     1      27.040  46.154  53.933  1.00  0.00     0.166 HD
HETATM   28  C   UNL     1      28.638  45.033  54.775  1.00  0.00     0.043 A 
HETATM   29  C   UNL     1      29.020  43.713  54.547  1.00  0.00    -0.005 A 
HETATM   30  C   UNL     1      29.312  45.873  55.669  1.00  0.00     0.032 A 
HETATM   31  C   UNL     1      28.109  43.173  53.594  1.00  0.00     0.049 A 
HETATM   32  C   UNL     1      30.131  43.195  55.238  1.00  0.00     0.037 A 
HETATM   33  C   UNL     1      30.812  44.023  56.135  1.00  0.00     0.035 A 
HETATM   34  C   UNL     1      30.411  45.340  56.350  1.00  0.00     0.026 A 
HETATM   35 CL   UNL     1      32.171  43.399  56.994  1.00  0.00    -0.084 Cl
ENDBRANCH  22  25
ENDBRANCH   2  21
TORSDOF 7
ENDMDL
MODEL 9
REMARK VINA RESULT:      -9.1      4.703     12.308
REMARK  7 active torsions:
REMARK  status: ('A' for Active; 'I' for Inactive)
REMARK    1  A    between atoms: C_2  and  C_3 
REMARK    2  A    between atoms: C_3  and  N_4 
REMARK       I    between atoms: N_4  and  C_5 
REMARK    3  A    between atoms: C_5  and  C_6 
REMARK    4  A    between atoms: C_6  and  C_7 
REMARK    5  A    between atoms: C_7  and  C_8 
REMARK       I    between atoms: C_8  and  N_9 
REMARK    6  A    between atoms: N_9  and  N_10 
REMARK       I    between atoms: N_10  and  C_11 
REMARK    7  A    between atoms: C_11  and  C_12 
ROOT
HETATM    1  C   UNL     1      23.227  46.653  49.166  1.00  0.00     0.236 C 
HETATM    2  N   UNL     1      23.051  47.900  49.715  1.00  0.00    -0.267 N 
HETATM    3  O   UNL     1      22.367  46.089  48.490  1.00  0.00    -0.272 OA
HETATM    4  H   UNL     1      23.669  48.304  50.419  1.00  0.00     0.190 HD
ENDROOT
BRANCH   1   5
HETATM    5  C   UNL     1      24.524  45.970  49.524  1.00  0.00     0.114 C 
BRANCH   5   6
HETATM    6  C   UNL     1      24.273  44.941  50.615  1.00  0.00     0.112 C 
BRANCH   6   7
HETATM    7  C   UNL     1      25.455  44.025  50.879  1.00  0.00     0.218 C 
HETATM    8  N   UNL     1      26.411  44.519  51.730  1.00  0.00    -0.357 N 
HETATM    9  H   UNL     1      26.172  45.267  52.380  1.00  0.00     0.162 HD
HETATM   10  O   UNL     1      25.572  42.951  50.295  1.00  0.00    -0.274 OA
BRANCH   8  11
HETATM   11  C   UNL     1      27.605  43.758  52.022  1.00  0.00     0.161 C 
BRANCH  11  12
HETATM   12  C   UNL     1      28.254  44.146  53.331  1.00  0.00    -0.038 A 
HETATM   13  C   UNL     1      27.847  45.291  54.057  1.00  0.00     0.012 A 
HETATM   14  C   UNL     1      28.478  45.658  55.250  1.00  0.00     0.040 A 
HETATM   15  C   UNL     1      29.528  44.881  55.684  1.00  0.00     0.105 A 
HETATM   16  C   UNL     1      29.951  43.781  54.978  1.00  0.00     0.105 A 
HETATM   17  O   UNL     1      30.265  45.093  56.808  1.00  0.00    -0.323 OA
HETATM   18  C   UNL     1      29.341  43.390  53.804  1.00  0.00     0.048 A 
HETATM   19  O   UNL     1      31.011  43.164  55.565  1.00  0.00    -0.323 OA
HETATM   20  C   UNL     1      31.212  44.010  56.717  1.00  0.00     0.352 A 
ENDBRANCH  11  12
ENDBRANCH   8  11
ENDBRANCH   6   7
ENDBRANCH   5   6
ENDBRANCH   1   5
BRANCH   2  21
HETATM   21  N   UNL     1      21.800  48.508  49.562  1.00  0.00    -0.262 N 
HETATM   22  C   UNL     1      21.706  49.881  49.619  1.00  0.00     0.286 C 
HETATM   23  O   UNL     1      22.698  50.591  49.785  1.00  0.00    -0.264 OA
HETATM   24  H   UNL     1      20.998  47.891  49.464  1.00  0.00     0.190 HD
BRANCH  22  25
HETATM   25  C   UNL     1      20.375  50.423  49.462  1.00  0.00     0.103 A 
HETATM   26  N   UNL     1      19.407  49.753  48.745  1.00  0.00    -0.351 N 
HETATM   27  H   UNL     1      19.563  48.863  48.288  1.00  0.00     0.166 HD
HETATM   28  C   UNL     1      18.217  50.441  48.757  1.00  0.00     0.043 A 
HETATM   29  C   UNL     1      18.428  51.606  49.490  1.00  0.00    -0.005 A 
HETATM   30  C   UNL     1      16.982  50.120  48.182  1.00  0.00     0.032 A 
HETATM   31  C   UNL     1      19.785  51.589  49.922  1.00  0.00     0.049 A 
HETATM   32  C   UNL     1      17.360  52.507  49.661  1.00  0.00     0.037 A 
HETATM   33  C   UNL     1      16.121  52.198  49.093  1.00  0.00     0.035 A 
HETATM   34  C   UNL     1      15.932  51.025  48.366  1.00  0.00     0.026 A 
HETATM   35 CL   UNL     1      14.802  53.289  49.301  1.00  0.00    -0.084 Cl
ENDBRANCH  22  25
ENDBRANCH   2  21
TORSDOF 7
ENDMDL
MODEL 10
REMARK VINA RESULT:      -9.1      4.657     11.701
REMARK  7 active torsions:
REMARK  status: ('A' for Active; 'I' for Inactive)
REMARK    1  A    between atoms: C_2  and  C_3 
REMARK    2  A    between atoms: C_3  and  N_4 
REMARK       I    between atoms: N_4  and  C_5 
REMARK    3  A    between atoms: C_5  and  C_6 
REMARK    4  A    between atoms: C_6  and  C_7 
REMARK    5  A    between atoms: C_7  and  C_8 
REMARK       I    between atoms: C_8  and  N_9 
REMARK    6  A    between atoms: N_9  and  N_10 
REMARK       I    between atoms: N_10  and  C_11 
REMARK    7  A    between atoms: C_11  and  C_12 
ROOT
HETATM    1  C   UNL     1      23.382  43.871  48.998  1.00  0.00     0.236 C 
HETATM    2  N   UNL     1      23.750  45.177  48.782  1.00  0.00    -0.267 N 
HETATM    3  O   UNL     1      22.215  43.522  49.173  1.00  0.00    -0.272 OA
HETATM    4  H   UNL     1      24.715  45.509  48.817  1.00  0.00     0.190 HD
ENDROOT
BRANCH   1   5
HETATM    5  C   UNL     1      24.524  42.890  49.100  1.00  0.00     0.114 C 
BRANCH   5   6
HETATM    6  C   UNL     1      25.050  42.866  50.526  1.00  0.00     0.112 C 
BRANCH   6   7
HETATM    7  C   UNL     1      26.556  43.034  50.628  1.00  0.00     0.218 C 
HETATM    8  N   UNL     1      27.145  42.453  51.723  1.00  0.00    -0.357 N 
HETATM    9  H   UNL     1      26.668  41.700  52.215  1.00  0.00     0.162 HD
HETATM   10  O   UNL     1      27.177  43.718  49.818  1.00  0.00    -0.274 OA
BRANCH   8  11
HETATM   11  C   UNL     1      28.567  42.584  51.953  1.00  0.00     0.161 C 
BRANCH  11  12
HETATM   12  C   UNL     1      28.897  43.319  53.231  1.00  0.00    -0.038 A 
HETATM   13  C   UNL     1      28.241  44.519  53.596  1.00  0.00     0.012 A 
HETATM   14  C   UNL     1      28.581  45.208  54.766  1.00  0.00     0.040 A 
HETATM   15  C   UNL     1      29.595  44.692  55.540  1.00  0.00     0.105 A 
HETATM   16  C   UNL     1      30.258  43.542  55.188  1.00  0.00     0.105 A 
HETATM   17  O   UNL     1      30.067  45.230  56.697  1.00  0.00    -0.323 OA
HETATM   18  C   UNL     1      29.938  42.837  54.046  1.00  0.00     0.048 A 
HETATM   19  O   UNL     1      31.236  43.213  56.075  1.00  0.00    -0.323 OA
HETATM   20  C   UNL     1      31.116  44.296  57.021  1.00  0.00     0.352 A 
ENDBRANCH  11  12
ENDBRANCH   8  11
ENDBRANCH   6   7
ENDBRANCH   5   6
ENDBRANCH   1   5
BRANCH   2  21
HETATM   21  N   UNL     1      22.752  46.155  48.853  1.00  0.00    -0.262 N 
HETATM   22  C   UNL     1      23.110  47.471  49.046  1.00  0.00     0.286 C 
HETATM   23  O   UNL     1      24.289  47.814  49.143  1.00  0.00    -0.264 OA
HETATM   24  H   UNL     1      21.789  45.834  48.806  1.00  0.00     0.190 HD
BRANCH  22  25
HETATM   25  C   UNL     1      22.015  48.412  49.117  1.00  0.00     0.103 A 
HETATM   26  N   UNL     1      20.771  48.033  49.572  1.00  0.00    -0.351 N 
HETATM   27  H   UNL     1      20.547  47.093  49.874  1.00  0.00     0.166 HD
HETATM   28  C   UNL     1      19.900  49.097  49.580  1.00  0.00     0.043 A 
HETATM   29  C   UNL     1      20.601  50.198  49.093  1.00  0.00    -0.005 A 
HETATM   30  C   UNL     1      18.561  49.166  49.979  1.00  0.00     0.032 A 
HETATM   31  C   UNL     1      21.923  49.758  48.800  1.00  0.00     0.049 A 
HETATM   32  C   UNL     1      19.939  51.436  48.992  1.00  0.00     0.037 A 
HETATM   33  C   UNL     1      18.601  51.520  49.390  1.00  0.00     0.035 A 
HETATM   34  C   UNL     1      17.921  50.405  49.876  1.00  0.00     0.026 A 
HETATM   35 CL   UNL     1      17.780  53.032  49.277  1.00  0.00    -0.084 Cl
ENDBRANCH  22  25
ENDBRANCH   2  21
TORSDOF 7
ENDMDL
