MODEL 1
REMARK VINA RESULT:      -9.6      0.000      0.000
REMARK  8 active torsions:
REMARK  status: ('A' for Active; 'I' for Inactive)
REMARK    1  A    between atoms: C_2  and  C_3 
REMARK    2  A    between atoms: C_3  and  N_4 
REMARK       I    between atoms: N_4  and  C_5 
REMARK    3  A    between atoms: C_5  and  C_6 
REMARK    4  A    between atoms: C_7  and  N_8 
REMARK    5  A    between atoms: N_11  and  C_12 
REMARK    6  A    between atoms: C_13  and  O_14 
REMARK    7  A    between atoms: C_24  and  N_25 
REMARK       I    between atoms: N_25  and  C_26 
REMARK       I    between atoms: C_26  and  N_27 
REMARK    8  A    between atoms: N_27  and  C_28 
ROOT
HETATM    1  C   UNL     1      23.859  46.267  49.619  1.00  0.00     0.060 A 
HETATM    2  C   UNL     1      24.121  44.944  50.032  1.00  0.00     0.046 A 
HETATM    3  C   UNL     1      23.214  43.966  49.582  1.00  0.00     0.032 A 
HETATM    4  C   UNL     1      22.079  44.284  48.820  1.00  0.00     0.032 A 
HETATM    5  C   UNL     1      21.800  45.604  48.491  1.00  0.00     0.037 A 
HETATM    6  C   UNL     1      22.703  46.591  48.879  1.00  0.00     0.049 A 
ENDROOT
BRANCH   2   7
HETATM    7  N   UNL     1      25.168  44.605  50.881  1.00  0.00    -0.378 N 
HETATM    8  C   UNL     1      26.427  44.092  50.302  1.00  0.00     0.138 C 
HETATM    9  C   UNL     1      27.605  44.391  51.263  1.00  0.00     0.115 C 
HETATM   10  N   UNL     1      27.351  43.819  52.609  1.00  0.00    -0.278 NA
HETATM   11  C   UNL     1      26.070  44.317  53.180  1.00  0.00     0.115 C 
HETATM   12  C   UNL     1      24.889  44.041  52.219  1.00  0.00     0.138 C 
BRANCH  10  13
HETATM   13  C   UNL     1      28.399  43.886  53.561  1.00  0.00     0.044 A 
HETATM   14  C   UNL     1      29.436  42.913  53.562  1.00  0.00     0.089 A 
HETATM   15  C   UNL     1      30.453  42.964  54.528  1.00  0.00     0.038 A 
HETATM   16  C   UNL     1      30.462  43.968  55.495  1.00  0.00     0.003 A 
HETATM   17  C   UNL     1      29.463  44.931  55.503  1.00  0.00     0.002 A 
HETATM   18  C   UNL     1      28.446  44.891  54.545  1.00  0.00     0.026 A 
BRANCH  14  19
HETATM   19  O   UNL     1      29.385  41.965  52.563  1.00  0.00    -0.354 OA
HETATM   20  C   UNL     1      28.813  40.705  52.878  1.00  0.00     0.210 C 
ENDBRANCH  14  19
ENDBRANCH  10  13
ENDBRANCH   2   7
BRANCH   1  21
HETATM   21  C   UNL     1      24.701  47.431  50.011  1.00  0.00     0.254 C 
HETATM   22  N   UNL     1      25.331  48.038  48.940  1.00  0.00    -0.353 N 
HETATM   23  H   UNL     1      25.287  47.561  48.048  1.00  0.00     0.163 HD
HETATM   24  O   UNL     1      24.755  47.820  51.168  1.00  0.00    -0.268 OA
BRANCH  22  25
HETATM   25  C   UNL     1      26.111  49.270  48.986  1.00  0.00     0.080 C 
HETATM   26  C   UNL     1      27.619  49.028  48.984  1.00  0.00     0.032 C 
BRANCH  25  27
HETATM   27  C   UNL     1      25.641  50.337  47.984  1.00  0.00     0.020 C 
HETATM   28  C   UNL     1      24.142  50.445  47.765  1.00  0.00     0.007 C 
ENDBRANCH  25  27
ENDBRANCH  22  25
ENDBRANCH   1  21
BRANCH   5  29
HETATM   29  N   UNL     1      20.615  46.020  47.857  1.00  0.00    -0.309 N 
HETATM   30  C   UNL     1      19.683  46.931  48.328  1.00  0.00     0.325 C 
HETATM   31  N   UNL     1      18.878  47.352  47.284  1.00  0.00    -0.307 N 
HETATM   32  O   UNL     1      19.598  47.310  49.488  1.00  0.00    -0.247 OA
HETATM   33  H   UNL     1      19.294  47.287  46.364  1.00  0.00     0.170 HD
HETATM   34  H   UNL     1      20.347  45.527  47.018  1.00  0.00     0.170 HD
BRANCH  31  35
HETATM   35  C   UNL     1      17.732  48.176  47.363  1.00  0.00     0.053 A 
HETATM   36  C   UNL     1      17.886  49.569  47.232  1.00  0.00     0.037 A 
HETATM   37 BR   UNL     1      19.602  50.357  46.994  1.00  0.00    -0.049 Br
HETATM   38  C   UNL     1      16.780  50.421  47.288  1.00  0.00     0.021 A 
HETATM   39  C   UNL     1      15.504  49.890  47.462  1.00  0.00     0.002 A 
HETATM   40  C   UNL     1      15.338  48.512  47.578  1.00  0.00     0.002 A 
HETATM   41  C   UNL     1      16.445  47.659  47.529  1.00  0.00     0.031 A 
ENDBRANCH  31  35
ENDBRANCH   5  29
TORSDOF 8
ENDMDL
MODEL 2
REMARK VINA RESULT:      -9.2      0.932      1.611
REMARK  8 active torsions:
REMARK  status: ('A' for Active; 'I' for Inactive)
REMARK    1  A    between atoms: C_2  and  C_3 
REMARK    2  A    between atoms: C_3  and  N_4 
REMARK       I    between atoms: N_4  and  C_5 
REMARK    3  A    between atoms: C_5  and  C_6 
REMARK    4  A    between atoms: C_7  and  N_8 
REMARK    5  A    between atoms: N_11  and  C_12 
REMARK    6  A    between atoms: C_13  and  O_14 
REMARK    7  A    between atoms: C_24  and  N_25 
REMARK       I    between atoms: N_25  and  C_26 
REMARK       I    between atoms: C_26  and  N_27 
REMARK    8  A    between atoms: N_27  and  C_28 
ROOT
HETATM    1  C   UNL     1      24.021  46.150  49.767  1.00  0.00     0.060 A 
HETATM    2  C   UNL     1      24.252  44.841  50.240  1.00  0.00     0.046 A 
HETATM    3  C   UNL     1      23.343  43.858  49.805  1.00  0.00     0.032 A 
HETATM    4  C   UNL     1      22.234  44.160  48.999  1.00  0.00     0.032 A 
HETATM    5  C   UNL     1      21.985  45.469  48.608  1.00  0.00     0.037 A 
HETATM    6  C   UNL     1      22.890  46.459  48.982  1.00  0.00     0.049 A 
ENDROOT
BRANCH   2   7
HETATM    7  N   UNL     1      25.269  44.523  51.132  1.00  0.00    -0.378 N 
HETATM    8  C   UNL     1      26.512  43.913  50.617  1.00  0.00     0.138 C 
HETATM    9  C   UNL     1      27.688  44.234  51.574  1.00  0.00     0.115 C 
HETATM   10  N   UNL     1      27.388  43.777  52.955  1.00  0.00    -0.278 NA
HETATM   11  C   UNL     1      26.122  44.372  53.463  1.00  0.00     0.115 C 
HETATM   12  C   UNL     1      24.944  44.075  52.503  1.00  0.00     0.138 C 
BRANCH  10  13
HETATM   13  C   UNL     1      28.423  43.871  53.919  1.00  0.00     0.044 A 
HETATM   14  C   UNL     1      28.625  45.079  54.644  1.00  0.00     0.089 A 
HETATM   15  C   UNL     1      29.673  45.177  55.573  1.00  0.00     0.038 A 
HETATM   16  C   UNL     1      30.524  44.097  55.800  1.00  0.00     0.003 A 
HETATM   17  C   UNL     1      30.335  42.909  55.108  1.00  0.00     0.002 A 
HETATM   18  C   UNL     1      29.294  42.798  54.182  1.00  0.00     0.026 A 
BRANCH  14  19
HETATM   19  O   UNL     1      27.733  46.098  54.394  1.00  0.00    -0.354 OA
HETATM   20  C   UNL     1      27.953  47.341  55.042  1.00  0.00     0.210 C 
ENDBRANCH  14  19
ENDBRANCH  10  13
ENDBRANCH   2   7
BRANCH   1  21
HETATM   21  C   UNL     1      24.868  47.317  50.136  1.00  0.00     0.254 C 
HETATM   22  N   UNL     1      25.502  47.898  49.052  1.00  0.00    -0.353 N 
HETATM   23  H   UNL     1      25.457  47.403  48.171  1.00  0.00     0.163 HD
HETATM   24  O   UNL     1      24.924  47.730  51.284  1.00  0.00    -0.268 OA
BRANCH  22  25
HETATM   25  C   UNL     1      26.289  49.127  49.074  1.00  0.00     0.080 C 
HETATM   26  C   UNL     1      27.795  48.877  49.112  1.00  0.00     0.032 C 
BRANCH  25  27
HETATM   27  C   UNL     1      25.847  50.162  48.027  1.00  0.00     0.020 C 
HETATM   28  C   UNL     1      24.350  50.312  47.815  1.00  0.00     0.007 C 
ENDBRANCH  25  27
ENDBRANCH  22  25
ENDBRANCH   1  21
BRANCH   5  29
HETATM   29  N   UNL     1      20.824  45.875  47.925  1.00  0.00    -0.309 N 
HETATM   30  C   UNL     1      19.854  46.761  48.365  1.00  0.00     0.325 C 
HETATM   31  N   UNL     1      19.092  47.186  47.290  1.00  0.00    -0.307 N 
HETATM   32  O   UNL     1      19.705  47.119  49.525  1.00  0.00    -0.247 OA
HETATM   33  H   UNL     1      19.553  47.145  46.391  1.00  0.00     0.170 HD
HETATM   34  H   UNL     1      20.605  45.392  47.066  1.00  0.00     0.170 HD
BRANCH  31  35
HETATM   35  C   UNL     1      17.929  47.988  47.326  1.00  0.00     0.053 A 
HETATM   36  C   UNL     1      18.066  49.388  47.263  1.00  0.00     0.037 A 
HETATM   37 BR   UNL     1      19.779  50.212  47.172  1.00  0.00    -0.049 Br
HETATM   38  C   UNL     1      16.943  50.220  47.281  1.00  0.00     0.021 A 
HETATM   39  C   UNL     1      15.669  49.663  47.349  1.00  0.00     0.002 A 
HETATM   40  C   UNL     1      15.520  48.279  47.397  1.00  0.00     0.002 A 
HETATM   41  C   UNL     1      16.643  47.445  47.386  1.00  0.00     0.031 A 
ENDBRANCH  31  35
ENDBRANCH   5  29
TORSDOF 8
ENDMDL
MODEL 3
REMARK VINA RESULT:      -8.9      1.896      2.573
REMARK  8 active torsions:
REMARK  status: ('A' for Active; 'I' for Inactive)
REMARK    1  A    between atoms: C_2  and  C_3 
REMARK    2  A    between atoms: C_3  and  N_4 
REMARK       I    between atoms: N_4  and  C_5 
REMARK    3  A    between atoms: C_5  and  C_6 
REMARK    4  A    between atoms: C_7  and  N_8 
REMARK    5  A    between atoms: N_11  and  C_12 
REMARK    6  A    between atoms: C_13  and  O_14 
REMARK    7  A    between atoms: C_24  and  N_25 
REMARK       I    between atoms: N_25  and  C_26 
REMARK       I    between atoms: C_26  and  N_27 
REMARK    8  A    between atoms: N_27  and  C_28 
ROOT
HETATM    1  C   UNL     1      23.350  46.911  49.294  1.00  0.00     0.060 A 
HETATM    2  C   UNL     1      23.228  45.505  49.268  1.00  0.00     0.046 A 
HETATM    3  C   UNL     1      22.047  44.998  48.694  1.00  0.00     0.032 A 
HETATM    4  C   UNL     1      21.017  45.831  48.227  1.00  0.00     0.032 A 
HETATM    5  C   UNL     1      21.128  47.211  48.332  1.00  0.00     0.037 A 
HETATM    6  C   UNL     1      22.304  47.747  48.852  1.00  0.00     0.049 A 
ENDROOT
BRANCH   2   7
HETATM    7  N   UNL     1      24.171  44.650  49.825  1.00  0.00    -0.378 N 
HETATM    8  C   UNL     1      25.320  44.215  49.005  1.00  0.00     0.138 C 
HETATM    9  C   UNL     1      26.513  43.852  49.925  1.00  0.00     0.115 C 
HETATM   10  N   UNL     1      26.125  42.814  50.913  1.00  0.00    -0.278 NA
HETATM   11  C   UNL     1      24.951  43.243  51.722  1.00  0.00     0.115 C 
HETATM   12  C   UNL     1      23.760  43.628  50.811  1.00  0.00     0.138 C 
BRANCH  10  13
HETATM   13  C   UNL     1      27.145  42.273  51.735  1.00  0.00     0.044 A 
HETATM   14  C   UNL     1      27.878  41.128  51.315  1.00  0.00     0.089 A 
HETATM   15  C   UNL     1      28.864  40.577  52.148  1.00  0.00     0.038 A 
HETATM   16  C   UNL     1      29.140  41.142  53.392  1.00  0.00     0.003 A 
HETATM   17  C   UNL     1      28.440  42.264  53.813  1.00  0.00     0.002 A 
HETATM   18  C   UNL     1      27.457  42.824  52.991  1.00  0.00     0.026 A 
BRANCH  14  19
HETATM   19  O   UNL     1      27.577  40.636  50.064  1.00  0.00    -0.354 OA
HETATM   20  C   UNL     1      28.142  39.387  49.693  1.00  0.00     0.210 C 
ENDBRANCH  14  19
ENDBRANCH  10  13
ENDBRANCH   2   7
BRANCH   1  21
HETATM   21  C   UNL     1      24.521  47.623  49.876  1.00  0.00     0.254 C 
HETATM   22  N   UNL     1      25.463  47.990  48.933  1.00  0.00    -0.353 N 
HETATM   23  H   UNL     1      25.349  47.621  47.997  1.00  0.00     0.163 HD
HETATM   24  O   UNL     1      24.578  47.892  51.066  1.00  0.00    -0.268 OA
BRANCH  22  25
HETATM   25  C   UNL     1      26.647  48.809  49.174  1.00  0.00     0.080 C 
HETATM   26  C   UNL     1      27.952  48.018  49.098  1.00  0.00     0.032 C 
BRANCH  25  27
HETATM   27  C   UNL     1      26.660  50.125  48.380  1.00  0.00     0.020 C 
HETATM   28  C   UNL     1      25.347  50.541  47.740  1.00  0.00     0.007 C 
ENDBRANCH  25  27
ENDBRANCH  22  25
ENDBRANCH   1  21
BRANCH   5  29
HETATM   29  N   UNL     1      20.087  48.106  48.022  1.00  0.00    -0.309 N 
HETATM   30  C   UNL     1      19.396  48.930  48.896  1.00  0.00     0.325 C 
HETATM   31  N   UNL     1      18.731  49.911  48.181  1.00  0.00    -0.307 N 
HETATM   32  O   UNL     1      19.387  48.810  50.113  1.00  0.00    -0.247 OA
HETATM   33  H   UNL     1      19.133  50.136  47.281  1.00  0.00     0.170 HD
HETATM   34  H   UNL     1      19.720  48.074  47.083  1.00  0.00     0.170 HD
BRANCH  31  35
HETATM   35  C   UNL     1      17.817  50.866  48.681  1.00  0.00     0.053 A 
HETATM   36  C   UNL     1      16.437  50.613  48.562  1.00  0.00     0.037 A 
HETATM   37 BR   UNL     1      15.788  49.040  47.710  1.00  0.00    -0.049 Br
HETATM   38  C   UNL     1      15.496  51.522  49.055  1.00  0.00     0.021 A 
HETATM   39  C   UNL     1      15.923  52.688  49.684  1.00  0.00     0.002 A 
HETATM   40  C   UNL     1      17.286  52.942  49.820  1.00  0.00     0.002 A 
HETATM   41  C   UNL     1      18.228  52.037  49.322  1.00  0.00     0.031 A 
ENDBRANCH  31  35
ENDBRANCH   5  29
TORSDOF 8
ENDMDL
MODEL 4
REMARK VINA RESULT:      -8.7      3.276      5.250
REMARK  8 active torsions:
REMARK  status: ('A' for Active; 'I' for Inactive)
REMARK    1  A    between atoms: C_2  and  C_3 
REMARK    2  A    between atoms: C_3  and  N_4 
REMARK       I    between atoms: N_4  and  C_5 
REMARK    3  A    between atoms: C_5  and  C_6 
REMARK    4  A    between atoms: C_7  and  N_8 
REMARK    5  A    between atoms: N_11  and  C_12 
REMARK    6  A    between atoms: C_13  and  O_14 
REMARK    7  A    between atoms: C_24  and  N_25 
REMARK       I    between atoms: N_25  and  C_26 
REMARK       I    between atoms: C_26  and  N_27 
REMARK    8  A    between atoms: N_27  and  C_28 
ROOT
HETATM    1  C   UNL     1      25.578  45.398  50.044  1.00  0.00     0.060 A 
HETATM    2  C   UNL     1      24.969  44.276  49.442  1.00  0.00     0.046 A 
HETATM    3  C   UNL     1      23.713  44.500  48.849  1.00  0.00     0.032 A 
HETATM    4  C   UNL     1      23.065  45.744  48.899  1.00  0.00     0.032 A 
HETATM    5  C   UNL     1      23.650  46.815  49.563  1.00  0.00     0.037 A 
HETATM    6  C   UNL     1      24.915  46.641  50.121  1.00  0.00     0.049 A 
ENDROOT
BRANCH   2   7
HETATM    7  N   UNL     1      25.524  43.002  49.473  1.00  0.00    -0.378 N 
HETATM    8  C   UNL     1      25.855  42.331  48.200  1.00  0.00     0.138 C 
HETATM    9  C   UNL     1      26.990  41.302  48.429  1.00  0.00     0.115 C 
HETATM   10  N   UNL     1      26.615  40.323  49.480  1.00  0.00    -0.278 NA
HETATM   11  C   UNL     1      26.257  41.002  50.756  1.00  0.00     0.115 C 
HETATM   12  C   UNL     1      25.137  42.047  50.533  1.00  0.00     0.138 C 
BRANCH  10  13
HETATM   13  C   UNL     1      27.490  39.232  49.707  1.00  0.00     0.044 A 
HETATM   14  C   UNL     1      27.202  37.950  49.162  1.00  0.00     0.089 A 
HETATM   15  C   UNL     1      28.055  36.865  49.418  1.00  0.00     0.038 A 
HETATM   16  C   UNL     1      29.195  37.028  50.204  1.00  0.00     0.003 A 
HETATM   17  C   UNL     1      29.496  38.274  50.735  1.00  0.00     0.002 A 
HETATM   18  C   UNL     1      28.655  39.363  50.486  1.00  0.00     0.026 A 
BRANCH  14  19
HETATM   19  O   UNL     1      26.077  37.862  48.371  1.00  0.00    -0.354 OA
HETATM   20  C   UNL     1      25.775  36.601  47.792  1.00  0.00     0.210 C 
ENDBRANCH  14  19
ENDBRANCH  10  13
ENDBRANCH   2   7
BRANCH   1  21
HETATM   21  C   UNL     1      26.897  45.346  50.733  1.00  0.00     0.254 C 
HETATM   22  N   UNL     1      26.807  44.980  52.064  1.00  0.00    -0.353 N 
HETATM   23  H   UNL     1      25.880  44.936  52.469  1.00  0.00     0.163 HD
HETATM   24  O   UNL     1      27.940  45.551  50.132  1.00  0.00    -0.268 OA
BRANCH  22  25
HETATM   25  C   UNL     1      27.927  44.717  52.961  1.00  0.00     0.080 C 
HETATM   26  C   UNL     1      27.738  45.318  54.352  1.00  0.00     0.032 C 
BRANCH  25  27
HETATM   27  C   UNL     1      28.383  43.249  52.964  1.00  0.00     0.020 C 
HETATM   28  C   UNL     1      29.882  43.007  52.951  1.00  0.00     0.007 C 
ENDBRANCH  25  27
ENDBRANCH  22  25
ENDBRANCH   1  21
BRANCH   5  29
HETATM   29  N   UNL     1      23.007  48.047  49.783  1.00  0.00    -0.309 N 
HETATM   30  C   UNL     1      21.887  48.540  49.134  1.00  0.00     0.325 C 
HETATM   31  N   UNL     1      21.345  49.580  49.869  1.00  0.00    -0.307 N 
HETATM   32  O   UNL     1      21.442  48.110  48.078  1.00  0.00    -0.247 OA
HETATM   33  H   UNL     1      21.547  49.559  50.860  1.00  0.00     0.170 HD
HETATM   34  H   UNL     1      23.467  48.699  50.401  1.00  0.00     0.170 HD
BRANCH  31  35
HETATM   35  C   UNL     1      20.280  50.431  49.496  1.00  0.00     0.053 A 
HETATM   36  C   UNL     1      18.987  50.153  49.978  1.00  0.00     0.037 A 
HETATM   37 BR   UNL     1      18.645  48.641  51.082  1.00  0.00    -0.049 Br
HETATM   38  C   UNL     1      17.906  50.975  49.648  1.00  0.00     0.021 A 
HETATM   39  C   UNL     1      18.107  52.093  48.841  1.00  0.00     0.002 A 
HETATM   40  C   UNL     1      19.384  52.385  48.369  1.00  0.00     0.002 A 
HETATM   41  C   UNL     1      20.466  51.560  48.694  1.00  0.00     0.031 A 
ENDBRANCH  31  35
ENDBRANCH   5  29
TORSDOF 8
ENDMDL
MODEL 5
REMARK VINA RESULT:      -8.6      4.568      6.018
REMARK  8 active torsions:
REMARK  status: ('A' for Active; 'I' for Inactive)
REMARK    1  A    between atoms: C_2  and  C_3 
REMARK    2  A    between atoms: C_3  and  N_4 
REMARK       I    between atoms: N_4  and  C_5 
REMARK    3  A    between atoms: C_5  and  C_6 
REMARK    4  A    between atoms: C_7  and  N_8 
REMARK    5  A    between atoms: N_11  and  C_12 
REMARK    6  A    between atoms: C_13  and  O_14 
REMARK    7  A    between atoms: C_24  and  N_25 
REMARK       I    between atoms: N_25  and  C_26 
REMARK       I    between atoms: C_26  and  N_27 
REMARK    8  A    between atoms: N_27  and  C_28 
ROOT
HETATM    1  C   UNL     1      26.515  42.826  49.947  1.00  0.00     0.060 A 
HETATM    2  C   UNL     1      27.133  42.077  50.972  1.00  0.00     0.046 A 
HETATM    3  C   UNL     1      27.000  40.679  50.880  1.00  0.00     0.032 A 
HETATM    4  C   UNL     1      26.250  40.057  49.870  1.00  0.00     0.032 A 
HETATM    5  C   UNL     1      25.588  40.818  48.916  1.00  0.00     0.037 A 
HETATM    6  C   UNL     1      25.737  42.203  48.949  1.00  0.00     0.049 A 
ENDROOT
BRANCH   2   7
HETATM    7  N   UNL     1      27.785  42.660  52.052  1.00  0.00    -0.378 N 
HETATM    8  C   UNL     1      26.998  43.430  53.036  1.00  0.00     0.138 C 
HETATM    9  C   UNL     1      27.723  43.424  54.406  1.00  0.00     0.115 C 
HETATM   10  N   UNL     1      29.104  43.953  54.278  1.00  0.00    -0.278 NA
HETATM   11  C   UNL     1      29.888  43.193  53.267  1.00  0.00     0.115 C 
HETATM   12  C   UNL     1      29.163  43.175  51.900  1.00  0.00     0.138 C 
BRANCH  10  13
HETATM   13  C   UNL     1      29.849  44.144  55.469  1.00  0.00     0.044 A 
HETATM   14  C   UNL     1      29.849  45.406  56.125  1.00  0.00     0.089 A 
HETATM   15  C   UNL     1      30.616  45.599  57.285  1.00  0.00     0.038 A 
HETATM   16  C   UNL     1      31.382  44.559  57.810  1.00  0.00     0.003 A 
HETATM   17  C   UNL     1      31.386  43.320  57.188  1.00  0.00     0.002 A 
HETATM   18  C   UNL     1      30.625  43.115  56.033  1.00  0.00     0.026 A 
BRANCH  14  19
HETATM   19  O   UNL     1      29.050  46.382  55.572  1.00  0.00    -0.354 OA
HETATM   20  C   UNL     1      27.879  46.756  56.282  1.00  0.00     0.210 C 
ENDBRANCH  14  19
ENDBRANCH  10  13
ENDBRANCH   2   7
BRANCH   1  21
HETATM   21  C   UNL     1      26.538  44.313  49.890  1.00  0.00     0.254 C 
HETATM   22  N   UNL     1      25.361  44.897  50.325  1.00  0.00    -0.353 N 
HETATM   23  H   UNL     1      24.573  44.282  50.487  1.00  0.00     0.163 HD
HETATM   24  O   UNL     1      27.537  44.925  49.545  1.00  0.00    -0.268 OA
BRANCH  22  25
HETATM   25  C   UNL     1      25.127  46.325  50.509  1.00  0.00     0.080 C 
HETATM   26  C   UNL     1      23.990  46.865  49.642  1.00  0.00     0.032 C 
BRANCH  25  27
HETATM   27  C   UNL     1      25.055  46.754  51.983  1.00  0.00     0.020 C 
HETATM   28  C   UNL     1      26.378  47.066  52.661  1.00  0.00     0.007 C 
ENDBRANCH  25  27
ENDBRANCH  22  25
ENDBRANCH   1  21
BRANCH   5  29
HETATM   29  N   UNL     1      24.704  40.283  47.962  1.00  0.00    -0.309 N 
HETATM   30  C   UNL     1      23.416  40.707  47.675  1.00  0.00     0.325 C 
HETATM   31  N   UNL     1      23.021  40.195  46.450  1.00  0.00    -0.307 N 
HETATM   32  O   UNL     1      22.741  41.432  48.392  1.00  0.00    -0.247 OA
HETATM   33  H   UNL     1      23.774  39.975  45.812  1.00  0.00     0.170 HD
HETATM   34  H   UNL     1      24.985  39.428  47.506  1.00  0.00     0.170 HD
BRANCH  31  35
HETATM   35  C   UNL     1      21.742  40.284  45.856  1.00  0.00     0.053 A 
HETATM   36  C   UNL     1      21.429  41.418  45.082  1.00  0.00     0.037 A 
HETATM   37 BR   UNL     1      22.675  42.839  44.859  1.00  0.00    -0.049 Br
HETATM   38  C   UNL     1      20.183  41.542  44.463  1.00  0.00     0.021 A 
HETATM   39  C   UNL     1      19.238  40.528  44.598  1.00  0.00     0.002 A 
HETATM   40  C   UNL     1      19.541  39.395  45.350  1.00  0.00     0.002 A 
HETATM   41  C   UNL     1      20.786  39.273  45.976  1.00  0.00     0.031 A 
ENDBRANCH  31  35
ENDBRANCH   5  29
TORSDOF 8
ENDMDL
MODEL 6
REMARK VINA RESULT:      -8.5      3.731     10.531
REMARK  8 active torsions:
REMARK  status: ('A' for Active; 'I' for Inactive)
REMARK    1  A    between atoms: C_2  and  C_3 
REMARK    2  A    between atoms: C_3  and  N_4 
REMARK       I    between atoms: N_4  and  C_5 
REMARK    3  A    between atoms: C_5  and  C_6 
REMARK    4  A    between atoms: C_7  and  N_8 
REMARK    5  A    between atoms: N_11  and  C_12 
REMARK    6  A    between atoms: C_13  and  O_14 
REMARK    7  A    between atoms: C_24  and  N_25 
REMARK       I    between atoms: N_25  and  C_26 
REMARK       I    between atoms: C_26  and  N_27 
REMARK    8  A    between atoms: N_27  and  C_28 
ROOT
HETATM    1  C   UNL     1      24.577  46.493  50.592  1.00  0.00     0.060 A 
HETATM    2  C   UNL     1      24.084  45.191  50.360  1.00  0.00     0.046 A 
HETATM    3  C   UNL     1      24.524  44.197  51.254  1.00  0.00     0.032 A 
HETATM    4  C   UNL     1      25.446  44.459  52.280  1.00  0.00     0.032 A 
HETATM    5  C   UNL     1      25.975  45.733  52.441  1.00  0.00     0.037 A 
HETATM    6  C   UNL     1      25.525  46.751  51.604  1.00  0.00     0.049 A 
ENDROOT
BRANCH   2   7
HETATM    7  N   UNL     1      23.263  44.869  49.286  1.00  0.00    -0.378 N 
HETATM    8  C   UNL     1      21.854  44.503  49.543  1.00  0.00     0.138 C 
HETATM    9  C   UNL     1      20.996  44.816  48.291  1.00  0.00     0.115 C 
HETATM   10  N   UNL     1      21.531  44.121  47.093  1.00  0.00    -0.278 NA
HETATM   11  C   UNL     1      22.958  44.470  46.851  1.00  0.00     0.115 C 
HETATM   12  C   UNL     1      23.820  44.180  48.103  1.00  0.00     0.138 C 
BRANCH  10  13
HETATM   13  C   UNL     1      20.774  44.193  45.897  1.00  0.00     0.044 A 
HETATM   14  C   UNL     1      20.400  43.006  45.207  1.00  0.00     0.089 A 
HETATM   15  C   UNL     1      19.680  43.085  44.005  1.00  0.00     0.038 A 
HETATM   16  C   UNL     1      19.319  44.322  43.474  1.00  0.00     0.003 A 
HETATM   17  C   UNL     1      19.667  45.489  44.139  1.00  0.00     0.002 A 
HETATM   18  C   UNL     1      20.383  45.423  45.338  1.00  0.00     0.026 A 
BRANCH  14  19
HETATM   19  O   UNL     1      20.763  41.816  45.799  1.00  0.00    -0.354 OA
HETATM   20  C   UNL     1      20.143  40.629  45.328  1.00  0.00     0.210 C 
ENDBRANCH  14  19
ENDBRANCH  10  13
ENDBRANCH   2   7
BRANCH   1  21
HETATM   21  C   UNL     1      24.232  47.665  49.740  1.00  0.00     0.254 C 
HETATM   22  N   UNL     1      22.892  48.003  49.789  1.00  0.00    -0.353 N 
HETATM   23  H   UNL     1      22.269  47.356  50.256  1.00  0.00     0.163 HD
HETATM   24  O   UNL     1      25.088  48.279  49.121  1.00  0.00    -0.268 OA
BRANCH  22  25
HETATM   25  C   UNL     1      22.278  49.174  49.172  1.00  0.00     0.080 C 
HETATM   26  C   UNL     1      23.124  50.439  49.307  1.00  0.00     0.032 C 
BRANCH  25  27
HETATM   27  C   UNL     1      21.749  48.917  47.751  1.00  0.00     0.020 C 
HETATM   28  C   UNL     1      20.327  49.371  47.468  1.00  0.00     0.007 C 
ENDBRANCH  25  27
ENDBRANCH  22  25
ENDBRANCH   1  21
BRANCH   5  29
HETATM   29  N   UNL     1      27.006  46.044  53.347  1.00  0.00    -0.309 N 
HETATM   30  C   UNL     1      27.515  45.239  54.353  1.00  0.00     0.325 C 
HETATM   31  N   UNL     1      28.740  45.733  54.767  1.00  0.00    -0.307 N 
HETATM   32  O   UNL     1      26.967  44.239  54.795  1.00  0.00    -0.247 OA
HETATM   33  H   UNL     1      29.239  46.282  54.079  1.00  0.00     0.170 HD
HETATM   34  H   UNL     1      27.344  46.995  53.345  1.00  0.00     0.170 HD
BRANCH  31  35
HETATM   35  C   UNL     1      29.525  45.282  55.852  1.00  0.00     0.053 A 
HETATM   36  C   UNL     1      30.328  44.139  55.681  1.00  0.00     0.037 A 
HETATM   37 BR   UNL     1      30.344  43.176  54.039  1.00  0.00    -0.049 Br
HETATM   38  C   UNL     1      31.132  43.664  56.721  1.00  0.00     0.021 A 
HETATM   39  C   UNL     1      31.153  44.335  57.941  1.00  0.00     0.002 A 
HETATM   40  C   UNL     1      30.373  45.475  58.118  1.00  0.00     0.002 A 
HETATM   41  C   UNL     1      29.563  45.947  57.080  1.00  0.00     0.031 A 
ENDBRANCH  31  35
ENDBRANCH   5  29
TORSDOF 8
ENDMDL
MODEL 7
REMARK VINA RESULT:      -8.4      3.172     11.184
REMARK  8 active torsions:
REMARK  status: ('A' for Active; 'I' for Inactive)
REMARK    1  A    between atoms: C_2  and  C_3 
REMARK    2  A    between atoms: C_3  and  N_4 
REMARK       I    between atoms: N_4  and  C_5 
REMARK    3  A    between atoms: C_5  and  C_6 
REMARK    4  A    between atoms: C_7  and  N_8 
REMARK    5  A    between atoms: N_11  and  C_12 
REMARK    6  A    between atoms: C_13  and  O_14 
REMARK    7  A    between atoms: C_24  and  N_25 
REMARK       I    between atoms: N_25  and  C_26 
REMARK       I    between atoms: C_26  and  N_27 
REMARK    8  A    between atoms: N_27  and  C_28 
ROOT
HETATM    1  C   UNL     1      22.306  46.731  48.762  1.00  0.00     0.060 A 
HETATM    2  C   UNL     1      21.365  45.738  48.414  1.00  0.00     0.046 A 
HETATM    3  C   UNL     1      21.746  44.409  48.676  1.00  0.00     0.032 A 
HETATM    4  C   UNL     1      23.007  44.073  49.195  1.00  0.00     0.032 A 
HETATM    5  C   UNL     1      23.945  45.064  49.459  1.00  0.00     0.037 A 
HETATM    6  C   UNL     1      23.583  46.393  49.255  1.00  0.00     0.049 A 
ENDROOT
BRANCH   2   7
HETATM    7  N   UNL     1      20.155  46.021  47.792  1.00  0.00    -0.378 N 
HETATM    8  C   UNL     1      18.991  45.151  48.055  1.00  0.00     0.138 C 
HETATM    9  C   UNL     1      17.681  45.949  47.835  1.00  0.00     0.115 C 
HETATM   10  N   UNL     1      17.633  46.524  46.467  1.00  0.00    -0.278 NA
HETATM   11  C   UNL     1      18.821  47.379  46.193  1.00  0.00     0.115 C 
HETATM   12  C   UNL     1      20.135  46.598  46.430  1.00  0.00     0.138 C 
BRANCH  10  13
HETATM   13  C   UNL     1      16.435  47.164  46.062  1.00  0.00     0.044 A 
HETATM   14  C   UNL     1      15.842  46.857  44.806  1.00  0.00     0.089 A 
HETATM   15  C   UNL     1      14.674  47.518  44.396  1.00  0.00     0.038 A 
HETATM   16  C   UNL     1      14.079  48.479  45.211  1.00  0.00     0.003 A 
HETATM   17  C   UNL     1      14.639  48.783  46.444  1.00  0.00     0.002 A 
HETATM   18  C   UNL     1      15.801  48.130  46.864  1.00  0.00     0.026 A 
BRANCH  14  19
HETATM   19  O   UNL     1      16.463  45.878  44.061  1.00  0.00    -0.354 OA
HETATM   20  C   UNL     1      15.749  44.674  43.826  1.00  0.00     0.210 C 
ENDBRANCH  14  19
ENDBRANCH  10  13
ENDBRANCH   2   7
BRANCH   1  21
HETATM   21  C   UNL     1      22.081  48.186  48.542  1.00  0.00     0.254 C 
HETATM   22  N   UNL     1      21.220  48.754  49.464  1.00  0.00    -0.353 N 
HETATM   23  H   UNL     1      20.722  48.123  50.080  1.00  0.00     0.163 HD
HETATM   24  O   UNL     1      22.667  48.798  47.662  1.00  0.00    -0.268 OA
BRANCH  22  25
HETATM   25  C   UNL     1      20.908  50.174  49.589  1.00  0.00     0.080 C 
HETATM   26  C   UNL     1      22.119  51.024  49.970  1.00  0.00     0.032 C 
BRANCH  25  27
HETATM   27  C   UNL     1      20.089  50.732  48.415  1.00  0.00     0.020 C 
HETATM   28  C   UNL     1      19.570  52.151  48.568  1.00  0.00     0.007 C 
ENDBRANCH  25  27
ENDBRANCH  22  25
ENDBRANCH   1  21
BRANCH   5  29
HETATM   29  N   UNL     1      25.273  44.803  49.841  1.00  0.00    -0.309 N 
HETATM   30  C   UNL     1      25.720  44.326  51.063  1.00  0.00     0.325 C 
HETATM   31  N   UNL     1      27.013  43.850  50.930  1.00  0.00    -0.307 N 
HETATM   32  O   UNL     1      25.064  44.319  52.095  1.00  0.00    -0.247 OA
HETATM   33  H   UNL     1      27.269  43.548  49.999  1.00  0.00     0.170 HD
HETATM   34  H   UNL     1      25.999  45.094  49.203  1.00  0.00     0.170 HD
BRANCH  31  35
HETATM   35  C   UNL     1      27.871  43.399  51.959  1.00  0.00     0.053 A 
HETATM   36  C   UNL     1      28.345  42.074  51.918  1.00  0.00     0.037 A 
HETATM   37 BR   UNL     1      27.820  40.878  50.534  1.00  0.00    -0.049 Br
HETATM   38  C   UNL     1      29.207  41.590  52.905  1.00  0.00     0.021 A 
HETATM   39  C   UNL     1      29.618  42.428  53.939  1.00  0.00     0.002 A 
HETATM   40  C   UNL     1      29.167  43.745  53.982  1.00  0.00     0.002 A 
HETATM   41  C   UNL     1      28.299  44.229  52.998  1.00  0.00     0.031 A 
ENDBRANCH  31  35
ENDBRANCH   5  29
TORSDOF 8
ENDMDL
MODEL 8
REMARK VINA RESULT:      -8.4      1.985      3.559
REMARK  8 active torsions:
REMARK  status: ('A' for Active; 'I' for Inactive)
REMARK    1  A    between atoms: C_2  and  C_3 
REMARK    2  A    between atoms: C_3  and  N_4 
REMARK       I    between atoms: N_4  and  C_5 
REMARK    3  A    between atoms: C_5  and  C_6 
REMARK    4  A    between atoms: C_7  and  N_8 
REMARK    5  A    between atoms: N_11  and  C_12 
REMARK    6  A    between atoms: C_13  and  O_14 
REMARK    7  A    between atoms: C_24  and  N_25 
REMARK       I    between atoms: N_25  and  C_26 
REMARK       I    between atoms: C_26  and  N_27 
REMARK    8  A    between atoms: N_27  and  C_28 
ROOT
HETATM    1  C   UNL     1      22.891  45.731  49.225  1.00  0.00     0.060 A 
HETATM    2  C   UNL     1      23.974  46.352  49.884  1.00  0.00     0.046 A 
HETATM    3  C   UNL     1      24.036  47.754  49.782  1.00  0.00     0.032 A 
HETATM    4  C   UNL     1      23.118  48.497  49.022  1.00  0.00     0.032 A 
HETATM    5  C   UNL     1      22.105  47.856  48.320  1.00  0.00     0.037 A 
HETATM    6  C   UNL     1      21.986  46.473  48.438  1.00  0.00     0.049 A 
ENDROOT
BRANCH   2   7
HETATM    7  N   UNL     1      24.968  45.643  50.548  1.00  0.00    -0.378 N 
HETATM    8  C   UNL     1      26.052  45.019  49.763  1.00  0.00     0.138 C 
HETATM    9  C   UNL     1      27.318  44.872  50.644  1.00  0.00     0.115 C 
HETATM   10  N   UNL     1      27.021  44.097  51.875  1.00  0.00    -0.278 NA
HETATM   11  C   UNL     1      25.911  44.712  52.652  1.00  0.00     0.115 C 
HETATM   12  C   UNL     1      24.647  44.883  51.775  1.00  0.00     0.138 C 
BRANCH  10  13
HETATM   13  C   UNL     1      28.109  43.755  52.716  1.00  0.00     0.044 A 
HETATM   14  C   UNL     1      28.921  42.624  52.422  1.00  0.00     0.089 A 
HETATM   15  C   UNL     1      29.976  42.270  53.277  1.00  0.00     0.038 A 
HETATM   16  C   UNL     1      30.245  43.021  54.421  1.00  0.00     0.003 A 
HETATM   17  C   UNL     1      29.469  44.132  54.718  1.00  0.00     0.002 A 
HETATM   18  C   UNL     1      28.416  44.495  53.873  1.00  0.00     0.026 A 
BRANCH  14  19
HETATM   19  O   UNL     1      28.621  41.942  51.263  1.00  0.00    -0.354 OA
HETATM   20  C   UNL     1      28.367  40.549  51.364  1.00  0.00     0.210 C 
ENDBRANCH  14  19
ENDBRANCH  10  13
ENDBRANCH   2   7
BRANCH   1  21
HETATM   21  C   UNL     1      22.675  44.258  49.212  1.00  0.00     0.254 C 
HETATM   22  N   UNL     1      23.281  43.624  48.142  1.00  0.00    -0.353 N 
HETATM   23  H   UNL     1      23.667  44.213  47.415  1.00  0.00     0.163 HD
HETATM   24  O   UNL     1      22.068  43.693  50.108  1.00  0.00    -0.268 OA
BRANCH  22  25
HETATM   25  C   UNL     1      23.359  42.183  47.928  1.00  0.00     0.080 C 
HETATM   26  C   UNL     1      23.514  41.800  46.458  1.00  0.00     0.032 C 
BRANCH  25  27
HETATM   27  C   UNL     1      24.340  41.470  48.873  1.00  0.00     0.020 C 
HETATM   28  C   UNL     1      25.818  41.706  48.616  1.00  0.00     0.007 C 
ENDBRANCH  25  27
ENDBRANCH  22  25
ENDBRANCH   1  21
BRANCH   5  29
HETATM   29  N   UNL     1      21.237  48.509  47.426  1.00  0.00    -0.309 N 
HETATM   30  C   UNL     1      19.910  48.849  47.636  1.00  0.00     0.325 C 
HETATM   31  N   UNL     1      19.519  49.791  46.701  1.00  0.00    -0.307 N 
HETATM   32  O   UNL     1      19.201  48.391  48.521  1.00  0.00    -0.247 OA
HETATM   33  H   UNL     1      20.267  50.356  46.319  1.00  0.00     0.170 HD
HETATM   34  H   UNL     1      21.573  48.652  46.485  1.00  0.00     0.170 HD
BRANCH  31  35
HETATM   35  C   UNL     1      18.219  50.303  46.490  1.00  0.00     0.053 A 
HETATM   36  C   UNL     1      17.826  51.466  47.178  1.00  0.00     0.037 A 
HETATM   37 BR   UNL     1      18.993  52.331  48.408  1.00  0.00    -0.049 Br
HETATM   38  C   UNL     1      16.555  52.017  46.990  1.00  0.00     0.021 A 
HETATM   39  C   UNL     1      15.666  51.418  46.102  1.00  0.00     0.002 A 
HETATM   40  C   UNL     1      16.048  50.275  45.404  1.00  0.00     0.002 A 
HETATM   41  C   UNL     1      17.317  49.719  45.597  1.00  0.00     0.031 A 
ENDBRANCH  31  35
ENDBRANCH   5  29
TORSDOF 8
ENDMDL
MODEL 9
REMARK VINA RESULT:      -8.3      5.095      7.762
REMARK  8 active torsions:
REMARK  status: ('A' for Active; 'I' for Inactive)
REMARK    1  A    between atoms: C_2  and  C_3 
REMARK    2  A    between atoms: C_3  and  N_4 
REMARK       I    between atoms: N_4  and  C_5 
REMARK    3  A    between atoms: C_5  and  C_6 
REMARK    4  A    between atoms: C_7  and  N_8 
REMARK    5  A    between atoms: N_11  and  C_12 
REMARK    6  A    between atoms: C_13  and  O_14 
REMARK    7  A    between atoms: C_24  and  N_25 
REMARK       I    between atoms: N_25  and  C_26 
REMARK       I    between atoms: C_26  and  N_27 
REMARK    8  A    between atoms: N_27  and  C_28 
ROOT
HETATM    1  C   UNL     1      26.485  42.803  50.093  1.00  0.00     0.060 A 
HETATM    2  C   UNL     1      27.109  42.063  51.121  1.00  0.00     0.046 A 
HETATM    3  C   UNL     1      26.945  40.666  51.062  1.00  0.00     0.032 A 
HETATM    4  C   UNL     1      26.160  40.039  50.081  1.00  0.00     0.032 A 
HETATM    5  C   UNL     1      25.494  40.795  49.125  1.00  0.00     0.037 A 
HETATM    6  C   UNL     1      25.673  42.176  49.126  1.00  0.00     0.049 A 
ENDROOT
BRANCH   2   7
HETATM    7  N   UNL     1      27.796  42.654  52.174  1.00  0.00    -0.378 N 
HETATM    8  C   UNL     1      27.059  43.519  53.118  1.00  0.00     0.138 C 
HETATM    9  C   UNL     1      27.782  43.532  54.489  1.00  0.00     0.115 C 
HETATM   10  N   UNL     1      29.194  43.966  54.341  1.00  0.00    -0.278 NA
HETATM   11  C   UNL     1      29.928  43.109  53.369  1.00  0.00     0.115 C 
HETATM   12  C   UNL     1      29.204  43.073  52.002  1.00  0.00     0.138 C 
BRANCH  10  13
HETATM   13  C   UNL     1      29.949  44.165  55.523  1.00  0.00     0.044 A 
HETATM   14  C   UNL     1      29.950  45.431  56.173  1.00  0.00     0.089 A 
HETATM   15  C   UNL     1      30.726  45.633  57.325  1.00  0.00     0.038 A 
HETATM   16  C   UNL     1      31.502  44.599  57.849  1.00  0.00     0.003 A 
HETATM   17  C   UNL     1      31.504  43.356  57.233  1.00  0.00     0.002 A 
HETATM   18  C   UNL     1      30.734  43.142  56.086  1.00  0.00     0.026 A 
BRANCH  14  19
HETATM   19  O   UNL     1      29.142  46.401  55.622  1.00  0.00    -0.354 OA
HETATM   20  C   UNL     1      27.957  46.748  56.322  1.00  0.00     0.210 C 
ENDBRANCH  14  19
ENDBRANCH  10  13
ENDBRANCH   2   7
BRANCH   1  21
HETATM   21  C   UNL     1      26.537  44.288  50.004  1.00  0.00     0.254 C 
HETATM   22  N   UNL     1      25.377  44.905  50.434  1.00  0.00    -0.353 N 
HETATM   23  H   UNL     1      24.577  44.310  50.615  1.00  0.00     0.163 HD
HETATM   24  O   UNL     1      27.547  44.871  49.639  1.00  0.00    -0.268 OA
BRANCH  22  25
HETATM   25  C   UNL     1      25.173  46.341  50.588  1.00  0.00     0.080 C 
HETATM   26  C   UNL     1      24.064  46.891  49.693  1.00  0.00     0.032 C 
BRANCH  25  27
HETATM   27  C   UNL     1      25.087  46.799  52.053  1.00  0.00     0.020 C 
HETATM   28  C   UNL     1      26.402  47.130  52.736  1.00  0.00     0.007 C 
ENDBRANCH  25  27
ENDBRANCH  22  25
ENDBRANCH   1  21
BRANCH   5  29
HETATM   29  N   UNL     1      24.578  40.258  48.201  1.00  0.00    -0.309 N 
HETATM   30  C   UNL     1      24.861  39.498  47.078  1.00  0.00     0.325 C 
HETATM   31  N   UNL     1      23.712  38.854  46.652  1.00  0.00    -0.307 N 
HETATM   32  O   UNL     1      25.962  39.405  46.554  1.00  0.00    -0.247 OA
HETATM   33  H   UNL     1      23.016  38.693  47.368  1.00  0.00     0.170 HD
HETATM   34  H   UNL     1      23.614  40.543  48.295  1.00  0.00     0.170 HD
BRANCH  31  35
HETATM   35  C   UNL     1      23.543  38.090  45.475  1.00  0.00     0.053 A 
HETATM   36  C   UNL     1      23.626  36.687  45.558  1.00  0.00     0.037 A 
HETATM   37 BR   UNL     1      23.999  35.813  47.207  1.00  0.00    -0.049 Br
HETATM   38  C   UNL     1      23.451  35.889  44.424  1.00  0.00     0.021 A 
HETATM   39  C   UNL     1      23.178  36.484  43.195  1.00  0.00     0.002 A 
HETATM   40  C   UNL     1      23.080  37.870  43.103  1.00  0.00     0.002 A 
HETATM   41  C   UNL     1      23.261  38.670  44.236  1.00  0.00     0.031 A 
ENDBRANCH  31  35
ENDBRANCH   5  29
TORSDOF 8
ENDMDL
MODEL 10
REMARK VINA RESULT:      -8.3      2.136      2.313
REMARK  8 active torsions:
REMARK  status: ('A' for Active; 'I' for Inactive)
REMARK    1  A    between atoms: C_2  and  C_3 
REMARK    2  A    between atoms: C_3  and  N_4 
REMARK       I    between atoms: N_4  and  C_5 
REMARK    3  A    between atoms: C_5  and  C_6 
REMARK    4  A    between atoms: C_7  and  N_8 
REMARK    5  A    between atoms: N_11  and  C_12 
REMARK    6  A    between atoms: C_13  and  O_14 
REMARK    7  A    between atoms: C_24  and  N_25 
REMARK       I    between atoms: N_25  and  C_26 
REMARK       I    between atoms: C_26  and  N_27 
REMARK    8  A    between atoms: N_27  and  C_28 
ROOT
HETATM    1  C   UNL     1      23.438  46.231  49.225  1.00  0.00     0.060 A 
HETATM    2  C   UNL     1      23.784  44.921  49.620  1.00  0.00     0.046 A 
HETATM    3  C   UNL     1      22.939  43.894  49.160  1.00  0.00     0.032 A 
HETATM    4  C   UNL     1      21.783  44.150  48.404  1.00  0.00     0.032 A 
HETATM    5  C   UNL     1      21.422  45.454  48.092  1.00  0.00     0.037 A 
HETATM    6  C   UNL     1      22.262  46.491  48.491  1.00  0.00     0.049 A 
ENDROOT
BRANCH   2   7
HETATM    7  N   UNL     1      24.852  44.638  50.463  1.00  0.00    -0.378 N 
HETATM    8  C   UNL     1      26.207  44.508  49.888  1.00  0.00     0.138 C 
HETATM    9  C   UNL     1      27.268  44.842  50.966  1.00  0.00     0.115 C 
HETATM   10  N   UNL     1      27.098  43.980  52.163  1.00  0.00    -0.278 NA
HETATM   11  C   UNL     1      25.724  44.093  52.726  1.00  0.00     0.115 C 
HETATM   12  C   UNL     1      24.656  43.781  51.651  1.00  0.00     0.138 C 
BRANCH  10  13
HETATM   13  C   UNL     1      28.080  44.067  53.182  1.00  0.00     0.044 A 
HETATM   14  C   UNL     1      29.148  43.129  53.235  1.00  0.00     0.089 A 
HETATM   15  C   UNL     1      30.099  43.199  54.266  1.00  0.00     0.038 A 
HETATM   16  C   UNL     1      30.011  44.187  55.246  1.00  0.00     0.003 A 
HETATM   17  C   UNL     1      28.981  45.115  55.203  1.00  0.00     0.002 A 
HETATM   18  C   UNL     1      28.029  45.057  54.181  1.00  0.00     0.026 A 
BRANCH  14  19
HETATM   19  O   UNL     1      29.193  42.197  52.222  1.00  0.00    -0.354 OA
HETATM   20  C   UNL     1      28.852  40.857  52.543  1.00  0.00     0.210 C 
ENDBRANCH  14  19
ENDBRANCH  10  13
ENDBRANCH   2   7
BRANCH   1  21
HETATM   21  C   UNL     1      24.206  47.440  49.629  1.00  0.00     0.254 C 
HETATM   22  N   UNL     1      24.319  48.381  48.622  1.00  0.00    -0.353 N 
HETATM   23  H   UNL     1      24.016  48.105  47.696  1.00  0.00     0.163 HD
HETATM   24  O   UNL     1      24.627  47.579  50.768  1.00  0.00    -0.268 OA
BRANCH  22  25
HETATM   25  C   UNL     1      24.896  49.715  48.752  1.00  0.00     0.080 C 
HETATM   26  C   UNL     1      26.379  49.768  48.388  1.00  0.00     0.032 C 
BRANCH  25  27
HETATM   27  C   UNL     1      24.047  50.821  48.104  1.00  0.00     0.020 C 
HETATM   28  C   UNL     1      22.606  50.928  48.571  1.00  0.00     0.007 C 
ENDBRANCH  25  27
ENDBRANCH  22  25
ENDBRANCH   1  21
BRANCH   5  29
HETATM   29  N   UNL     1      20.211  45.803  47.466  1.00  0.00    -0.309 N 
HETATM   30  C   UNL     1      19.986  45.993  46.112  1.00  0.00     0.325 C 
HETATM   31  N   UNL     1      18.626  45.950  45.857  1.00  0.00    -0.307 N 
HETATM   32  O   UNL     1      20.860  46.161  45.273  1.00  0.00    -0.247 OA
HETATM   33  H   UNL     1      18.079  45.421  46.523  1.00  0.00     0.170 HD
HETATM   34  H   UNL     1      19.440  46.052  48.068  1.00  0.00     0.170 HD
BRANCH  31  35
HETATM   35  C   UNL     1      17.973  46.224  44.634  1.00  0.00     0.053 A 
HETATM   36  C   UNL     1      17.485  47.523  44.400  1.00  0.00     0.037 A 
HETATM   37 BR   UNL     1      17.652  48.894  45.710  1.00  0.00    -0.049 Br
HETATM   38  C   UNL     1      16.847  47.844  43.199  1.00  0.00     0.021 A 
HETATM   39  C   UNL     1      16.700  46.874  42.212  1.00  0.00     0.002 A 
HETATM   40  C   UNL     1      17.191  45.588  42.426  1.00  0.00     0.002 A 
HETATM   41  C   UNL     1      17.825  45.264  43.630  1.00  0.00     0.031 A 
ENDBRANCH  31  35
ENDBRANCH   5  29
TORSDOF 8
ENDMDL
