MODEL 1
REMARK VINA RESULT:      -9.4      0.000      0.000
REMARK  7 active torsions:
REMARK  status: ('A' for Active; 'I' for Inactive)
REMARK    1  A    between atoms: C_2  and  O_3 
REMARK    2  A    between atoms: O_3  and  C_4 
REMARK    3  A    between atoms: C_4  and  C_5 
REMARK    4  A    between atoms: C_6  and  N_7 
REMARK    5  A    between atoms: N_7  and  C_8 
REMARK    6  A    between atoms: C_9  and  C_10 
REMARK    7  A    between atoms: C_13  and  C_14 
ROOT
HETATM    1  C   UNL     1      28.026  42.699  51.980  1.00  0.00     0.114 C 
HETATM    2  C   UNL     1      26.881  42.551  51.282  1.00  0.00     0.095 C 
HETATM    3  C   UNL     1      26.436  41.230  50.972  1.00  0.00     0.103 C 
HETATM    4  N   UNL     1      26.126  40.139  50.725  1.00  0.00    -0.191 NA
ENDROOT
BRANCH   2   5
HETATM    5  C   UNL     1      26.109  43.656  50.800  1.00  0.00     0.120 A 
HETATM    6  S   UNL     1      24.371  43.649  50.904  1.00  0.00    -0.078 SA
HETATM    7  C   UNL     1      24.314  45.242  50.294  1.00  0.00     0.084 A 
HETATM    8  C   UNL     1      25.590  45.716  50.079  1.00  0.00     0.075 A 
HETATM    9  N   UNL     1      26.598  44.804  50.362  1.00  0.00    -0.239 NA
BRANCH   8  10
HETATM   10  C   UNL     1      25.899  47.057  49.591  1.00  0.00    -0.007 A 
HETATM   11  C   UNL     1      24.890  47.989  49.297  1.00  0.00     0.017 A 
HETATM   12  C   UNL     1      25.217  49.267  48.833  1.00  0.00     0.043 A 
HETATM   13  C   UNL     1      26.551  49.616  48.667  1.00  0.00     0.116 A 
HETATM   14  F   UNL     1      26.862  50.840  48.222  1.00  0.00    -0.206 F 
HETATM   15  C   UNL     1      27.567  48.715  48.960  1.00  0.00     0.043 A 
HETATM   16  C   UNL     1      27.241  47.438  49.426  1.00  0.00     0.017 A 
ENDBRANCH   8  10
ENDBRANCH   2   5
BRANCH   1  17
HETATM   17  N   UNL     1      28.654  43.828  52.468  1.00  0.00    -0.358 N 
HETATM   18  H   UNL     1      29.070  44.416  51.737  1.00  0.00     0.166 HD
BRANCH  17  19
HETATM   19  C   UNL     1      29.148  44.033  53.731  1.00  0.00     0.091 A 
HETATM   20  C   UNL     1      28.729  45.030  54.616  1.00  0.00     0.080 A 
HETATM   21  C   UNL     1      29.517  45.025  55.834  1.00  0.00    -0.026 A 
HETATM   22  C   UNL     1      30.454  44.010  55.828  1.00  0.00    -0.008 A 
HETATM   23  C   UNL     1      29.394  45.961  57.007  1.00  0.00     0.041 C 
HETATM   24  S   UNL     1      30.401  43.077  54.419  1.00  0.00    -0.075 SA
HETATM   25  C   UNL     1      31.459  43.744  56.908  1.00  0.00     0.047 C 
HETATM   26  C   UNL     1      31.067  44.467  58.202  1.00  0.00     0.005 C 
HETATM   27  C   UNL     1      30.624  45.909  57.927  1.00  0.00     0.005 C 
BRANCH  20  28
HETATM   28  C   UNL     1      27.623  45.934  54.277  1.00  0.00     0.296 C 
HETATM   29  O   UNL     1      27.637  47.134  54.530  1.00  0.00    -0.259 OA
BRANCH  28  30
HETATM   30  O   UNL     1      26.601  45.305  53.627  1.00  0.00    -0.318 OA
BRANCH  30  31
HETATM   31  C   UNL     1      25.440  44.996  54.412  1.00  0.00     0.174 C 
HETATM   32  C   UNL     1      25.578  43.604  54.997  1.00  0.00     0.034 C 
ENDBRANCH  30  31
ENDBRANCH  28  30
ENDBRANCH  20  28
ENDBRANCH  17  19
ENDBRANCH   1  17
TORSDOF 7
ENDMDL
MODEL 2
REMARK VINA RESULT:      -9.2      2.946      7.787
REMARK  7 active torsions:
REMARK  status: ('A' for Active; 'I' for Inactive)
REMARK    1  A    between atoms: C_2  and  O_3 
REMARK    2  A    between atoms: O_3  and  C_4 
REMARK    3  A    between atoms: C_4  and  C_5 
REMARK    4  A    between atoms: C_6  and  N_7 
REMARK    5  A    between atoms: N_7  and  C_8 
REMARK    6  A    between atoms: C_9  and  C_10 
REMARK    7  A    between atoms: C_13  and  C_14 
ROOT
HETATM    1  C   UNL     1      25.965  43.596  49.259  1.00  0.00     0.114 C 
HETATM    2  C   UNL     1      26.890  42.670  49.588  1.00  0.00     0.095 C 
HETATM    3  C   UNL     1      27.413  41.831  48.558  1.00  0.00     0.103 C 
HETATM    4  N   UNL     1      27.793  41.158  47.691  1.00  0.00    -0.191 NA
ENDROOT
BRANCH   2   5
HETATM    5  C   UNL     1      27.344  42.459  50.929  1.00  0.00     0.120 A 
HETATM    6  S   UNL     1      27.482  40.852  51.586  1.00  0.00    -0.078 SA
HETATM    7  C   UNL     1      28.157  41.482  53.022  1.00  0.00     0.084 A 
HETATM    8  C   UNL     1      28.283  42.851  52.929  1.00  0.00     0.075 A 
HETATM    9  N   UNL     1      27.811  43.394  51.741  1.00  0.00    -0.239 NA
BRANCH   8  10
HETATM   10  C   UNL     1      28.854  43.698  53.972  1.00  0.00    -0.007 A 
HETATM   11  C   UNL     1      28.262  44.917  54.343  1.00  0.00     0.017 A 
HETATM   12  C   UNL     1      28.831  45.706  55.348  1.00  0.00     0.043 A 
HETATM   13  C   UNL     1      29.987  45.275  55.986  1.00  0.00     0.116 A 
HETATM   14  F   UNL     1      30.530  46.032  56.947  1.00  0.00    -0.206 F 
HETATM   15  C   UNL     1      30.585  44.069  55.643  1.00  0.00     0.043 A 
HETATM   16  C   UNL     1      30.016  43.280  54.640  1.00  0.00     0.017 A 
ENDBRANCH   8  10
ENDBRANCH   2   5
BRANCH   1  17
HETATM   17  N   UNL     1      25.342  44.568  50.017  1.00  0.00    -0.358 N 
HETATM   18  H   UNL     1      25.266  44.327  51.012  1.00  0.00     0.166 HD
BRANCH  17  19
HETATM   19  C   UNL     1      24.478  45.542  49.585  1.00  0.00     0.091 A 
HETATM   20  C   UNL     1      24.698  46.919  49.670  1.00  0.00     0.080 A 
HETATM   21  C   UNL     1      23.548  47.670  49.205  1.00  0.00    -0.026 A 
HETATM   22  C   UNL     1      22.543  46.835  48.757  1.00  0.00    -0.008 A 
HETATM   23  C   UNL     1      23.386  49.167  49.169  1.00  0.00     0.041 C 
HETATM   24  S   UNL     1      22.950  45.198  48.875  1.00  0.00    -0.075 SA
HETATM   25  C   UNL     1      21.204  47.275  48.248  1.00  0.00     0.047 C 
HETATM   26  C   UNL     1      21.223  48.768  47.897  1.00  0.00     0.005 C 
HETATM   27  C   UNL     1      21.920  49.591  48.987  1.00  0.00     0.005 C 
BRANCH  20  28
HETATM   28  C   UNL     1      25.963  47.458  50.183  1.00  0.00     0.296 C 
HETATM   29  O   UNL     1      26.123  47.794  51.353  1.00  0.00    -0.259 OA
BRANCH  28  30
HETATM   30  O   UNL     1      26.942  47.514  49.235  1.00  0.00    -0.318 OA
BRANCH  30  31
HETATM   31  C   UNL     1      27.693  48.735  49.164  1.00  0.00     0.174 C 
HETATM   32  C   UNL     1      26.853  49.811  48.504  1.00  0.00     0.034 C 
ENDBRANCH  30  31
ENDBRANCH  28  30
ENDBRANCH  20  28
ENDBRANCH  17  19
ENDBRANCH   1  17
TORSDOF 7
ENDMDL
MODEL 3
REMARK VINA RESULT:      -9.1      5.675     10.465
REMARK  7 active torsions:
REMARK  status: ('A' for Active; 'I' for Inactive)
REMARK    1  A    between atoms: C_2  and  O_3 
REMARK    2  A    between atoms: O_3  and  C_4 
REMARK    3  A    between atoms: C_4  and  C_5 
REMARK    4  A    between atoms: C_6  and  N_7 
REMARK    5  A    between atoms: N_7  and  C_8 
REMARK    6  A    between atoms: C_9  and  C_10 
REMARK    7  A    between atoms: C_13  and  C_14 
ROOT
HETATM    1  C   UNL     1      22.921  49.075  48.915  1.00  0.00     0.114 C 
HETATM    2  C   UNL     1      24.190  48.698  49.175  1.00  0.00     0.095 C 
HETATM    3  C   UNL     1      25.254  49.389  48.520  1.00  0.00     0.103 C 
HETATM    4  N   UNL     1      26.085  49.966  47.949  1.00  0.00    -0.191 NA
ENDROOT
BRANCH   2   5
HETATM    5  C   UNL     1      24.522  47.610  50.043  1.00  0.00     0.120 A 
HETATM    6  S   UNL     1      24.143  45.967  49.606  1.00  0.00    -0.078 SA
HETATM    7  C   UNL     1      24.941  45.397  51.003  1.00  0.00     0.084 A 
HETATM    8  C   UNL     1      25.484  46.451  51.706  1.00  0.00     0.075 A 
HETATM    9  N   UNL     1      25.232  47.701  51.156  1.00  0.00    -0.239 NA
BRANCH   8  10
HETATM   10  C   UNL     1      26.259  46.309  52.934  1.00  0.00    -0.007 A 
HETATM   11  C   UNL     1      26.978  45.137  53.226  1.00  0.00     0.017 A 
HETATM   12  C   UNL     1      27.714  45.032  54.410  1.00  0.00     0.043 A 
HETATM   13  C   UNL     1      27.739  46.098  55.300  1.00  0.00     0.116 A 
HETATM   14  F   UNL     1      28.444  45.994  56.433  1.00  0.00    -0.206 F 
HETATM   15  C   UNL     1      27.044  47.270  55.029  1.00  0.00     0.043 A 
HETATM   16  C   UNL     1      26.309  47.377  53.846  1.00  0.00     0.017 A 
ENDBRANCH   8  10
ENDBRANCH   2   5
BRANCH   1  17
HETATM   17  N   UNL     1      21.719  48.640  49.438  1.00  0.00    -0.358 N 
HETATM   18  H   UNL     1      21.820  48.084  50.295  1.00  0.00     0.166 HD
BRANCH  17  19
HETATM   19  C   UNL     1      20.526  48.482  48.779  1.00  0.00     0.091 A 
HETATM   20  C   UNL     1      19.286  48.952  49.219  1.00  0.00     0.080 A 
HETATM   21  C   UNL     1      18.216  48.538  48.332  1.00  0.00    -0.026 A 
HETATM   22  C   UNL     1      18.698  47.820  47.255  1.00  0.00    -0.008 A 
HETATM   23  C   UNL     1      16.744  48.817  48.481  1.00  0.00     0.041 C 
HETATM   24  S   UNL     1      20.379  47.642  47.285  1.00  0.00    -0.075 SA
HETATM   25  C   UNL     1      17.864  47.206  46.171  1.00  0.00     0.047 C 
HETATM   26  C   UNL     1      16.454  47.809  46.167  1.00  0.00     0.005 C 
HETATM   27  C   UNL     1      15.884  47.911  47.587  1.00  0.00     0.005 C 
BRANCH  20  28
HETATM   28  C   UNL     1      19.166  49.756  50.441  1.00  0.00     0.296 C 
HETATM   29  O   UNL     1      18.717  49.313  51.493  1.00  0.00    -0.259 OA
BRANCH  28  30
HETATM   30  O   UNL     1      19.635  51.028  50.290  1.00  0.00    -0.318 OA
BRANCH  30  31
HETATM   31  C   UNL     1      18.694  52.003  49.818  1.00  0.00     0.174 C 
HETATM   32  C   UNL     1      19.074  52.440  48.417  1.00  0.00     0.034 C 
ENDBRANCH  30  31
ENDBRANCH  28  30
ENDBRANCH  20  28
ENDBRANCH  17  19
ENDBRANCH   1  17
TORSDOF 7
ENDMDL
MODEL 4
REMARK VINA RESULT:      -9.1      3.781      5.849
REMARK  7 active torsions:
REMARK  status: ('A' for Active; 'I' for Inactive)
REMARK    1  A    between atoms: C_2  and  O_3 
REMARK    2  A    between atoms: O_3  and  C_4 
REMARK    3  A    between atoms: C_4  and  C_5 
REMARK    4  A    between atoms: C_6  and  N_7 
REMARK    5  A    between atoms: N_7  and  C_8 
REMARK    6  A    between atoms: C_9  and  C_10 
REMARK    7  A    between atoms: C_13  and  C_14 
ROOT
HETATM    1  C   UNL     1      26.001  47.524  50.267  1.00  0.00     0.114 C 
HETATM    2  C   UNL     1      25.409  48.370  49.398  1.00  0.00     0.095 C 
HETATM    3  C   UNL     1      26.218  49.335  48.726  1.00  0.00     0.103 C 
HETATM    4  N   UNL     1      26.913  50.116  48.220  1.00  0.00    -0.191 NA
ENDROOT
BRANCH   2   5
HETATM    5  C   UNL     1      24.000  48.377  49.149  1.00  0.00     0.120 A 
HETATM    6  S   UNL     1      23.149  46.904  48.772  1.00  0.00    -0.078 SA
HETATM    7  C   UNL     1      21.663  47.745  48.773  1.00  0.00     0.084 A 
HETATM    8  C   UNL     1      21.867  49.071  49.091  1.00  0.00     0.075 A 
HETATM    9  N   UNL     1      23.196  49.418  49.293  1.00  0.00    -0.239 NA
BRANCH   8  10
HETATM   10  C   UNL     1      20.801  50.062  49.209  1.00  0.00    -0.007 A 
HETATM   11  C   UNL     1      19.746  49.909  50.123  1.00  0.00     0.017 A 
HETATM   12  C   UNL     1      18.740  50.877  50.215  1.00  0.00     0.043 A 
HETATM   13  C   UNL     1      18.792  51.999  49.399  1.00  0.00     0.116 A 
HETATM   14  F   UNL     1      17.828  52.924  49.489  1.00  0.00    -0.206 F 
HETATM   15  C   UNL     1      19.830  52.177  48.494  1.00  0.00     0.043 A 
HETATM   16  C   UNL     1      20.836  51.211  48.403  1.00  0.00     0.017 A 
ENDBRANCH   8  10
ENDBRANCH   2   5
BRANCH   1  17
HETATM   17  N   UNL     1      25.492  46.469  50.998  1.00  0.00    -0.358 N 
HETATM   18  H   UNL     1      24.630  46.698  51.506  1.00  0.00     0.166 HD
BRANCH  17  19
HETATM   19  C   UNL     1      26.166  45.368  51.463  1.00  0.00     0.091 A 
HETATM   20  C   UNL     1      26.552  45.151  52.787  1.00  0.00     0.080 A 
HETATM   21  C   UNL     1      27.326  43.932  52.923  1.00  0.00    -0.026 A 
HETATM   22  C   UNL     1      27.449  43.272  51.716  1.00  0.00    -0.008 A 
HETATM   23  C   UNL     1      27.944  43.375  54.177  1.00  0.00     0.041 C 
HETATM   24  S   UNL     1      26.663  44.071  50.449  1.00  0.00    -0.075 SA
HETATM   25  C   UNL     1      28.218  42.006  51.487  1.00  0.00     0.047 C 
HETATM   26  C   UNL     1      28.512  41.304  52.818  1.00  0.00     0.005 C 
HETATM   27  C   UNL     1      28.999  42.298  53.880  1.00  0.00     0.005 C 
BRANCH  20  28
HETATM   28  C   UNL     1      26.184  46.092  53.852  1.00  0.00     0.296 C 
HETATM   29  O   UNL     1      25.357  45.831  54.721  1.00  0.00    -0.259 OA
BRANCH  28  30
HETATM   30  O   UNL     1      26.879  47.265  53.791  1.00  0.00    -0.318 OA
BRANCH  30  31
HETATM   31  C   UNL     1      27.535  47.681  54.997  1.00  0.00     0.174 C 
HETATM   32  C   UNL     1      28.711  46.766  55.279  1.00  0.00     0.034 C 
ENDBRANCH  30  31
ENDBRANCH  28  30
ENDBRANCH  20  28
ENDBRANCH  17  19
ENDBRANCH   1  17
TORSDOF 7
ENDMDL
MODEL 5
REMARK VINA RESULT:      -9.0      1.457      2.088
REMARK  7 active torsions:
REMARK  status: ('A' for Active; 'I' for Inactive)
REMARK    1  A    between atoms: C_2  and  O_3 
REMARK    2  A    between atoms: O_3  and  C_4 
REMARK    3  A    between atoms: C_4  and  C_5 
REMARK    4  A    between atoms: C_6  and  N_7 
REMARK    5  A    between atoms: N_7  and  C_8 
REMARK    6  A    between atoms: C_9  and  C_10 
REMARK    7  A    between atoms: C_13  and  C_14 
ROOT
HETATM    1  C   UNL     1      27.395  41.387  51.252  1.00  0.00     0.114 C 
HETATM    2  C   UNL     1      27.116  41.839  50.012  1.00  0.00     0.095 C 
HETATM    3  C   UNL     1      27.623  41.114  48.891  1.00  0.00     0.103 C 
HETATM    4  N   UNL     1      28.074  40.504  48.012  1.00  0.00    -0.191 NA
ENDROOT
BRANCH   2   5
HETATM    5  C   UNL     1      26.372  43.036  49.764  1.00  0.00     0.120 A 
HETATM    6  S   UNL     1      24.631  43.030  49.787  1.00  0.00    -0.078 SA
HETATM    7  C   UNL     1      24.608  44.722  49.559  1.00  0.00     0.084 A 
HETATM    8  C   UNL     1      25.894  45.214  49.514  1.00  0.00     0.075 A 
HETATM    9  N   UNL     1      26.885  44.248  49.623  1.00  0.00    -0.239 NA
BRANCH   8  10
HETATM   10  C   UNL     1      26.231  46.627  49.361  1.00  0.00    -0.007 A 
HETATM   11  C   UNL     1      27.561  47.064  49.251  1.00  0.00     0.017 A 
HETATM   12  C   UNL     1      27.852  48.424  49.103  1.00  0.00     0.043 A 
HETATM   13  C   UNL     1      26.814  49.346  49.058  1.00  0.00     0.116 A 
HETATM   14  F   UNL     1      27.095  50.647  48.916  1.00  0.00    -0.206 F 
HETATM   15  C   UNL     1      25.490  48.937  49.155  1.00  0.00     0.043 A 
HETATM   16  C   UNL     1      25.199  47.578  49.302  1.00  0.00     0.017 A 
ENDBRANCH   8  10
ENDBRANCH   2   5
BRANCH   1  17
HETATM   17  N   UNL     1      26.994  41.837  52.495  1.00  0.00    -0.358 N 
HETATM   18  H   UNL     1      25.976  41.911  52.597  1.00  0.00     0.166 HD
BRANCH  17  19
HETATM   19  C   UNL     1      27.724  42.569  53.397  1.00  0.00     0.091 A 
HETATM   20  C   UNL     1      27.279  43.710  54.068  1.00  0.00     0.080 A 
HETATM   21  C   UNL     1      28.330  44.292  54.882  1.00  0.00    -0.026 A 
HETATM   22  C   UNL     1      29.491  43.547  54.820  1.00  0.00    -0.008 A 
HETATM   23  C   UNL     1      28.251  45.537  55.724  1.00  0.00     0.041 C 
HETATM   24  S   UNL     1      29.345  42.185  53.828  1.00  0.00    -0.075 SA
HETATM   25  C   UNL     1      30.781  43.884  55.504  1.00  0.00     0.047 C 
HETATM   26  C   UNL     1      30.553  44.925  56.607  1.00  0.00     0.005 C 
HETATM   27  C   UNL     1      29.638  46.059  56.127  1.00  0.00     0.005 C 
BRANCH  20  28
HETATM   28  C   UNL     1      25.903  44.198  53.912  1.00  0.00     0.296 C 
HETATM   29  O   UNL     1      25.011  43.955  54.718  1.00  0.00    -0.259 OA
BRANCH  28  30
HETATM   30  O   UNL     1      25.735  44.970  52.800  1.00  0.00    -0.318 OA
BRANCH  30  31
HETATM   31  C   UNL     1      25.305  46.321  53.021  1.00  0.00     0.174 C 
HETATM   32  C   UNL     1      26.499  47.253  52.953  1.00  0.00     0.034 C 
ENDBRANCH  30  31
ENDBRANCH  28  30
ENDBRANCH  20  28
ENDBRANCH  17  19
ENDBRANCH   1  17
TORSDOF 7
ENDMDL
MODEL 6
REMARK VINA RESULT:      -9.0      4.153      8.747
REMARK  7 active torsions:
REMARK  status: ('A' for Active; 'I' for Inactive)
REMARK    1  A    between atoms: C_2  and  O_3 
REMARK    2  A    between atoms: O_3  and  C_4 
REMARK    3  A    between atoms: C_4  and  C_5 
REMARK    4  A    between atoms: C_6  and  N_7 
REMARK    5  A    between atoms: N_7  and  C_8 
REMARK    6  A    between atoms: C_9  and  C_10 
REMARK    7  A    between atoms: C_13  and  C_14 
ROOT
HETATM    1  C   UNL     1      22.611  45.379  48.791  1.00  0.00     0.114 C 
HETATM    2  C   UNL     1      23.337  44.308  49.174  1.00  0.00     0.095 C 
HETATM    3  C   UNL     1      22.889  43.008  48.794  1.00  0.00     0.103 C 
HETATM    4  N   UNL     1      22.474  41.970  48.480  1.00  0.00    -0.191 NA
ENDROOT
BRANCH   2   5
HETATM    5  C   UNL     1      24.515  44.410  49.981  1.00  0.00     0.120 A 
HETATM    6  S   UNL     1      26.027  43.727  49.451  1.00  0.00    -0.078 SA
HETATM    7  C   UNL     1      26.817  44.377  50.817  1.00  0.00     0.084 A 
HETATM    8  C   UNL     1      25.927  45.102  51.581  1.00  0.00     0.075 A 
HETATM    9  N   UNL     1      24.625  45.105  51.101  1.00  0.00    -0.239 NA
BRANCH   8  10
HETATM   10  C   UNL     1      26.284  45.816  52.803  1.00  0.00    -0.007 A 
HETATM   11  C   UNL     1      25.688  47.041  53.146  1.00  0.00     0.017 A 
HETATM   12  C   UNL     1      26.049  47.701  54.326  1.00  0.00     0.043 A 
HETATM   13  C   UNL     1      26.999  47.135  55.165  1.00  0.00     0.116 A 
HETATM   14  F   UNL     1      27.343  47.769  56.293  1.00  0.00    -0.206 F 
HETATM   15  C   UNL     1      27.596  45.920  54.852  1.00  0.00     0.043 A 
HETATM   16  C   UNL     1      27.235  45.260  53.675  1.00  0.00     0.017 A 
ENDBRANCH   8  10
ENDBRANCH   2   5
BRANCH   1  17
HETATM   17  N   UNL     1      22.830  46.732  48.956  1.00  0.00    -0.358 N 
HETATM   18  H   UNL     1      23.648  46.949  49.536  1.00  0.00     0.166 HD
BRANCH  17  19
HETATM   19  C   UNL     1      21.919  47.751  48.830  1.00  0.00     0.091 A 
HETATM   20  C   UNL     1      22.224  49.083  48.542  1.00  0.00     0.080 A 
HETATM   21  C   UNL     1      21.038  49.917  48.568  1.00  0.00    -0.026 A 
HETATM   22  C   UNL     1      19.902  49.177  48.829  1.00  0.00    -0.008 A 
HETATM   23  C   UNL     1      20.959  51.404  48.342  1.00  0.00     0.041 C 
HETATM   24  S   UNL     1      20.225  47.529  49.033  1.00  0.00    -0.075 SA
HETATM   25  C   UNL     1      18.514  49.726  48.968  1.00  0.00     0.047 C 
HETATM   26  C   UNL     1      18.433  51.142  48.385  1.00  0.00     0.005 C 
HETATM   27  C   UNL     1      19.627  51.999  48.823  1.00  0.00     0.005 C 
BRANCH  20  28
HETATM   28  C   UNL     1      23.602  49.506  48.264  1.00  0.00     0.296 C 
HETATM   29  O   UNL     1      23.930  50.085  47.233  1.00  0.00    -0.259 OA
BRANCH  28  30
HETATM   30  O   UNL     1      24.464  49.219  49.282  1.00  0.00    -0.318 OA
BRANCH  30  31
HETATM   31  C   UNL     1      25.861  49.224  48.956  1.00  0.00     0.174 C 
HETATM   32  C   UNL     1      26.545  48.052  49.632  1.00  0.00     0.034 C 
ENDBRANCH  30  31
ENDBRANCH  28  30
ENDBRANCH  20  28
ENDBRANCH  17  19
ENDBRANCH   1  17
TORSDOF 7
ENDMDL
MODEL 7
REMARK VINA RESULT:      -8.9      4.388      6.385
REMARK  7 active torsions:
REMARK  status: ('A' for Active; 'I' for Inactive)
REMARK    1  A    between atoms: C_2  and  O_3 
REMARK    2  A    between atoms: O_3  and  C_4 
REMARK    3  A    between atoms: C_4  and  C_5 
REMARK    4  A    between atoms: C_6  and  N_7 
REMARK    5  A    between atoms: N_7  and  C_8 
REMARK    6  A    between atoms: C_9  and  C_10 
REMARK    7  A    between atoms: C_13  and  C_14 
ROOT
HETATM    1  C   UNL     1      25.441  48.099  49.933  1.00  0.00     0.114 C 
HETATM    2  C   UNL     1      24.752  48.790  49.001  1.00  0.00     0.095 C 
HETATM    3  C   UNL     1      25.472  49.650  48.118  1.00  0.00     0.103 C 
HETATM    4  N   UNL     1      26.096  50.352  47.436  1.00  0.00    -0.191 NA
ENDROOT
BRANCH   2   5
HETATM    5  C   UNL     1      23.327  48.735  48.882  1.00  0.00     0.120 A 
HETATM    6  S   UNL     1      22.502  47.215  48.680  1.00  0.00    -0.078 SA
HETATM    7  C   UNL     1      20.992  48.007  48.762  1.00  0.00     0.084 A 
HETATM    8  C   UNL     1      21.173  49.357  48.974  1.00  0.00     0.075 A 
HETATM    9  N   UNL     1      22.501  49.758  49.031  1.00  0.00    -0.239 NA
BRANCH   8  10
HETATM   10  C   UNL     1      20.086  50.320  49.124  1.00  0.00    -0.007 A 
HETATM   11  C   UNL     1      18.984  50.068  49.958  1.00  0.00     0.017 A 
HETATM   12  C   UNL     1      17.959  51.011  50.084  1.00  0.00     0.043 A 
HETATM   13  C   UNL     1      18.037  52.207  49.383  1.00  0.00     0.116 A 
HETATM   14  F   UNL     1      17.054  53.108  49.505  1.00  0.00    -0.206 F 
HETATM   15  C   UNL     1      19.122  52.483  48.560  1.00  0.00     0.043 A 
HETATM   16  C   UNL     1      20.147  51.542  48.435  1.00  0.00     0.017 A 
ENDBRANCH   8  10
ENDBRANCH   2   5
BRANCH   1  17
HETATM   17  N   UNL     1      25.029  47.164  50.862  1.00  0.00    -0.358 N 
HETATM   18  H   UNL     1      24.047  47.268  51.141  1.00  0.00     0.166 HD
BRANCH  17  19
HETATM   19  C   UNL     1      25.809  46.445  51.731  1.00  0.00     0.091 A 
HETATM   20  C   UNL     1      26.378  45.197  51.470  1.00  0.00     0.080 A 
HETATM   21  C   UNL     1      27.070  44.674  52.633  1.00  0.00    -0.026 A 
HETATM   22  C   UNL     1      27.026  45.560  53.691  1.00  0.00    -0.008 A 
HETATM   23  C   UNL     1      27.779  43.351  52.759  1.00  0.00     0.041 C 
HETATM   24  S   UNL     1      26.193  46.985  53.318  1.00  0.00    -0.075 SA
HETATM   25  C   UNL     1      27.602  45.323  55.054  1.00  0.00     0.047 C 
HETATM   26  C   UNL     1      28.599  44.158  55.024  1.00  0.00     0.005 C 
HETATM   27  C   UNL     1      28.051  42.971  54.222  1.00  0.00     0.005 C 
BRANCH  20  28
HETATM   28  C   UNL     1      26.243  44.557  50.155  1.00  0.00     0.296 C 
HETATM   29  O   UNL     1      27.197  44.337  49.416  1.00  0.00    -0.259 OA
BRANCH  28  30
HETATM   30  O   UNL     1      24.957  44.208  49.862  1.00  0.00    -0.318 OA
BRANCH  30  31
HETATM   31  C   UNL     1      24.413  43.103  50.598  1.00  0.00     0.174 C 
HETATM   32  C   UNL     1      25.073  41.815  50.144  1.00  0.00     0.034 C 
ENDBRANCH  30  31
ENDBRANCH  28  30
ENDBRANCH  20  28
ENDBRANCH  17  19
ENDBRANCH   1  17
TORSDOF 7
ENDMDL
MODEL 8
REMARK VINA RESULT:      -8.7      3.009      7.662
REMARK  7 active torsions:
REMARK  status: ('A' for Active; 'I' for Inactive)
REMARK    1  A    between atoms: C_2  and  O_3 
REMARK    2  A    between atoms: O_3  and  C_4 
REMARK    3  A    between atoms: C_4  and  C_5 
REMARK    4  A    between atoms: C_6  and  N_7 
REMARK    5  A    between atoms: N_7  and  C_8 
REMARK    6  A    between atoms: C_9  and  C_10 
REMARK    7  A    between atoms: C_13  and  C_14 
ROOT
HETATM    1  C   UNL     1      26.662  44.013  49.657  1.00  0.00     0.114 C 
HETATM    2  C   UNL     1      27.215  42.843  50.041  1.00  0.00     0.095 C 
HETATM    3  C   UNL     1      27.257  41.768  49.103  1.00  0.00     0.103 C 
HETATM    4  N   UNL     1      27.250  40.916  48.314  1.00  0.00    -0.191 NA
ENDROOT
BRANCH   2   5
HETATM    5  C   UNL     1      27.724  42.613  51.359  1.00  0.00     0.120 A 
HETATM    6  S   UNL     1      28.015  40.997  51.938  1.00  0.00    -0.078 SA
HETATM    7  C   UNL     1      28.676  41.618  53.384  1.00  0.00     0.084 A 
HETATM    8  C   UNL     1      28.683  42.997  53.350  1.00  0.00     0.075 A 
HETATM    9  N   UNL     1      28.133  43.548  52.201  1.00  0.00    -0.239 NA
BRANCH   8  10
HETATM   10  C   UNL     1      29.211  43.843  54.416  1.00  0.00    -0.007 A 
HETATM   11  C   UNL     1      30.360  43.490  55.142  1.00  0.00     0.017 A 
HETATM   12  C   UNL     1      30.843  44.323  56.156  1.00  0.00     0.043 A 
HETATM   13  C   UNL     1      30.182  45.510  56.442  1.00  0.00     0.116 A 
HETATM   14  F   UNL     1      30.647  46.306  57.414  1.00  0.00    -0.206 F 
HETATM   15  C   UNL     1      29.049  45.885  55.732  1.00  0.00     0.043 A 
HETATM   16  C   UNL     1      28.567  45.054  54.717  1.00  0.00     0.017 A 
ENDBRANCH   8  10
ENDBRANCH   2   5
BRANCH   1  17
HETATM   17  N   UNL     1      26.542  45.221  50.315  1.00  0.00    -0.358 N 
HETATM   18  H   UNL     1      26.774  45.170  51.313  1.00  0.00     0.166 HD
BRANCH  17  19
HETATM   19  C   UNL     1      25.784  46.304  49.947  1.00  0.00     0.091 A 
HETATM   20  C   UNL     1      24.403  46.298  49.743  1.00  0.00     0.080 A 
HETATM   21  C   UNL     1      23.929  47.587  49.275  1.00  0.00    -0.026 A 
HETATM   22  C   UNL     1      24.957  48.505  49.189  1.00  0.00    -0.008 A 
HETATM   23  C   UNL     1      22.517  47.967  48.914  1.00  0.00     0.041 C 
HETATM   24  S   UNL     1      26.450  47.863  49.658  1.00  0.00    -0.075 SA
HETATM   25  C   UNL     1      24.828  49.917  48.703  1.00  0.00     0.047 C 
HETATM   26  C   UNL     1      23.359  50.354  48.696  1.00  0.00     0.005 C 
HETATM   27  C   UNL     1      22.453  49.269  48.101  1.00  0.00     0.005 C 
BRANCH  20  28
HETATM   28  C   UNL     1      23.601  45.093  49.990  1.00  0.00     0.296 C 
HETATM   29  O   UNL     1      23.610  44.490  51.059  1.00  0.00    -0.259 OA
BRANCH  28  30
HETATM   30  O   UNL     1      22.827  44.741  48.924  1.00  0.00    -0.318 OA
BRANCH  30  31
HETATM   31  C   UNL     1      23.500  44.104  47.829  1.00  0.00     0.174 C 
HETATM   32  C   UNL     1      23.612  42.616  48.096  1.00  0.00     0.034 C 
ENDBRANCH  30  31
ENDBRANCH  28  30
ENDBRANCH  20  28
ENDBRANCH  17  19
ENDBRANCH   1  17
TORSDOF 7
ENDMDL
MODEL 9
REMARK VINA RESULT:      -8.7      4.165      5.927
REMARK  7 active torsions:
REMARK  status: ('A' for Active; 'I' for Inactive)
REMARK    1  A    between atoms: C_2  and  O_3 
REMARK    2  A    between atoms: O_3  and  C_4 
REMARK    3  A    between atoms: C_4  and  C_5 
REMARK    4  A    between atoms: C_6  and  N_7 
REMARK    5  A    between atoms: N_7  and  C_8 
REMARK    6  A    between atoms: C_9  and  C_10 
REMARK    7  A    between atoms: C_13  and  C_14 
ROOT
HETATM    1  C   UNL     1      23.506  45.261  49.467  1.00  0.00     0.114 C 
HETATM    2  C   UNL     1      22.881  46.105  48.620  1.00  0.00     0.095 C 
HETATM    3  C   UNL     1      22.435  45.602  47.360  1.00  0.00     0.103 C 
HETATM    4  N   UNL     1      22.109  45.154  46.340  1.00  0.00    -0.191 NA
ENDROOT
BRANCH   2   5
HETATM    5  C   UNL     1      22.679  47.493  48.905  1.00  0.00     0.120 A 
HETATM    6  S   UNL     1      24.029  48.585  49.040  1.00  0.00    -0.078 SA
HETATM    7  C   UNL     1      22.962  49.904  49.227  1.00  0.00     0.084 A 
HETATM    8  C   UNL     1      21.654  49.475  49.141  1.00  0.00     0.075 A 
HETATM    9  N   UNL     1      21.508  48.105  48.967  1.00  0.00    -0.239 NA
BRANCH   8  10
HETATM   10  C   UNL     1      20.492  50.354  49.227  1.00  0.00    -0.007 A 
HETATM   11  C   UNL     1      19.405  50.065  50.069  1.00  0.00     0.017 A 
HETATM   12  C   UNL     1      18.307  50.928  50.132  1.00  0.00     0.043 A 
HETATM   13  C   UNL     1      18.295  52.082  49.360  1.00  0.00     0.116 A 
HETATM   14  F   UNL     1      17.242  52.906  49.422  1.00  0.00    -0.206 F 
HETATM   15  C   UNL     1      19.362  52.394  48.527  1.00  0.00     0.043 A 
HETATM   16  C   UNL     1      20.461  51.533  48.464  1.00  0.00     0.017 A 
ENDBRANCH   8  10
ENDBRANCH   2   5
BRANCH   1  17
HETATM   17  N   UNL     1      23.980  45.447  50.751  1.00  0.00    -0.358 N 
HETATM   18  H   UNL     1      23.791  46.383  51.127  1.00  0.00     0.166 HD
BRANCH  17  19
HETATM   19  C   UNL     1      24.983  44.756  51.382  1.00  0.00     0.091 A 
HETATM   20  C   UNL     1      25.851  45.281  52.342  1.00  0.00     0.080 A 
HETATM   21  C   UNL     1      26.851  44.309  52.743  1.00  0.00    -0.026 A 
HETATM   22  C   UNL     1      26.666  43.099  52.104  1.00  0.00    -0.008 A 
HETATM   23  C   UNL     1      27.975  44.504  53.725  1.00  0.00     0.041 C 
HETATM   24  S   UNL     1      25.336  43.104  51.059  1.00  0.00    -0.075 SA
HETATM   25  C   UNL     1      27.541  41.891  52.253  1.00  0.00     0.047 C 
HETATM   26  C   UNL     1      28.426  42.014  53.499  1.00  0.00     0.005 C 
HETATM   27  C   UNL     1      29.048  43.411  53.610  1.00  0.00     0.005 C 
BRANCH  20  28
HETATM   28  C   UNL     1      25.705  46.658  52.831  1.00  0.00     0.296 C 
HETATM   29  O   UNL     1      25.635  47.629  52.085  1.00  0.00    -0.259 OA
BRANCH  28  30
HETATM   30  O   UNL     1      25.622  46.735  54.190  1.00  0.00    -0.318 OA
BRANCH  30  31
HETATM   31  C   UNL     1      26.153  47.922  54.796  1.00  0.00     0.174 C 
HETATM   32  C   UNL     1      27.466  47.598  55.483  1.00  0.00     0.034 C 
ENDBRANCH  30  31
ENDBRANCH  28  30
ENDBRANCH  20  28
ENDBRANCH  17  19
ENDBRANCH   1  17
TORSDOF 7
ENDMDL
MODEL 10
REMARK VINA RESULT:      -8.7      6.000     10.672
REMARK  7 active torsions:
REMARK  status: ('A' for Active; 'I' for Inactive)
REMARK    1  A    between atoms: C_2  and  O_3 
REMARK    2  A    between atoms: O_3  and  C_4 
REMARK    3  A    between atoms: C_4  and  C_5 
REMARK    4  A    between atoms: C_6  and  N_7 
REMARK    5  A    between atoms: N_7  and  C_8 
REMARK    6  A    between atoms: C_9  and  C_10 
REMARK    7  A    between atoms: C_13  and  C_14 
ROOT
HETATM    1  C   UNL     1      22.579  49.302  48.902  1.00  0.00     0.114 C 
HETATM    2  C   UNL     1      23.849  48.865  49.036  1.00  0.00     0.095 C 
HETATM    3  C   UNL     1      24.879  49.520  48.296  1.00  0.00     0.103 C 
HETATM    4  N   UNL     1      25.679  50.071  47.659  1.00  0.00    -0.191 NA
ENDROOT
BRANCH   2   5
HETATM    5  C   UNL     1      24.209  47.745  49.851  1.00  0.00     0.120 A 
HETATM    6  S   UNL     1      23.852  46.117  49.347  1.00  0.00    -0.078 SA
HETATM    7  C   UNL     1      24.675  45.499  50.709  1.00  0.00     0.084 A 
HETATM    8  C   UNL     1      25.208  46.531  51.452  1.00  0.00     0.075 A 
HETATM    9  N   UNL     1      24.929  47.799  50.960  1.00  0.00    -0.239 NA
BRANCH   8  10
HETATM   10  C   UNL     1      26.000  46.349  52.664  1.00  0.00    -0.007 A 
HETATM   11  C   UNL     1      26.774  45.195  52.878  1.00  0.00     0.017 A 
HETATM   12  C   UNL     1      27.525  45.051  54.049  1.00  0.00     0.043 A 
HETATM   13  C   UNL     1      27.508  46.059  55.004  1.00  0.00     0.116 A 
HETATM   14  F   UNL     1      28.227  45.917  56.124  1.00  0.00    -0.206 F 
HETATM   15  C   UNL     1      26.759  47.212  54.811  1.00  0.00     0.043 A 
HETATM   16  C   UNL     1      26.009  47.359  53.641  1.00  0.00     0.017 A 
ENDBRANCH   8  10
ENDBRANCH   2   5
BRANCH   1  17
HETATM   17  N   UNL     1      21.412  48.911  49.527  1.00  0.00    -0.358 N 
HETATM   18  H   UNL     1      21.388  47.913  49.766  1.00  0.00     0.166 HD
BRANCH  17  19
HETATM   19  C   UNL     1      20.188  49.527  49.479  1.00  0.00     0.091 A 
HETATM   20  C   UNL     1      19.050  49.026  48.844  1.00  0.00     0.080 A 
HETATM   21  C   UNL     1      17.948  49.968  48.905  1.00  0.00    -0.026 A 
HETATM   22  C   UNL     1      18.289  51.103  49.613  1.00  0.00    -0.008 A 
HETATM   23  C   UNL     1      16.573  49.808  48.313  1.00  0.00     0.041 C 
HETATM   24  S   UNL     1      19.875  51.058  50.199  1.00  0.00    -0.075 SA
HETATM   25  C   UNL     1      17.406  52.294  49.834  1.00  0.00     0.047 C 
HETATM   26  C   UNL     1      15.943  51.943  49.537  1.00  0.00     0.005 C 
HETATM   27  C   UNL     1      15.811  51.140  48.238  1.00  0.00     0.005 C 
BRANCH  20  28
HETATM   28  C   UNL     1      19.051  47.701  48.210  1.00  0.00     0.296 C 
HETATM   29  O   UNL     1      18.359  46.769  48.605  1.00  0.00    -0.259 OA
BRANCH  28  30
HETATM   30  O   UNL     1      19.875  47.631  47.125  1.00  0.00    -0.318 OA
BRANCH  30  31
HETATM   31  C   UNL     1      19.289  47.139  45.911  1.00  0.00     0.174 C 
HETATM   32  C   UNL     1      18.440  48.225  45.279  1.00  0.00     0.034 C 
ENDBRANCH  30  31
ENDBRANCH  28  30
ENDBRANCH  20  28
ENDBRANCH  17  19
ENDBRANCH   1  17
TORSDOF 7
ENDMDL
