MODEL 1
REMARK VINA RESULT:     -10.9      0.000      0.000
REMARK  5 active torsions:
REMARK  status: ('A' for Active; 'I' for Inactive)
REMARK    1  A    between atoms: C_4  and  C_5 
REMARK    2  A    between atoms: C_5  and  N_6 
REMARK    3  A    between atoms: C_8  and  C_9 
REMARK       I    between atoms: C_9  and  N_10 
REMARK    4  A    between atoms: N_10  and  N_11 
REMARK       I    between atoms: N_11  and  C_12 
REMARK    5  A    between atoms: C_12  and  C_13 
ROOT
HETATM    1  N   UNL     1      27.787  45.853  54.917  1.00  0.00    -0.229 N 
HETATM    2  N   UNL     1      28.161  44.914  53.981  1.00  0.00    -0.163 NA
HETATM    3  C   UNL     1      29.156  44.121  54.249  1.00  0.00     0.157 A 
HETATM    4  C   UNL     1      29.939  44.181  55.493  1.00  0.00     0.016 A 
HETATM    5  C   UNL     1      29.557  45.134  56.431  1.00  0.00     0.046 A 
HETATM    6  C   UNL     1      28.413  46.022  56.149  1.00  0.00     0.275 A 
HETATM    7  O   UNL     1      28.084  46.861  56.984  1.00  0.00    -0.266 OA
HETATM    8  C   UNL     1      31.043  43.358  55.750  1.00  0.00     0.015 A 
HETATM    9  C   UNL     1      31.748  43.488  56.951  1.00  0.00     0.001 A 
HETATM   10  C   UNL     1      31.360  44.439  57.892  1.00  0.00     0.001 A 
HETATM   11  C   UNL     1      30.265  45.263  57.634  1.00  0.00     0.018 A 
ENDROOT
BRANCH   3  12
HETATM   12  C   UNL     1      29.520  43.122  53.161  1.00  0.00     0.291 C 
HETATM   13  N   UNL     1      28.552  42.163  52.968  1.00  0.00    -0.262 N 
HETATM   14  H   UNL     1      27.793  42.030  53.639  1.00  0.00     0.190 HD
HETATM   15  O   UNL     1      30.569  43.205  52.539  1.00  0.00    -0.264 OA
BRANCH  13  16
HETATM   16  N   UNL     1      28.778  41.140  52.045  1.00  0.00    -0.263 N 
HETATM   17  C   UNL     1      28.121  41.210  50.832  1.00  0.00     0.270 C 
HETATM   18  O   UNL     1      27.369  42.138  50.542  1.00  0.00    -0.266 OA
HETATM   19  H   UNL     1      29.251  40.307  52.389  1.00  0.00     0.190 HD
BRANCH  17  20
HETATM   20  C   UNL     1      28.345  40.089  49.879  1.00  0.00     0.036 A 
HETATM   21  C   UNL     1      27.932  40.170  48.539  1.00  0.00     0.051 A 
HETATM   22  C   UNL     1      28.152  39.064  47.705  1.00  0.00     0.085 A 
HETATM   23  C   UNL     1      28.761  37.924  48.219  1.00  0.00     0.062 A 
HETATM   24  N   UNL     1      27.841  38.898  46.378  1.00  0.00    -0.242 NA
HETATM   25  N   UNL     1      28.809  37.059  47.154  1.00  0.00    -0.349 N 
HETATM   26  C   UNL     1      29.175  37.807  49.545  1.00  0.00     0.033 A 
HETATM   27  H   UNL     1      29.187  36.123  47.165  1.00  0.00     0.167 HD
HETATM   28  C   UNL     1      28.246  37.685  46.078  1.00  0.00     0.208 A 
HETATM   29  C   UNL     1      28.948  38.918  50.368  1.00  0.00     0.019 A 
ENDBRANCH  17  20
ENDBRANCH  13  16
ENDBRANCH   3  12
BRANCH   1  30
HETATM   30  C   UNL     1      26.630  46.679  54.584  1.00  0.00     0.193 C 
BRANCH  30  31
HETATM   31  C   UNL     1      26.014  46.298  53.257  1.00  0.00    -0.038 A 
HETATM   32  C   UNL     1      26.129  47.149  52.148  1.00  0.00     0.009 A 
HETATM   33  C   UNL     1      25.555  46.801  50.925  1.00  0.00     0.001 A 
HETATM   34  C   UNL     1      24.855  45.602  50.800  1.00  0.00     0.000 A 
HETATM   35  C   UNL     1      24.723  44.754  51.898  1.00  0.00     0.001 A 
HETATM   36  C   UNL     1      25.295  45.103  53.122  1.00  0.00     0.009 A 
ENDBRANCH  30  31
ENDBRANCH   1  30
TORSDOF 5
ENDMDL
MODEL 2
REMARK VINA RESULT:     -10.4      4.797      9.247
REMARK  5 active torsions:
REMARK  status: ('A' for Active; 'I' for Inactive)
REMARK    1  A    between atoms: C_4  and  C_5 
REMARK    2  A    between atoms: C_5  and  N_6 
REMARK    3  A    between atoms: C_8  and  C_9 
REMARK       I    between atoms: C_9  and  N_10 
REMARK    4  A    between atoms: N_10  and  N_11 
REMARK       I    between atoms: N_11  and  C_12 
REMARK    5  A    between atoms: C_12  and  C_13 
ROOT
HETATM    1  N   UNL     1      22.914  49.022  48.544  1.00  0.00    -0.229 N 
HETATM    2  N   UNL     1      24.019  48.782  49.332  1.00  0.00    -0.163 NA
HETATM    3  C   UNL     1      24.319  47.554  49.635  1.00  0.00     0.157 A 
HETATM    4  C   UNL     1      23.529  46.388  49.210  1.00  0.00     0.016 A 
HETATM    5  C   UNL     1      22.413  46.640  48.418  1.00  0.00     0.046 A 
HETATM    6  C   UNL     1      22.077  48.027  48.047  1.00  0.00     0.275 A 
HETATM    7  O   UNL     1      21.089  48.239  47.347  1.00  0.00    -0.266 OA
HETATM    8  C   UNL     1      23.831  45.073  49.585  1.00  0.00     0.015 A 
HETATM    9  C   UNL     1      23.019  44.019  49.154  1.00  0.00     0.001 A 
HETATM   10  C   UNL     1      21.905  44.272  48.356  1.00  0.00     0.001 A 
HETATM   11  C   UNL     1      21.601  45.582  47.987  1.00  0.00     0.018 A 
ENDROOT
BRANCH   3  12
HETATM   12  C   UNL     1      25.544  47.370  50.520  1.00  0.00     0.291 C 
HETATM   13  N   UNL     1      25.226  46.999  51.806  1.00  0.00    -0.262 N 
HETATM   14  H   UNL     1      24.268  47.062  52.158  1.00  0.00     0.190 HD
HETATM   15  O   UNL     1      26.675  47.535  50.089  1.00  0.00    -0.264 OA
BRANCH  13  16
HETATM   16  N   UNL     1      26.246  46.857  52.749  1.00  0.00    -0.263 N 
HETATM   17  C   UNL     1      26.643  45.577  53.081  1.00  0.00     0.270 C 
HETATM   18  O   UNL     1      26.142  44.578  52.569  1.00  0.00    -0.266 OA
HETATM   19  H   UNL     1      26.499  47.688  53.280  1.00  0.00     0.190 HD
BRANCH  17  20
HETATM   20  C   UNL     1      27.704  45.448  54.117  1.00  0.00     0.036 A 
HETATM   21  C   UNL     1      28.626  44.389  54.097  1.00  0.00     0.051 A 
HETATM   22  C   UNL     1      29.581  44.316  55.120  1.00  0.00     0.085 A 
HETATM   23  C   UNL     1      29.590  45.279  56.124  1.00  0.00     0.062 A 
HETATM   24  N   UNL     1      30.574  43.389  55.321  1.00  0.00    -0.242 NA
HETATM   25  N   UNL     1      30.626  44.903  56.942  1.00  0.00    -0.349 N 
HETATM   26  C   UNL     1      28.684  46.338  56.179  1.00  0.00     0.033 A 
HETATM   27  H   UNL     1      30.922  45.376  57.784  1.00  0.00     0.167 HD
HETATM   28  C   UNL     1      31.182  43.768  56.423  1.00  0.00     0.208 A 
HETATM   29  C   UNL     1      27.735  46.398  55.152  1.00  0.00     0.019 A 
ENDBRANCH  17  20
ENDBRANCH  13  16
ENDBRANCH   3  12
BRANCH   1  30
HETATM   30  C   UNL     1      22.656  50.416  48.193  1.00  0.00     0.193 C 
BRANCH  30  31
HETATM   31  C   UNL     1      21.356  50.925  48.772  1.00  0.00    -0.038 A 
HETATM   32  C   UNL     1      21.024  50.667  50.109  1.00  0.00     0.009 A 
HETATM   33  C   UNL     1      19.820  51.131  50.642  1.00  0.00     0.001 A 
HETATM   34  C   UNL     1      18.934  51.850  49.842  1.00  0.00     0.000 A 
HETATM   35  C   UNL     1      19.248  52.101  48.507  1.00  0.00     0.001 A 
HETATM   36  C   UNL     1      20.450  51.636  47.973  1.00  0.00     0.009 A 
ENDBRANCH  30  31
ENDBRANCH   1  30
TORSDOF 5
ENDMDL
MODEL 3
REMARK VINA RESULT:     -10.4      4.476      8.849
REMARK  5 active torsions:
REMARK  status: ('A' for Active; 'I' for Inactive)
REMARK    1  A    between atoms: C_4  and  C_5 
REMARK    2  A    between atoms: C_5  and  N_6 
REMARK    3  A    between atoms: C_8  and  C_9 
REMARK       I    between atoms: C_9  and  N_10 
REMARK    4  A    between atoms: N_10  and  N_11 
REMARK       I    between atoms: N_11  and  C_12 
REMARK    5  A    between atoms: C_12  and  C_13 
ROOT
HETATM    1  N   UNL     1      23.430  48.206  48.717  1.00  0.00    -0.229 N 
HETATM    2  N   UNL     1      24.273  48.123  49.804  1.00  0.00    -0.163 NA
HETATM    3  C   UNL     1      24.465  46.964  50.363  1.00  0.00     0.157 A 
HETATM    4  C   UNL     1      23.810  45.723  49.922  1.00  0.00     0.016 A 
HETATM    5  C   UNL     1      22.958  45.817  48.827  1.00  0.00     0.046 A 
HETATM    6  C   UNL     1      22.752  47.121  48.169  1.00  0.00     0.275 A 
HETATM    7  O   UNL     1      21.997  47.193  47.202  1.00  0.00    -0.266 OA
HETATM    8  C   UNL     1      23.982  44.489  50.563  1.00  0.00     0.015 A 
HETATM    9  C   UNL     1      23.309  43.357  50.094  1.00  0.00     0.001 A 
HETATM   10  C   UNL     1      22.461  43.452  48.993  1.00  0.00     0.001 A 
HETATM   11  C   UNL     1      22.284  44.681  48.358  1.00  0.00     0.018 A 
ENDROOT
BRANCH   3  12
HETATM   12  C   UNL     1      25.397  46.954  51.566  1.00  0.00     0.291 C 
HETATM   13  N   UNL     1      26.456  46.089  51.418  1.00  0.00    -0.262 N 
HETATM   14  H   UNL     1      26.471  45.387  50.676  1.00  0.00     0.190 HD
HETATM   15  O   UNL     1      25.193  47.665  52.539  1.00  0.00    -0.264 OA
BRANCH  13  16
HETATM   16  N   UNL     1      27.359  45.927  52.472  1.00  0.00    -0.263 N 
HETATM   17  C   UNL     1      27.606  44.643  52.915  1.00  0.00     0.270 C 
HETATM   18  O   UNL     1      27.075  43.656  52.408  1.00  0.00    -0.266 OA
HETATM   19  H   UNL     1      27.626  46.767  52.980  1.00  0.00     0.190 HD
BRANCH  17  20
HETATM   20  C   UNL     1      28.540  44.495  54.065  1.00  0.00     0.036 A 
HETATM   21  C   UNL     1      28.542  45.408  55.133  1.00  0.00     0.051 A 
HETATM   22  C   UNL     1      29.469  45.221  56.167  1.00  0.00     0.085 A 
HETATM   23  C   UNL     1      30.358  44.153  56.112  1.00  0.00     0.062 A 
HETATM   24  N   UNL     1      29.670  45.967  57.303  1.00  0.00    -0.242 NA
HETATM   25  N   UNL     1      31.106  44.277  57.256  1.00  0.00    -0.349 N 
HETATM   26  C   UNL     1      30.389  43.234  55.062  1.00  0.00     0.033 A 
HETATM   27  H   UNL     1      31.860  43.669  57.543  1.00  0.00     0.167 HD
HETATM   28  C   UNL     1      30.659  45.376  57.934  1.00  0.00     0.208 A 
HETATM   29  C   UNL     1      29.459  43.433  54.035  1.00  0.00     0.019 A 
ENDBRANCH  17  20
ENDBRANCH  13  16
ENDBRANCH   3  12
BRANCH   1  30
HETATM   30  C   UNL     1      23.294  49.522  48.099  1.00  0.00     0.193 C 
BRANCH  30  31
HETATM   31  C   UNL     1      22.041  50.241  48.545  1.00  0.00    -0.038 A 
HETATM   32  C   UNL     1      21.847  50.561  49.896  1.00  0.00     0.009 A 
HETATM   33  C   UNL     1      20.687  51.218  50.309  1.00  0.00     0.001 A 
HETATM   34  C   UNL     1      19.708  51.555  49.376  1.00  0.00     0.000 A 
HETATM   35  C   UNL     1      19.884  51.230  48.032  1.00  0.00     0.001 A 
HETATM   36  C   UNL     1      21.042  50.571  47.619  1.00  0.00     0.009 A 
ENDBRANCH  30  31
ENDBRANCH   1  30
TORSDOF 5
ENDMDL
MODEL 4
REMARK VINA RESULT:     -10.0      4.669      9.016
REMARK  5 active torsions:
REMARK  status: ('A' for Active; 'I' for Inactive)
REMARK    1  A    between atoms: C_4  and  C_5 
REMARK    2  A    between atoms: C_5  and  N_6 
REMARK    3  A    between atoms: C_8  and  C_9 
REMARK       I    between atoms: C_9  and  N_10 
REMARK    4  A    between atoms: N_10  and  N_11 
REMARK       I    between atoms: N_11  and  C_12 
REMARK    5  A    between atoms: C_12  and  C_13 
ROOT
HETATM    1  N   UNL     1      26.751  43.119  52.961  1.00  0.00    -0.229 N 
HETATM    2  N   UNL     1      25.686  43.795  52.404  1.00  0.00    -0.163 NA
HETATM    3  C   UNL     1      25.346  43.529  51.177  1.00  0.00     0.157 A 
HETATM    4  C   UNL     1      26.051  42.561  50.323  1.00  0.00     0.016 A 
HETATM    5  C   UNL     1      27.126  41.886  50.892  1.00  0.00     0.046 A 
HETATM    6  C   UNL     1      27.506  42.161  52.290  1.00  0.00     0.275 A 
HETATM    7  O   UNL     1      28.457  41.560  52.783  1.00  0.00    -0.266 OA
HETATM    8  C   UNL     1      25.709  42.319  48.986  1.00  0.00     0.015 A 
HETATM    9  C   UNL     1      26.440  41.395  48.233  1.00  0.00     0.001 A 
HETATM   10  C   UNL     1      27.513  40.716  48.806  1.00  0.00     0.001 A 
HETATM   11  C   UNL     1      27.858  40.961  50.136  1.00  0.00     0.018 A 
ENDROOT
BRANCH   3  12
HETATM   12  C   UNL     1      24.171  44.325  50.628  1.00  0.00     0.291 C 
HETATM   13  N   UNL     1      24.540  45.554  50.132  1.00  0.00    -0.262 N 
HETATM   14  H   UNL     1      25.462  45.951  50.324  1.00  0.00     0.190 HD
HETATM   15  O   UNL     1      23.034  43.877  50.637  1.00  0.00    -0.264 OA
BRANCH  13  16
HETATM   16  N   UNL     1      23.556  46.422  49.655  1.00  0.00    -0.263 N 
HETATM   17  C   UNL     1      23.822  47.776  49.686  1.00  0.00     0.270 C 
HETATM   18  O   UNL     1      24.887  48.230  50.101  1.00  0.00    -0.266 OA
HETATM   19  H   UNL     1      22.631  46.026  49.499  1.00  0.00     0.190 HD
BRANCH  17  20
HETATM   20  C   UNL     1      22.744  48.686  49.210  1.00  0.00     0.036 A 
HETATM   21  C   UNL     1      21.469  48.202  48.872  1.00  0.00     0.051 A 
HETATM   22  C   UNL     1      20.513  49.114  48.404  1.00  0.00     0.085 A 
HETATM   23  C   UNL     1      20.845  50.459  48.281  1.00  0.00     0.062 A 
HETATM   24  N   UNL     1      19.216  48.892  48.012  1.00  0.00    -0.242 NA
HETATM   25  N   UNL     1      19.701  51.046  47.800  1.00  0.00    -0.349 N 
HETATM   26  C   UNL     1      22.103  50.970  48.598  1.00  0.00     0.033 A 
HETATM   27  H   UNL     1      19.580  52.025  47.584  1.00  0.00     0.167 HD
HETATM   28  C   UNL     1      18.757  50.069  47.654  1.00  0.00     0.208 A 
HETATM   29  C   UNL     1      23.050  50.049  49.063  1.00  0.00     0.019 A 
ENDBRANCH  17  20
ENDBRANCH  13  16
ENDBRANCH   3  12
BRANCH   1  30
HETATM   30  C   UNL     1      27.054  43.421  54.357  1.00  0.00     0.193 C 
BRANCH  30  31
HETATM   31  C   UNL     1      27.325  44.890  54.583  1.00  0.00    -0.038 A 
HETATM   32  C   UNL     1      26.302  45.836  54.424  1.00  0.00     0.009 A 
HETATM   33  C   UNL     1      26.554  47.194  54.625  1.00  0.00     0.001 A 
HETATM   34  C   UNL     1      27.832  47.620  54.980  1.00  0.00     0.000 A 
HETATM   35  C   UNL     1      28.861  46.691  55.129  1.00  0.00     0.001 A 
HETATM   36  C   UNL     1      28.610  45.333  54.926  1.00  0.00     0.009 A 
ENDBRANCH  30  31
ENDBRANCH   1  30
TORSDOF 5
ENDMDL
MODEL 5
REMARK VINA RESULT:      -9.9      3.975      8.512
REMARK  5 active torsions:
REMARK  status: ('A' for Active; 'I' for Inactive)
REMARK    1  A    between atoms: C_4  and  C_5 
REMARK    2  A    between atoms: C_5  and  N_6 
REMARK    3  A    between atoms: C_8  and  C_9 
REMARK       I    between atoms: C_9  and  N_10 
REMARK    4  A    between atoms: N_10  and  N_11 
REMARK       I    between atoms: N_11  and  C_12 
REMARK    5  A    between atoms: C_12  and  C_13 
ROOT
HETATM    1  N   UNL     1      27.166  41.177  51.335  1.00  0.00    -0.229 N 
HETATM    2  N   UNL     1      26.240  42.174  51.114  1.00  0.00    -0.163 NA
HETATM    3  C   UNL     1      26.355  43.294  51.766  1.00  0.00     0.157 A 
HETATM    4  C   UNL     1      27.408  43.560  52.758  1.00  0.00     0.016 A 
HETATM    5  C   UNL     1      28.336  42.548  52.977  1.00  0.00     0.046 A 
HETATM    6  C   UNL     1      28.231  41.283  52.226  1.00  0.00     0.275 A 
HETATM    7  O   UNL     1      29.056  40.394  52.427  1.00  0.00    -0.266 OA
HETATM    8  C   UNL     1      27.493  44.750  53.493  1.00  0.00     0.015 A 
HETATM    9  C   UNL     1      28.514  44.920  54.433  1.00  0.00     0.001 A 
HETATM   10  C   UNL     1      29.446  43.907  54.647  1.00  0.00     0.001 A 
HETATM   11  C   UNL     1      29.359  42.720  53.920  1.00  0.00     0.018 A 
ENDROOT
BRANCH   3  12
HETATM   12  C   UNL     1      25.287  44.340  51.480  1.00  0.00     0.291 C 
HETATM   13  N   UNL     1      25.534  45.059  50.334  1.00  0.00    -0.262 N 
HETATM   14  H   UNL     1      26.444  45.027  49.870  1.00  0.00     0.190 HD
HETATM   15  O   UNL     1      24.321  44.486  52.214  1.00  0.00    -0.264 OA
BRANCH  13  16
HETATM   16  N   UNL     1      24.672  46.100  49.980  1.00  0.00    -0.263 N 
HETATM   17  C   UNL     1      25.234  47.294  49.577  1.00  0.00     0.270 C 
HETATM   18  O   UNL     1      26.451  47.459  49.507  1.00  0.00    -0.266 OA
HETATM   19  H   UNL     1      23.691  45.987  50.230  1.00  0.00     0.190 HD
BRANCH  17  20
HETATM   20  C   UNL     1      24.298  48.402  49.244  1.00  0.00     0.036 A 
HETATM   21  C   UNL     1      22.925  48.314  49.526  1.00  0.00     0.051 A 
HETATM   22  C   UNL     1      22.099  49.386  49.158  1.00  0.00     0.085 A 
HETATM   23  C   UNL     1      22.649  50.494  48.525  1.00  0.00     0.062 A 
HETATM   24  N   UNL     1      20.744  49.536  49.320  1.00  0.00    -0.242 NA
HETATM   25  N   UNL     1      21.578  51.325  48.308  1.00  0.00    -0.349 N 
HETATM   26  C   UNL     1      24.006  50.609  48.222  1.00  0.00     0.033 A 
HETATM   27  H   UNL     1      21.607  52.229  47.859  1.00  0.00     0.167 HD
HETATM   28  C   UNL     1      20.462  50.709  48.799  1.00  0.00     0.208 A 
HETATM   29  C   UNL     1      24.820  49.532  48.593  1.00  0.00     0.019 A 
ENDBRANCH  17  20
ENDBRANCH  13  16
ENDBRANCH   3  12
BRANCH   1  30
HETATM   30  C   UNL     1      27.018  39.964  50.537  1.00  0.00     0.193 C 
BRANCH  30  31
HETATM   31  C   UNL     1      27.055  40.243  49.052  1.00  0.00    -0.038 A 
HETATM   32  C   UNL     1      25.888  40.145  48.280  1.00  0.00     0.009 A 
HETATM   33  C   UNL     1      25.924  40.397  46.908  1.00  0.00     0.001 A 
HETATM   34  C   UNL     1      27.126  40.742  46.293  1.00  0.00     0.000 A 
HETATM   35  C   UNL     1      28.295  40.830  47.048  1.00  0.00     0.001 A 
HETATM   36  C   UNL     1      28.261  40.577  48.420  1.00  0.00     0.009 A 
ENDBRANCH  30  31
ENDBRANCH   1  30
TORSDOF 5
ENDMDL
MODEL 6
REMARK VINA RESULT:      -9.6      2.653      9.372
REMARK  5 active torsions:
REMARK  status: ('A' for Active; 'I' for Inactive)
REMARK    1  A    between atoms: C_4  and  C_5 
REMARK    2  A    between atoms: C_5  and  N_6 
REMARK    3  A    between atoms: C_8  and  C_9 
REMARK       I    between atoms: C_9  and  N_10 
REMARK    4  A    between atoms: N_10  and  N_11 
REMARK       I    between atoms: N_11  and  C_12 
REMARK    5  A    between atoms: C_12  and  C_13 
ROOT
HETATM    1  N   UNL     1      26.724  40.926  47.738  1.00  0.00    -0.229 N 
HETATM    2  N   UNL     1      27.248  41.746  48.713  1.00  0.00    -0.163 NA
HETATM    3  C   UNL     1      26.490  42.667  49.233  1.00  0.00     0.157 A 
HETATM    4  C   UNL     1      25.099  42.912  48.823  1.00  0.00     0.016 A 
HETATM    5  C   UNL     1      24.580  42.082  47.835  1.00  0.00     0.046 A 
HETATM    6  C   UNL     1      25.421  41.018  47.256  1.00  0.00     0.275 A 
HETATM    7  O   UNL     1      24.953  40.290  46.384  1.00  0.00    -0.266 OA
HETATM    8  C   UNL     1      24.308  43.940  49.352  1.00  0.00     0.015 A 
HETATM    9  C   UNL     1      22.999  44.120  48.895  1.00  0.00     0.001 A 
HETATM   10  C   UNL     1      22.478  43.283  47.911  1.00  0.00     0.001 A 
HETATM   11  C   UNL     1      23.267  42.264  47.379  1.00  0.00     0.018 A 
ENDROOT
BRANCH   3  12
HETATM   12  C   UNL     1      27.144  43.542  50.293  1.00  0.00     0.291 C 
HETATM   13  N   UNL     1      27.225  42.928  51.521  1.00  0.00    -0.262 N 
HETATM   14  H   UNL     1      26.703  42.073  51.725  1.00  0.00     0.190 HD
HETATM   15  O   UNL     1      27.549  44.666  50.035  1.00  0.00    -0.264 OA
BRANCH  13  16
HETATM   16  N   UNL     1      27.743  43.637  52.607  1.00  0.00    -0.263 N 
HETATM   17  C   UNL     1      28.796  43.074  53.301  1.00  0.00     0.270 C 
HETATM   18  O   UNL     1      29.291  41.994  52.985  1.00  0.00    -0.266 OA
HETATM   19  H   UNL     1      27.193  44.423  52.947  1.00  0.00     0.190 HD
BRANCH  17  20
HETATM   20  C   UNL     1      29.307  43.828  54.479  1.00  0.00     0.036 A 
HETATM   21  C   UNL     1      30.288  43.289  55.327  1.00  0.00     0.051 A 
HETATM   22  C   UNL     1      30.701  44.045  56.433  1.00  0.00     0.085 A 
HETATM   23  C   UNL     1      30.133  45.292  56.666  1.00  0.00     0.062 A 
HETATM   24  N   UNL     1      31.629  43.740  57.398  1.00  0.00    -0.242 NA
HETATM   25  N   UNL     1      30.751  45.736  57.809  1.00  0.00    -0.349 N 
HETATM   26  C   UNL     1      29.151  45.853  55.850  1.00  0.00     0.033 A 
HETATM   27  H   UNL     1      30.579  46.614  58.276  1.00  0.00     0.167 HD
HETATM   28  C   UNL     1      31.635  44.774  58.209  1.00  0.00     0.208 A 
HETATM   29  C   UNL     1      28.746  45.087  54.749  1.00  0.00     0.019 A 
ENDBRANCH  17  20
ENDBRANCH  13  16
ENDBRANCH   3  12
BRANCH   1  30
HETATM   30  C   UNL     1      27.604  39.877  47.229  1.00  0.00     0.193 C 
BRANCH  30  31
HETATM   31  C   UNL     1      28.019  38.902  48.306  1.00  0.00    -0.038 A 
HETATM   32  C   UNL     1      29.333  38.901  48.796  1.00  0.00     0.009 A 
HETATM   33  C   UNL     1      29.720  37.996  49.786  1.00  0.00     0.001 A 
HETATM   34  C   UNL     1      28.799  37.080  50.291  1.00  0.00     0.000 A 
HETATM   35  C   UNL     1      27.493  37.063  49.802  1.00  0.00     0.001 A 
HETATM   36  C   UNL     1      27.106  37.966  48.811  1.00  0.00     0.009 A 
ENDBRANCH  30  31
ENDBRANCH   1  30
TORSDOF 5
ENDMDL
MODEL 7
REMARK VINA RESULT:      -9.4      5.028      9.809
REMARK  5 active torsions:
REMARK  status: ('A' for Active; 'I' for Inactive)
REMARK    1  A    between atoms: C_4  and  C_5 
REMARK    2  A    between atoms: C_5  and  N_6 
REMARK    3  A    between atoms: C_8  and  C_9 
REMARK       I    between atoms: C_9  and  N_10 
REMARK    4  A    between atoms: N_10  and  N_11 
REMARK       I    between atoms: N_11  and  C_12 
REMARK    5  A    between atoms: C_12  and  C_13 
ROOT
HETATM    1  N   UNL     1      21.523  46.226  48.111  1.00  0.00    -0.229 N 
HETATM    2  N   UNL     1      22.697  46.357  48.820  1.00  0.00    -0.163 NA
HETATM    3  C   UNL     1      23.073  47.544  49.200  1.00  0.00     0.157 A 
HETATM    4  C   UNL     1      22.330  48.775  48.892  1.00  0.00     0.016 A 
HETATM    5  C   UNL     1      21.148  48.634  48.173  1.00  0.00     0.046 A 
HETATM    6  C   UNL     1      20.699  47.292  47.759  1.00  0.00     0.275 A 
HETATM    7  O   UNL     1      19.653  47.178  47.124  1.00  0.00    -0.266 OA
HETATM    8  C   UNL     1      22.770  50.054  49.260  1.00  0.00     0.015 A 
HETATM    9  C   UNL     1      22.016  51.179  48.914  1.00  0.00     0.001 A 
HETATM   10  C   UNL     1      20.829  51.035  48.199  1.00  0.00     0.001 A 
HETATM   11  C   UNL     1      20.393  49.763  47.827  1.00  0.00     0.018 A 
ENDROOT
BRANCH   3  12
HETATM   12  C   UNL     1      24.387  47.610  49.965  1.00  0.00     0.291 C 
HETATM   13  N   UNL     1      24.475  46.666  50.962  1.00  0.00    -0.262 N 
HETATM   14  H   UNL     1      23.655  46.142  51.274  1.00  0.00     0.190 HD
HETATM   15  O   UNL     1      25.251  48.427  49.684  1.00  0.00    -0.264 OA
BRANCH  13  16
HETATM   16  N   UNL     1      25.599  46.650  51.791  1.00  0.00    -0.263 N 
HETATM   17  C   UNL     1      25.656  45.690  52.780  1.00  0.00     0.270 C 
HETATM   18  O   UNL     1      24.769  44.853  52.939  1.00  0.00    -0.266 OA
HETATM   19  H   UNL     1      26.211  47.463  51.749  1.00  0.00     0.190 HD
BRANCH  17  20
HETATM   20  C   UNL     1      26.844  45.716  53.678  1.00  0.00     0.036 A 
HETATM   21  C   UNL     1      27.737  44.634  53.746  1.00  0.00     0.051 A 
HETATM   22  C   UNL     1      28.818  44.718  54.635  1.00  0.00     0.085 A 
HETATM   23  C   UNL     1      28.977  45.853  55.422  1.00  0.00     0.062 A 
HETATM   24  N   UNL     1      29.814  43.806  54.884  1.00  0.00    -0.242 NA
HETATM   25  N   UNL     1      30.106  45.597  56.160  1.00  0.00    -0.349 N 
HETATM   26  C   UNL     1      28.103  46.940  55.386  1.00  0.00     0.033 A 
HETATM   27  H   UNL     1      30.518  46.209  56.849  1.00  0.00     0.167 HD
HETATM   28  C   UNL     1      30.569  44.362  55.804  1.00  0.00     0.208 A 
HETATM   29  C   UNL     1      27.027  46.843  54.496  1.00  0.00     0.019 A 
ENDBRANCH  17  20
ENDBRANCH  13  16
ENDBRANCH   3  12
BRANCH   1  30
HETATM   30  C   UNL     1      21.125  44.866  47.758  1.00  0.00     0.193 C 
BRANCH  30  31
HETATM   31  C   UNL     1      22.000  44.273  46.677  1.00  0.00    -0.038 A 
HETATM   32  C   UNL     1      22.301  45.010  45.522  1.00  0.00     0.009 A 
HETATM   33  C   UNL     1      23.102  44.460  44.520  1.00  0.00     0.001 A 
HETATM   34  C   UNL     1      23.604  43.167  44.660  1.00  0.00     0.000 A 
HETATM   35  C   UNL     1      23.301  42.421  45.798  1.00  0.00     0.001 A 
HETATM   36  C   UNL     1      22.498  42.969  46.799  1.00  0.00     0.009 A 
ENDBRANCH  30  31
ENDBRANCH   1  30
TORSDOF 5
ENDMDL
MODEL 8
REMARK VINA RESULT:      -9.3      4.713      9.399
REMARK  5 active torsions:
REMARK  status: ('A' for Active; 'I' for Inactive)
REMARK    1  A    between atoms: C_4  and  C_5 
REMARK    2  A    between atoms: C_5  and  N_6 
REMARK    3  A    between atoms: C_8  and  C_9 
REMARK       I    between atoms: C_9  and  N_10 
REMARK    4  A    between atoms: N_10  and  N_11 
REMARK       I    between atoms: N_11  and  C_12 
REMARK    5  A    between atoms: C_12  and  C_13 
ROOT
HETATM    1  N   UNL     1      21.983  47.041  47.836  1.00  0.00    -0.229 N 
HETATM    2  N   UNL     1      23.091  47.088  48.654  1.00  0.00    -0.163 NA
HETATM    3  C   UNL     1      23.748  45.989  48.886  1.00  0.00     0.157 A 
HETATM    4  C   UNL     1      23.363  44.675  48.347  1.00  0.00     0.016 A 
HETATM    5  C   UNL     1      22.241  44.637  47.526  1.00  0.00     0.046 A 
HETATM    6  C   UNL     1      21.503  45.881  47.236  1.00  0.00     0.275 A 
HETATM    7  O   UNL     1      20.513  45.836  46.508  1.00  0.00    -0.266 OA
HETATM    8  C   UNL     1      24.046  43.489  48.645  1.00  0.00     0.015 A 
HETATM    9  C   UNL     1      23.606  42.275  48.108  1.00  0.00     0.001 A 
HETATM   10  C   UNL     1      22.486  42.239  47.280  1.00  0.00     0.001 A 
HETATM   11  C   UNL     1      21.802  43.419  46.988  1.00  0.00     0.018 A 
ENDROOT
BRANCH   3  12
HETATM   12  C   UNL     1      24.950  46.117  49.810  1.00  0.00     0.291 C 
HETATM   13  N   UNL     1      24.602  46.170  51.140  1.00  0.00    -0.262 N 
HETATM   14  H   UNL     1      23.636  46.326  51.432  1.00  0.00     0.190 HD
HETATM   15  O   UNL     1      26.092  46.156  49.374  1.00  0.00    -0.264 OA
BRANCH  13  16
HETATM   16  N   UNL     1      25.600  46.354  52.100  1.00  0.00    -0.263 N 
HETATM   17  C   UNL     1      26.067  45.238  52.764  1.00  0.00     0.270 C 
HETATM   18  O   UNL     1      25.650  44.106  52.527  1.00  0.00    -0.266 OA
HETATM   19  H   UNL     1      25.780  47.311  52.397  1.00  0.00     0.190 HD
BRANCH  17  20
HETATM   20  C   UNL     1      27.101  45.461  53.812  1.00  0.00     0.036 A 
HETATM   21  C   UNL     1      28.149  44.548  54.017  1.00  0.00     0.051 A 
HETATM   22  C   UNL     1      29.070  44.809  55.041  1.00  0.00     0.085 A 
HETATM   23  C   UNL     1      28.925  45.949  55.823  1.00  0.00     0.062 A 
HETATM   24  N   UNL     1      30.163  44.079  55.436  1.00  0.00    -0.242 NA
HETATM   25  N   UNL     1      29.972  45.885  56.709  1.00  0.00    -0.349 N 
HETATM   26  C   UNL     1      27.892  46.871  55.652  1.00  0.00     0.033 A 
HETATM   27  H   UNL     1      30.177  46.554  57.437  1.00  0.00     0.167 HD
HETATM   28  C   UNL     1      30.682  44.750  56.439  1.00  0.00     0.208 A 
HETATM   29  C   UNL     1      26.978  46.597  54.628  1.00  0.00     0.019 A 
ENDBRANCH  17  20
ENDBRANCH  13  16
ENDBRANCH   3  12
BRANCH   1  30
HETATM   30  C   UNL     1      21.318  48.313  47.569  1.00  0.00     0.193 C 
BRANCH  30  31
HETATM   31  C   UNL     1      20.453  48.763  48.724  1.00  0.00    -0.038 A 
HETATM   32  C   UNL     1      19.523  47.886  49.301  1.00  0.00     0.009 A 
HETATM   33  C   UNL     1      18.719  48.303  50.363  1.00  0.00     0.001 A 
HETATM   34  C   UNL     1      18.831  49.603  50.853  1.00  0.00     0.000 A 
HETATM   35  C   UNL     1      19.742  50.488  50.279  1.00  0.00     0.001 A 
HETATM   36  C   UNL     1      20.545  50.072  49.216  1.00  0.00     0.009 A 
ENDBRANCH  30  31
ENDBRANCH   1  30
TORSDOF 5
ENDMDL
MODEL 9
REMARK VINA RESULT:      -9.3      6.681     11.311
REMARK  5 active torsions:
REMARK  status: ('A' for Active; 'I' for Inactive)
REMARK    1  A    between atoms: C_4  and  C_5 
REMARK    2  A    between atoms: C_5  and  N_6 
REMARK    3  A    between atoms: C_8  and  C_9 
REMARK       I    between atoms: C_9  and  N_10 
REMARK    4  A    between atoms: N_10  and  N_11 
REMARK       I    between atoms: N_11  and  C_12 
REMARK    5  A    between atoms: C_12  and  C_13 
ROOT
HETATM    1  N   UNL     1      25.628  44.824  49.452  1.00  0.00    -0.229 N 
HETATM    2  N   UNL     1      24.626  45.691  49.075  1.00  0.00    -0.163 NA
HETATM    3  C   UNL     1      23.565  45.211  48.493  1.00  0.00     0.157 A 
HETATM    4  C   UNL     1      23.376  43.786  48.183  1.00  0.00     0.016 A 
HETATM    5  C   UNL     1      24.394  42.919  48.564  1.00  0.00     0.046 A 
HETATM    6  C   UNL     1      25.590  43.448  49.246  1.00  0.00     0.275 A 
HETATM    7  O   UNL     1      26.483  42.673  49.579  1.00  0.00    -0.266 OA
HETATM    8  C   UNL     1      22.254  43.286  47.509  1.00  0.00     0.015 A 
HETATM    9  C   UNL     1      22.155  41.918  47.234  1.00  0.00     0.001 A 
HETATM   10  C   UNL     1      23.173  41.050  47.622  1.00  0.00     0.001 A 
HETATM   11  C   UNL     1      24.293  41.548  48.287  1.00  0.00     0.018 A 
ENDROOT
BRANCH   3  12
HETATM   12  C   UNL     1      22.510  46.232  48.093  1.00  0.00     0.291 C 
HETATM   13  N   UNL     1      21.898  46.824  49.174  1.00  0.00    -0.262 N 
HETATM   14  H   UNL     1      22.002  46.446  50.118  1.00  0.00     0.190 HD
HETATM   15  O   UNL     1      22.269  46.477  46.920  1.00  0.00    -0.264 OA
BRANCH  13  16
HETATM   16  N   UNL     1      20.861  47.735  48.958  1.00  0.00    -0.263 N 
HETATM   17  C   UNL     1      21.150  49.079  49.077  1.00  0.00     0.270 C 
HETATM   18  O   UNL     1      22.277  49.490  49.347  1.00  0.00    -0.266 OA
HETATM   19  H   UNL     1      19.917  47.355  48.924  1.00  0.00     0.190 HD
BRANCH  17  20
HETATM   20  C   UNL     1      20.022  50.031  48.883  1.00  0.00     0.036 A 
HETATM   21  C   UNL     1      18.690  49.590  48.822  1.00  0.00     0.051 A 
HETATM   22  C   UNL     1      17.682  50.541  48.610  1.00  0.00     0.085 A 
HETATM   23  C   UNL     1      18.020  51.881  48.459  1.00  0.00     0.062 A 
HETATM   24  N   UNL     1      16.324  50.363  48.510  1.00  0.00    -0.242 NA
HETATM   25  N   UNL     1      16.816  52.512  48.265  1.00  0.00    -0.349 N 
HETATM   26  C   UNL     1      19.332  52.351  48.505  1.00  0.00     0.033 A 
HETATM   27  H   UNL     1      16.680  53.501  48.113  1.00  0.00     0.167 HD
HETATM   28  C   UNL     1      15.833  51.563  48.302  1.00  0.00     0.208 A 
HETATM   29  C   UNL     1      20.329  51.392  48.716  1.00  0.00     0.019 A 
ENDBRANCH  17  20
ENDBRANCH  13  16
ENDBRANCH   3  12
BRANCH   1  30
HETATM   30  C   UNL     1      26.769  45.413  50.147  1.00  0.00     0.193 C 
BRANCH  30  31
HETATM   31  C   UNL     1      26.479  45.679  51.607  1.00  0.00    -0.038 A 
HETATM   32  C   UNL     1      26.611  44.656  52.557  1.00  0.00     0.009 A 
HETATM   33  C   UNL     1      26.336  44.899  53.903  1.00  0.00     0.001 A 
HETATM   34  C   UNL     1      25.920  46.165  54.312  1.00  0.00     0.000 A 
HETATM   35  C   UNL     1      25.772  47.187  53.374  1.00  0.00     0.001 A 
HETATM   36  C   UNL     1      26.045  46.944  52.028  1.00  0.00     0.009 A 
ENDBRANCH  30  31
ENDBRANCH   1  30
TORSDOF 5
ENDMDL
MODEL 10
REMARK VINA RESULT:      -9.3      6.272     10.596
REMARK  5 active torsions:
REMARK  status: ('A' for Active; 'I' for Inactive)
REMARK    1  A    between atoms: C_4  and  C_5 
REMARK    2  A    between atoms: C_5  and  N_6 
REMARK    3  A    between atoms: C_8  and  C_9 
REMARK       I    between atoms: C_9  and  N_10 
REMARK    4  A    between atoms: N_10  and  N_11 
REMARK       I    between atoms: N_11  and  C_12 
REMARK    5  A    between atoms: C_12  and  C_13 
ROOT
HETATM    1  N   UNL     1      19.463  47.152  47.048  1.00  0.00    -0.229 N 
HETATM    2  N   UNL     1      20.245  46.608  48.044  1.00  0.00    -0.163 NA
HETATM    3  C   UNL     1      21.266  45.875  47.710  1.00  0.00     0.157 A 
HETATM    4  C   UNL     1      21.629  45.560  46.320  1.00  0.00     0.016 A 
HETATM    5  C   UNL     1      20.833  46.110  45.322  1.00  0.00     0.046 A 
HETATM    6  C   UNL     1      19.687  46.964  45.687  1.00  0.00     0.275 A 
HETATM    7  O   UNL     1      18.989  47.445  44.797  1.00  0.00    -0.266 OA
HETATM    8  C   UNL     1      22.700  44.726  45.972  1.00  0.00     0.015 A 
HETATM    9  C   UNL     1      22.971  44.459  44.626  1.00  0.00     0.001 A 
HETATM   10  C   UNL     1      22.175  45.017  43.627  1.00  0.00     0.001 A 
HETATM   11  C   UNL     1      21.105  45.842  43.973  1.00  0.00     0.018 A 
ENDROOT
BRANCH   3  12
HETATM   12  C   UNL     1      22.073  45.297  48.864  1.00  0.00     0.291 C 
HETATM   13  N   UNL     1      23.045  46.156  49.322  1.00  0.00    -0.262 N 
HETATM   14  H   UNL     1      23.318  46.985  48.790  1.00  0.00     0.190 HD
HETATM   15  O   UNL     1      21.841  44.184  49.314  1.00  0.00    -0.264 OA
BRANCH  13  16
HETATM   16  N   UNL     1      23.907  45.734  50.337  1.00  0.00    -0.263 N 
HETATM   17  C   UNL     1      24.715  46.682  50.931  1.00  0.00     0.270 C 
HETATM   18  O   UNL     1      24.686  47.869  50.609  1.00  0.00    -0.266 OA
HETATM   19  H   UNL     1      24.036  44.730  50.441  1.00  0.00     0.190 HD
BRANCH  17  20
HETATM   20  C   UNL     1      25.654  46.205  51.983  1.00  0.00     0.036 A 
HETATM   21  C   UNL     1      26.198  44.910  51.950  1.00  0.00     0.051 A 
HETATM   22  C   UNL     1      27.055  44.520  52.989  1.00  0.00     0.085 A 
HETATM   23  C   UNL     1      27.338  45.410  54.019  1.00  0.00     0.062 A 
HETATM   24  N   UNL     1      27.701  43.325  53.182  1.00  0.00    -0.242 NA
HETATM   25  N   UNL     1      28.182  44.711  54.846  1.00  0.00    -0.349 N 
HETATM   26  C   UNL     1      26.808  46.699  54.087  1.00  0.00     0.033 A 
HETATM   27  H   UNL     1      28.588  45.050  55.706  1.00  0.00     0.167 HD
HETATM   28  C   UNL     1      28.368  43.470  54.305  1.00  0.00     0.208 A 
HETATM   29  C   UNL     1      25.953  47.075  53.044  1.00  0.00     0.019 A 
ENDBRANCH  17  20
ENDBRANCH  13  16
ENDBRANCH   3  12
BRANCH   1  30
HETATM   30  C   UNL     1      18.363  48.009  47.481  1.00  0.00     0.193 C 
BRANCH  30  31
HETATM   31  C   UNL     1      18.848  49.257  48.183  1.00  0.00    -0.038 A 
HETATM   32  C   UNL     1      18.418  49.553  49.485  1.00  0.00     0.009 A 
HETATM   33  C   UNL     1      18.861  50.708  50.131  1.00  0.00     0.001 A 
HETATM   34  C   UNL     1      19.730  51.582  49.480  1.00  0.00     0.000 A 
HETATM   35  C   UNL     1      20.154  51.304  48.181  1.00  0.00     0.001 A 
HETATM   36  C   UNL     1      19.711  50.150  47.534  1.00  0.00     0.009 A 
ENDBRANCH  30  31
ENDBRANCH   1  30
TORSDOF 5
ENDMDL
