MODEL 1
REMARK VINA RESULT:      -7.8      0.000      0.000
REMARK  8 active torsions:
REMARK  status: ('A' for Active; 'I' for Inactive)
REMARK    1  A    between atoms: C_4  and  C_5 
REMARK    2  A    between atoms: C_5  and  N_6 
REMARK    3  A    between atoms: N_6  and  C_9 
REMARK    4  A    between atoms: C_9  and  C_10 
REMARK    5  A    between atoms: C_10  and  C_11 
REMARK    6  A    between atoms: C_11  and  N_12 
REMARK       I    between atoms: N_12  and  C_13 
REMARK    7  A    between atoms: C_13  and  C_14 
REMARK    8  A    between atoms: C_16  and  O_17 
ROOT
HETATM    1  C   UNL     1      26.239  47.075  52.074  1.00  0.00     0.047 C 
ENDROOT
BRANCH   1   2
HETATM    2  C   UNL     1      26.083  46.132  50.890  1.00  0.00     0.235 C 
BRANCH   2   3
HETATM    3  N   UNL     1      26.296  46.856  49.600  1.00  0.00    -0.067 N 
HETATM    4  H   UNL     1      25.517  46.633  48.961  1.00  0.00     0.277 HD
HETATM    5  H   UNL     1      27.130  46.516  49.103  1.00  0.00     0.277 HD
BRANCH   3   6
HETATM    6  C   UNL     1      26.391  48.357  49.688  1.00  0.00     0.223 C 
HETATM    7  C   UNL     1      27.749  48.826  49.165  1.00  0.00     0.046 C 
BRANCH   6   8
HETATM    8  C   UNL     1      25.277  49.026  48.944  1.00  0.00     0.032 A 
HETATM    9  S   UNL     1      23.620  48.688  49.263  1.00  0.00    -0.076 SA
HETATM   10  C   UNL     1      23.161  49.769  48.007  1.00  0.00     0.071 A 
HETATM   11  C   UNL     1      21.727  49.988  47.668  1.00  0.00     0.078 C 
HETATM   12  N   UNL     1      24.161  50.365  47.395  1.00  0.00    -0.257 NA
HETATM   13  C   UNL     1      25.363  49.941  47.914  1.00  0.00     0.134 A 
ENDBRANCH   6   8
ENDBRANCH   3   6
ENDBRANCH   2   3
ENDBRANCH   1   2
BRANCH   1  14
HETATM   14  C   UNL     1      25.860  46.421  53.404  1.00  0.00     0.124 C 
BRANCH  14  15
HETATM   15  N   UNL     1      27.017  46.066  54.189  1.00  0.00    -0.357 N 
HETATM   16  C   UNL     1      27.625  44.834  54.050  1.00  0.00     0.251 C 
HETATM   17  O   UNL     1      27.174  43.959  53.317  1.00  0.00    -0.268 OA
HETATM   18  H   UNL     1      27.349  46.703  54.906  1.00  0.00     0.162 HD
BRANCH  16  19
HETATM   19  C   UNL     1      28.834  44.607  54.884  1.00  0.00     0.034 A 
HETATM   20  C   UNL     1      29.094  45.479  55.946  1.00  0.00     0.053 A 
HETATM   21  C   UNL     1      30.237  45.287  56.716  1.00  0.00     0.066 A 
HETATM   22  C   UNL     1      31.111  44.237  56.453  1.00  0.00     0.036 A 
HETATM   23  C   UNL     1      30.841  43.353  55.410  1.00  0.00     0.004 A 
HETATM   24  C   UNL     1      29.701  43.534  54.624  1.00  0.00     0.017 A 
BRANCH  21  25
HETATM   25  O   UNL     1      30.550  46.118  57.751  1.00  0.00    -0.361 OA
HETATM   26  H   UNL     1      29.822  46.122  58.396  1.00  0.00     0.217 HD
ENDBRANCH  21  25
ENDBRANCH  16  19
ENDBRANCH  14  15
ENDBRANCH   1  14
TORSDOF 8
ENDMDL
MODEL 2
REMARK VINA RESULT:      -7.6      1.931      2.947
REMARK  8 active torsions:
REMARK  status: ('A' for Active; 'I' for Inactive)
REMARK    1  A    between atoms: C_4  and  C_5 
REMARK    2  A    between atoms: C_5  and  N_6 
REMARK    3  A    between atoms: N_6  and  C_9 
REMARK    4  A    between atoms: C_9  and  C_10 
REMARK    5  A    between atoms: C_10  and  C_11 
REMARK    6  A    between atoms: C_11  and  N_12 
REMARK       I    between atoms: N_12  and  C_13 
REMARK    7  A    between atoms: C_13  and  C_14 
REMARK    8  A    between atoms: C_16  and  O_17 
ROOT
HETATM    1  C   UNL     1      25.506  45.171  53.789  1.00  0.00     0.047 C 
ENDROOT
BRANCH   1   2
HETATM    2  C   UNL     1      25.243  44.299  52.569  1.00  0.00     0.235 C 
BRANCH   2   3
HETATM    3  N   UNL     1      24.160  44.883  51.720  1.00  0.00    -0.067 N 
HETATM    4  H   UNL     1      23.938  45.829  52.068  1.00  0.00     0.277 HD
HETATM    5  H   UNL     1      23.275  44.367  51.820  1.00  0.00     0.277 HD
BRANCH   3   6
HETATM    6  C   UNL     1      24.461  45.004  50.248  1.00  0.00     0.223 C 
HETATM    7  C   UNL     1      23.185  44.785  49.434  1.00  0.00     0.046 C 
BRANCH   6   8
HETATM    8  C   UNL     1      25.079  46.326  49.917  1.00  0.00     0.032 A 
HETATM    9  S   UNL     1      26.776  46.526  49.709  1.00  0.00    -0.076 SA
HETATM   10  C   UNL     1      26.543  48.210  49.450  1.00  0.00     0.071 A 
HETATM   11  C   UNL     1      27.699  49.115  49.199  1.00  0.00     0.078 C 
HETATM   12  N   UNL     1      25.290  48.609  49.492  1.00  0.00    -0.257 NA
HETATM   13  C   UNL     1      24.458  47.549  49.767  1.00  0.00     0.134 A 
ENDBRANCH   6   8
ENDBRANCH   3   6
ENDBRANCH   2   3
ENDBRANCH   1   2
BRANCH   1  14
HETATM   14  C   UNL     1      26.788  45.995  53.660  1.00  0.00     0.124 C 
BRANCH  14  15
HETATM   15  N   UNL     1      27.760  45.658  54.671  1.00  0.00    -0.357 N 
HETATM   16  C   UNL     1      28.756  44.733  54.426  1.00  0.00     0.251 C 
HETATM   17  O   UNL     1      28.820  44.102  53.376  1.00  0.00    -0.268 OA
HETATM   18  H   UNL     1      27.670  46.053  55.602  1.00  0.00     0.162 HD
BRANCH  16  19
HETATM   19  C   UNL     1      29.721  44.507  55.533  1.00  0.00     0.034 A 
HETATM   20  C   UNL     1      29.804  45.455  56.559  1.00  0.00     0.053 A 
HETATM   21  C   UNL     1      30.723  45.260  57.586  1.00  0.00     0.066 A 
HETATM   22  C   UNL     1      31.542  44.136  57.614  1.00  0.00     0.036 A 
HETATM   23  C   UNL     1      31.442  43.179  56.605  1.00  0.00     0.004 A 
HETATM   24  C   UNL     1      30.530  43.361  55.564  1.00  0.00     0.017 A 
BRANCH  21  25
HETATM   25  O   UNL     1      30.861  46.161  58.600  1.00  0.00    -0.361 OA
HETATM   26  H   UNL     1      30.096  46.760  58.610  1.00  0.00     0.217 HD
ENDBRANCH  21  25
ENDBRANCH  16  19
ENDBRANCH  14  15
ENDBRANCH   1  14
TORSDOF 8
ENDMDL
MODEL 3
REMARK VINA RESULT:      -7.5      2.444      3.981
REMARK  8 active torsions:
REMARK  status: ('A' for Active; 'I' for Inactive)
REMARK    1  A    between atoms: C_4  and  C_5 
REMARK    2  A    between atoms: C_5  and  N_6 
REMARK    3  A    between atoms: N_6  and  C_9 
REMARK    4  A    between atoms: C_9  and  C_10 
REMARK    5  A    between atoms: C_10  and  C_11 
REMARK    6  A    between atoms: C_11  and  N_12 
REMARK       I    between atoms: N_12  and  C_13 
REMARK    7  A    between atoms: C_13  and  C_14 
REMARK    8  A    between atoms: C_16  and  O_17 
ROOT
HETATM    1  C   UNL     1      27.262  41.373  52.212  1.00  0.00     0.047 C 
ENDROOT
BRANCH   1   2
HETATM    2  C   UNL     1      27.359  42.447  51.139  1.00  0.00     0.235 C 
BRANCH   2   3
HETATM    3  N   UNL     1      27.200  43.810  51.732  1.00  0.00    -0.067 N 
HETATM    4  H   UNL     1      27.462  44.513  51.023  1.00  0.00     0.277 HD
HETATM    5  H   UNL     1      27.863  43.972  52.501  1.00  0.00     0.277 HD
BRANCH   3   6
HETATM    6  C   UNL     1      25.821  44.163  52.228  1.00  0.00     0.223 C 
HETATM    7  C   UNL     1      25.829  44.278  53.753  1.00  0.00     0.046 C 
BRANCH   6   8
HETATM    8  C   UNL     1      25.316  45.426  51.604  1.00  0.00     0.032 A 
HETATM    9  S   UNL     1      24.393  45.434  50.152  1.00  0.00    -0.076 SA
HETATM   10  C   UNL     1      24.344  47.152  50.196  1.00  0.00     0.071 A 
HETATM   11  C   UNL     1      23.654  47.928  49.127  1.00  0.00     0.078 C 
HETATM   12  N   UNL     1      24.951  47.698  51.227  1.00  0.00    -0.257 NA
HETATM   13  C   UNL     1      25.513  46.727  52.023  1.00  0.00     0.134 A 
ENDBRANCH   6   8
ENDBRANCH   3   6
ENDBRANCH   2   3
ENDBRANCH   1   2
BRANCH   1  14
HETATM   14  C   UNL     1      28.606  41.083  52.881  1.00  0.00     0.124 C 
BRANCH  14  15
HETATM   15  N   UNL     1      28.873  41.972  53.984  1.00  0.00    -0.357 N 
HETATM   16  C   UNL     1      29.865  42.930  53.907  1.00  0.00     0.251 C 
HETATM   17  O   UNL     1      30.613  43.023  52.938  1.00  0.00    -0.268 OA
HETATM   18  H   UNL     1      28.373  41.848  54.858  1.00  0.00     0.162 HD
BRANCH  16  19
HETATM   19  C   UNL     1      30.011  43.813  55.093  1.00  0.00     0.034 A 
HETATM   20  C   UNL     1      30.985  43.503  56.048  1.00  0.00     0.053 A 
HETATM   21  C   UNL     1      31.111  44.312  57.174  1.00  0.00     0.066 A 
HETATM   22  C   UNL     1      30.296  45.426  57.352  1.00  0.00     0.036 A 
HETATM   23  C   UNL     1      29.341  45.749  56.389  1.00  0.00     0.004 A 
HETATM   24  C   UNL     1      29.198  44.945  55.257  1.00  0.00     0.017 A 
BRANCH  21  25
HETATM   25  O   UNL     1      32.029  44.046  58.146  1.00  0.00    -0.361 OA
HETATM   26  H   UNL     1      31.632  43.470  58.820  1.00  0.00     0.217 HD
ENDBRANCH  21  25
ENDBRANCH  16  19
ENDBRANCH  14  15
ENDBRANCH   1  14
TORSDOF 8
ENDMDL
MODEL 4
REMARK VINA RESULT:      -7.4      1.565      2.228
REMARK  8 active torsions:
REMARK  status: ('A' for Active; 'I' for Inactive)
REMARK    1  A    between atoms: C_4  and  C_5 
REMARK    2  A    between atoms: C_5  and  N_6 
REMARK    3  A    between atoms: N_6  and  C_9 
REMARK    4  A    between atoms: C_9  and  C_10 
REMARK    5  A    between atoms: C_10  and  C_11 
REMARK    6  A    between atoms: C_11  and  N_12 
REMARK       I    between atoms: N_12  and  C_13 
REMARK    7  A    between atoms: C_13  and  C_14 
REMARK    8  A    between atoms: C_16  and  O_17 
ROOT
HETATM    1  C   UNL     1      25.417  44.236  52.934  1.00  0.00     0.047 C 
ENDROOT
BRANCH   1   2
HETATM    2  C   UNL     1      25.202  45.711  52.626  1.00  0.00     0.235 C 
BRANCH   2   3
HETATM    3  N   UNL     1      25.096  45.938  51.152  1.00  0.00    -0.067 N 
HETATM    4  H   UNL     1      24.215  46.439  50.955  1.00  0.00     0.277 HD
HETATM    5  H   UNL     1      24.999  45.054  50.635  1.00  0.00     0.277 HD
BRANCH   3   6
HETATM    6  C   UNL     1      26.213  46.725  50.517  1.00  0.00     0.223 C 
HETATM    7  C   UNL     1      27.072  45.806  49.649  1.00  0.00     0.046 C 
BRANCH   6   8
HETATM    8  C   UNL     1      25.692  47.877  49.716  1.00  0.00     0.032 A 
HETATM    9  S   UNL     1      24.011  48.135  49.454  1.00  0.00    -0.076 SA
HETATM   10  C   UNL     1      24.375  49.504  48.480  1.00  0.00     0.071 A 
HETATM   11  C   UNL     1      23.292  50.297  47.833  1.00  0.00     0.078 C 
HETATM   12  N   UNL     1      25.657  49.777  48.364  1.00  0.00    -0.257 NA
HETATM   13  C   UNL     1      26.408  48.853  49.053  1.00  0.00     0.134 A 
ENDBRANCH   6   8
ENDBRANCH   3   6
ENDBRANCH   2   3
ENDBRANCH   1   2
BRANCH   1  14
HETATM   14  C   UNL     1      26.878  43.809  52.787  1.00  0.00     0.124 C 
BRANCH  14  15
HETATM   15  N   UNL     1      27.648  44.069  53.979  1.00  0.00    -0.357 N 
HETATM   16  C   UNL     1      29.019  43.905  53.994  1.00  0.00     0.251 C 
HETATM   17  O   UNL     1      29.637  43.461  53.031  1.00  0.00    -0.268 OA
HETATM   18  H   UNL     1      27.169  44.309  54.840  1.00  0.00     0.162 HD
BRANCH  16  19
HETATM   19  C   UNL     1      29.701  44.248  55.269  1.00  0.00     0.034 A 
HETATM   20  C   UNL     1      30.709  43.403  55.743  1.00  0.00     0.053 A 
HETATM   21  C   UNL     1      31.335  43.706  56.949  1.00  0.00     0.066 A 
HETATM   22  C   UNL     1      30.984  44.839  57.675  1.00  0.00     0.036 A 
HETATM   23  C   UNL     1      29.996  45.695  57.191  1.00  0.00     0.004 A 
HETATM   24  C   UNL     1      29.354  45.404  55.986  1.00  0.00     0.017 A 
BRANCH  21  25
HETATM   25  O   UNL     1      32.310  42.907  57.468  1.00  0.00    -0.361 OA
HETATM   26  H   UNL     1      31.930  42.334  58.155  1.00  0.00     0.217 HD
ENDBRANCH  21  25
ENDBRANCH  16  19
ENDBRANCH  14  15
ENDBRANCH   1  14
TORSDOF 8
ENDMDL
MODEL 5
REMARK VINA RESULT:      -7.3      4.138      5.059
REMARK  8 active torsions:
REMARK  status: ('A' for Active; 'I' for Inactive)
REMARK    1  A    between atoms: C_4  and  C_5 
REMARK    2  A    between atoms: C_5  and  N_6 
REMARK    3  A    between atoms: N_6  and  C_9 
REMARK    4  A    between atoms: C_9  and  C_10 
REMARK    5  A    between atoms: C_10  and  C_11 
REMARK    6  A    between atoms: C_11  and  N_12 
REMARK       I    between atoms: N_12  and  C_13 
REMARK    7  A    between atoms: C_13  and  C_14 
REMARK    8  A    between atoms: C_16  and  O_17 
ROOT
HETATM    1  C   UNL     1      27.277  41.091  52.216  1.00  0.00     0.047 C 
ENDROOT
BRANCH   1   2
HETATM    2  C   UNL     1      27.165  41.657  50.807  1.00  0.00     0.235 C 
BRANCH   2   3
HETATM    3  N   UNL     1      27.291  43.147  50.820  1.00  0.00    -0.067 N 
HETATM    4  H   UNL     1      27.791  43.445  49.968  1.00  0.00     0.277 HD
HETATM    5  H   UNL     1      27.892  43.474  51.589  1.00  0.00     0.277 HD
BRANCH   3   6
HETATM    6  C   UNL     1      26.001  43.923  50.880  1.00  0.00     0.223 C 
HETATM    7  C   UNL     1      24.811  42.967  50.777  1.00  0.00     0.046 C 
BRANCH   6   8
HETATM    8  C   UNL     1      25.910  44.749  52.125  1.00  0.00     0.032 A 
HETATM    9  S   UNL     1      26.186  46.448  52.129  1.00  0.00    -0.076 SA
HETATM   10  C   UNL     1      25.945  46.480  53.831  1.00  0.00     0.071 A 
HETATM   11  C   UNL     1      26.061  47.752  54.599  1.00  0.00     0.078 C 
HETATM   12  N   UNL     1      25.656  45.317  54.372  1.00  0.00    -0.257 NA
HETATM   13  C   UNL     1      25.645  44.331  53.414  1.00  0.00     0.134 A 
ENDBRANCH   6   8
ENDBRANCH   3   6
ENDBRANCH   2   3
ENDBRANCH   1   2
BRANCH   1  14
HETATM   14  C   UNL     1      28.727  40.905  52.664  1.00  0.00     0.124 C 
BRANCH  14  15
HETATM   15  N   UNL     1      29.068  41.752  53.782  1.00  0.00    -0.357 N 
HETATM   16  C   UNL     1      29.612  43.006  53.589  1.00  0.00     0.251 C 
HETATM   17  O   UNL     1      29.903  43.430  52.475  1.00  0.00    -0.268 OA
HETATM   18  H   UNL     1      28.972  41.394  54.726  1.00  0.00     0.162 HD
BRANCH  16  19
HETATM   19  C   UNL     1      29.877  43.796  54.820  1.00  0.00     0.034 A 
HETATM   20  C   UNL     1      30.878  43.364  55.696  1.00  0.00     0.053 A 
HETATM   21  C   UNL     1      31.115  44.086  56.862  1.00  0.00     0.066 A 
HETATM   22  C   UNL     1      30.384  45.232  57.157  1.00  0.00     0.036 A 
HETATM   23  C   UNL     1      29.403  45.677  56.273  1.00  0.00     0.004 A 
HETATM   24  C   UNL     1      29.148  44.962  55.101  1.00  0.00     0.017 A 
BRANCH  21  25
HETATM   25  O   UNL     1      32.064  43.699  57.761  1.00  0.00    -0.361 OA
HETATM   26  H   UNL     1      32.729  44.401  57.854  1.00  0.00     0.217 HD
ENDBRANCH  21  25
ENDBRANCH  16  19
ENDBRANCH  14  15
ENDBRANCH   1  14
TORSDOF 8
ENDMDL
MODEL 6
REMARK VINA RESULT:      -7.3      3.443      5.388
REMARK  8 active torsions:
REMARK  status: ('A' for Active; 'I' for Inactive)
REMARK    1  A    between atoms: C_4  and  C_5 
REMARK    2  A    between atoms: C_5  and  N_6 
REMARK    3  A    between atoms: N_6  and  C_9 
REMARK    4  A    between atoms: C_9  and  C_10 
REMARK    5  A    between atoms: C_10  and  C_11 
REMARK    6  A    between atoms: C_11  and  N_12 
REMARK       I    between atoms: N_12  and  C_13 
REMARK    7  A    between atoms: C_13  and  C_14 
REMARK    8  A    between atoms: C_16  and  O_17 
ROOT
HETATM    1  C   UNL     1      26.128  47.056  52.065  1.00  0.00     0.047 C 
ENDROOT
BRANCH   1   2
HETATM    2  C   UNL     1      25.063  46.347  51.240  1.00  0.00     0.235 C 
BRANCH   2   3
HETATM    3  N   UNL     1      24.728  45.016  51.833  1.00  0.00    -0.067 N 
HETATM    4  H   UNL     1      23.816  45.085  52.311  1.00  0.00     0.277 HD
HETATM    5  H   UNL     1      25.383  44.754  52.581  1.00  0.00     0.277 HD
BRANCH   3   6
HETATM    6  C   UNL     1      24.643  43.861  50.868  1.00  0.00     0.223 C 
HETATM    7  C   UNL     1      24.777  44.369  49.432  1.00  0.00     0.046 C 
BRANCH   6   8
HETATM    8  C   UNL     1      25.677  42.819  51.160  1.00  0.00     0.032 A 
HETATM    9  S   UNL     1      26.980  43.090  52.250  1.00  0.00    -0.076 SA
HETATM   10  C   UNL     1      27.590  41.520  51.908  1.00  0.00     0.071 A 
HETATM   11  C   UNL     1      28.842  41.026  52.549  1.00  0.00     0.078 C 
HETATM   12  N   UNL     1      26.872  40.819  51.057  1.00  0.00    -0.257 NA
HETATM   13  C   UNL     1      25.794  41.553  50.622  1.00  0.00     0.134 A 
ENDBRANCH   6   8
ENDBRANCH   3   6
ENDBRANCH   2   3
ENDBRANCH   1   2
BRANCH   1  14
HETATM   14  C   UNL     1      25.991  46.785  53.564  1.00  0.00     0.124 C 
BRANCH  14  15
HETATM   15  N   UNL     1      27.130  46.082  54.101  1.00  0.00    -0.357 N 
HETATM   16  C   UNL     1      27.721  46.477  55.285  1.00  0.00     0.251 C 
HETATM   17  O   UNL     1      27.361  47.479  55.895  1.00  0.00    -0.268 OA
HETATM   18  H   UNL     1      27.550  45.329  53.566  1.00  0.00     0.162 HD
BRANCH  16  19
HETATM   19  C   UNL     1      28.859  45.644  55.754  1.00  0.00     0.034 A 
HETATM   20  C   UNL     1      29.441  45.933  56.992  1.00  0.00     0.053 A 
HETATM   21  C   UNL     1      30.523  45.172  57.426  1.00  0.00     0.066 A 
HETATM   22  C   UNL     1      31.019  44.126  56.655  1.00  0.00     0.036 A 
HETATM   23  C   UNL     1      30.424  43.822  55.431  1.00  0.00     0.004 A 
HETATM   24  C   UNL     1      29.342  44.578  54.978  1.00  0.00     0.017 A 
BRANCH  21  25
HETATM   25  O   UNL     1      31.141  45.421  58.615  1.00  0.00    -0.361 OA
HETATM   26  H   UNL     1      32.097  45.272  58.523  1.00  0.00     0.217 HD
ENDBRANCH  21  25
ENDBRANCH  16  19
ENDBRANCH  14  15
ENDBRANCH   1  14
TORSDOF 8
ENDMDL
MODEL 7
REMARK VINA RESULT:      -7.2      1.653      1.841
REMARK  8 active torsions:
REMARK  status: ('A' for Active; 'I' for Inactive)
REMARK    1  A    between atoms: C_4  and  C_5 
REMARK    2  A    between atoms: C_5  and  N_6 
REMARK    3  A    between atoms: N_6  and  C_9 
REMARK    4  A    between atoms: C_9  and  C_10 
REMARK    5  A    between atoms: C_10  and  C_11 
REMARK    6  A    between atoms: C_11  and  N_12 
REMARK       I    between atoms: N_12  and  C_13 
REMARK    7  A    between atoms: C_13  and  C_14 
REMARK    8  A    between atoms: C_16  and  O_17 
ROOT
HETATM    1  C   UNL     1      26.198  44.910  52.187  1.00  0.00     0.047 C 
ENDROOT
BRANCH   1   2
HETATM    2  C   UNL     1      24.913  45.403  51.538  1.00  0.00     0.235 C 
BRANCH   2   3
HETATM    3  N   UNL     1      25.195  46.047  50.218  1.00  0.00    -0.067 N 
HETATM    4  H   UNL     1      24.537  45.670  49.517  1.00  0.00     0.277 HD
HETATM    5  H   UNL     1      26.121  45.787  49.856  1.00  0.00     0.277 HD
BRANCH   3   6
HETATM    6  C   UNL     1      25.086  47.550  50.175  1.00  0.00     0.223 C 
HETATM    7  C   UNL     1      26.381  48.151  49.628  1.00  0.00     0.046 C 
BRANCH   6   8
HETATM    8  C   UNL     1      23.911  47.996  49.364  1.00  0.00     0.032 A 
HETATM    9  S   UNL     1      23.622  49.650  48.987  1.00  0.00    -0.076 SA
HETATM   10  C   UNL     1      22.173  49.210  48.174  1.00  0.00     0.071 A 
HETATM   11  C   UNL     1      21.300  50.242  47.547  1.00  0.00     0.078 C 
HETATM   12  N   UNL     1      21.917  47.920  48.157  1.00  0.00    -0.257 NA
HETATM   13  C   UNL     1      22.891  47.228  48.838  1.00  0.00     0.134 A 
ENDBRANCH   6   8
ENDBRANCH   3   6
ENDBRANCH   2   3
ENDBRANCH   1   2
BRANCH   1  14
HETATM   14  C   UNL     1      26.612  45.755  53.393  1.00  0.00     0.124 C 
BRANCH  14  15
HETATM   15  N   UNL     1      27.663  45.135  54.162  1.00  0.00    -0.357 N 
HETATM   16  C   UNL     1      28.510  45.887  54.951  1.00  0.00     0.251 C 
HETATM   17  O   UNL     1      28.464  47.113  54.980  1.00  0.00    -0.268 OA
HETATM   18  H   UNL     1      27.829  44.138  54.068  1.00  0.00     0.162 HD
BRANCH  16  19
HETATM   19  C   UNL     1      29.523  45.125  55.728  1.00  0.00     0.034 A 
HETATM   20  C   UNL     1      29.924  45.614  56.976  1.00  0.00     0.053 A 
HETATM   21  C   UNL     1      30.890  44.919  57.697  1.00  0.00     0.066 A 
HETATM   22  C   UNL     1      31.446  43.744  57.203  1.00  0.00     0.036 A 
HETATM   23  C   UNL     1      31.030  43.242  55.971  1.00  0.00     0.004 A 
HETATM   24  C   UNL     1      30.066  43.930  55.231  1.00  0.00     0.017 A 
BRANCH  21  25
HETATM   25  O   UNL     1      31.332  45.360  58.909  1.00  0.00    -0.361 OA
HETATM   26  H   UNL     1      30.609  45.310  59.557  1.00  0.00     0.217 HD
ENDBRANCH  21  25
ENDBRANCH  16  19
ENDBRANCH  14  15
ENDBRANCH   1  14
TORSDOF 8
ENDMDL
MODEL 8
REMARK VINA RESULT:      -7.2      4.597      6.231
REMARK  8 active torsions:
REMARK  status: ('A' for Active; 'I' for Inactive)
REMARK    1  A    between atoms: C_4  and  C_5 
REMARK    2  A    between atoms: C_5  and  N_6 
REMARK    3  A    between atoms: N_6  and  C_9 
REMARK    4  A    between atoms: C_9  and  C_10 
REMARK    5  A    between atoms: C_10  and  C_11 
REMARK    6  A    between atoms: C_11  and  N_12 
REMARK       I    between atoms: N_12  and  C_13 
REMARK    7  A    between atoms: C_13  and  C_14 
REMARK    8  A    between atoms: C_16  and  O_17 
ROOT
HETATM    1  C   UNL     1      25.293  44.750  53.483  1.00  0.00     0.047 C 
ENDROOT
BRANCH   1   2
HETATM    2  C   UNL     1      25.947  44.323  52.177  1.00  0.00     0.235 C 
BRANCH   2   3
HETATM    3  N   UNL     1      25.547  42.930  51.810  1.00  0.00    -0.067 N 
HETATM    4  H   UNL     1      24.518  42.857  51.857  1.00  0.00     0.277 HD
HETATM    5  H   UNL     1      25.878  42.242  52.499  1.00  0.00     0.277 HD
BRANCH   3   6
HETATM    6  C   UNL     1      25.969  42.455  50.443  1.00  0.00     0.223 C 
HETATM    7  C   UNL     1      26.453  43.640  49.605  1.00  0.00     0.046 C 
BRANCH   6   8
HETATM    8  C   UNL     1      27.026  41.399  50.527  1.00  0.00     0.032 A 
HETATM    9  S   UNL     1      27.237  40.204  49.307  1.00  0.00    -0.076 SA
HETATM   10  C   UNL     1      28.502  39.491  50.227  1.00  0.00     0.071 A 
HETATM   11  C   UNL     1      29.212  38.274  49.743  1.00  0.00     0.078 C 
HETATM   12  N   UNL     1      28.776  40.102  51.359  1.00  0.00    -0.257 NA
HETATM   13  C   UNL     1      27.936  41.176  51.541  1.00  0.00     0.134 A 
ENDBRANCH   6   8
ENDBRANCH   3   6
ENDBRANCH   2   3
ENDBRANCH   1   2
BRANCH   1  14
HETATM   14  C   UNL     1      26.153  45.730  54.282  1.00  0.00     0.124 C 
BRANCH  14  15
HETATM   15  N   UNL     1      27.300  45.091  54.880  1.00  0.00    -0.357 N 
HETATM   16  C   UNL     1      28.413  45.820  55.250  1.00  0.00     0.251 C 
HETATM   17  O   UNL     1      28.515  47.021  55.022  1.00  0.00    -0.268 OA
HETATM   18  H   UNL     1      27.320  44.080  54.967  1.00  0.00     0.162 HD
BRANCH  16  19
HETATM   19  C   UNL     1      29.509  45.052  55.896  1.00  0.00     0.034 A 
HETATM   20  C   UNL     1      29.981  45.470  57.144  1.00  0.00     0.053 A 
HETATM   21  C   UNL     1      31.024  44.769  57.743  1.00  0.00     0.066 A 
HETATM   22  C   UNL     1      31.588  43.657  57.127  1.00  0.00     0.036 A 
HETATM   23  C   UNL     1      31.102  43.225  55.894  1.00  0.00     0.004 A 
HETATM   24  C   UNL     1      30.060  43.919  55.276  1.00  0.00     0.017 A 
BRANCH  21  25
HETATM   25  O   UNL     1      31.536  45.144  58.950  1.00  0.00    -0.361 OA
HETATM   26  H   UNL     1      31.795  46.080  58.916  1.00  0.00     0.217 HD
ENDBRANCH  21  25
ENDBRANCH  16  19
ENDBRANCH  14  15
ENDBRANCH   1  14
TORSDOF 8
ENDMDL
MODEL 9
REMARK VINA RESULT:      -7.1     12.304     14.491
REMARK  8 active torsions:
REMARK  status: ('A' for Active; 'I' for Inactive)
REMARK    1  A    between atoms: C_4  and  C_5 
REMARK    2  A    between atoms: C_5  and  N_6 
REMARK    3  A    between atoms: N_6  and  C_9 
REMARK    4  A    between atoms: C_9  and  C_10 
REMARK    5  A    between atoms: C_10  and  C_11 
REMARK    6  A    between atoms: C_11  and  N_12 
REMARK       I    between atoms: N_12  and  C_13 
REMARK    7  A    between atoms: C_13  and  C_14 
REMARK    8  A    between atoms: C_16  and  O_17 
ROOT
HETATM    1  C   UNL     1      34.819  51.408  40.444  1.00  0.00     0.047 C 
ENDROOT
BRANCH   1   2
HETATM    2  C   UNL     1      34.344  51.184  41.873  1.00  0.00     0.235 C 
BRANCH   2   3
HETATM    3  N   UNL     1      33.818  49.796  42.049  1.00  0.00    -0.067 N 
HETATM    4  H   UNL     1      34.470  49.267  42.650  1.00  0.00     0.277 HD
HETATM    5  H   UNL     1      33.815  49.273  41.163  1.00  0.00     0.277 HD
BRANCH   3   6
HETATM    6  C   UNL     1      32.446  49.677  42.660  1.00  0.00     0.223 C 
HETATM    7  C   UNL     1      31.982  51.042  43.170  1.00  0.00     0.046 C 
BRANCH   6   8
HETATM    8  C   UNL     1      31.456  49.109  41.693  1.00  0.00     0.032 A 
HETATM    9  S   UNL     1      29.799  48.875  42.095  1.00  0.00    -0.076 SA
HETATM   10  C   UNL     1      29.520  48.194  40.541  1.00  0.00     0.071 A 
HETATM   11  C   UNL     1      28.170  47.698  40.151  1.00  0.00     0.078 C 
HETATM   12  N   UNL     1      30.575  48.155  39.756  1.00  0.00    -0.257 NA
HETATM   13  C   UNL     1      31.676  48.661  40.406  1.00  0.00     0.134 A 
ENDBRANCH   6   8
ENDBRANCH   3   6
ENDBRANCH   2   3
ENDBRANCH   1   2
BRANCH   1  14
HETATM   14  C   UNL     1      33.982  52.449  39.699  1.00  0.00     0.124 C 
BRANCH  14  15
HETATM   15  N   UNL     1      32.622  52.015  39.496  1.00  0.00    -0.357 N 
HETATM   16  C   UNL     1      31.561  52.703  40.052  1.00  0.00     0.251 C 
HETATM   17  O   UNL     1      31.722  53.662  40.801  1.00  0.00    -0.268 OA
HETATM   18  H   UNL     1      32.442  51.151  38.996  1.00  0.00     0.162 HD
BRANCH  16  19
HETATM   19  C   UNL     1      30.207  52.181  39.732  1.00  0.00     0.034 A 
HETATM   20  C   UNL     1      29.174  52.375  40.655  1.00  0.00     0.053 A 
HETATM   21  C   UNL     1      27.910  51.867  40.373  1.00  0.00     0.066 A 
HETATM   22  C   UNL     1      27.659  51.187  39.185  1.00  0.00     0.036 A 
HETATM   23  C   UNL     1      28.681  51.015  38.254  1.00  0.00     0.004 A 
HETATM   24  C   UNL     1      29.957  51.513  38.523  1.00  0.00     0.017 A 
BRANCH  21  25
HETATM   25  O   UNL     1      26.871  52.009  41.245  1.00  0.00    -0.361 OA
HETATM   26  H   UNL     1      26.364  51.181  41.283  1.00  0.00     0.217 HD
ENDBRANCH  21  25
ENDBRANCH  16  19
ENDBRANCH  14  15
ENDBRANCH   1  14
TORSDOF 8
ENDMDL
MODEL 10
REMARK VINA RESULT:      -7.1      3.440      8.429
REMARK  8 active torsions:
REMARK  status: ('A' for Active; 'I' for Inactive)
REMARK    1  A    between atoms: C_4  and  C_5 
REMARK    2  A    between atoms: C_5  and  N_6 
REMARK    3  A    between atoms: N_6  and  C_9 
REMARK    4  A    between atoms: C_9  and  C_10 
REMARK    5  A    between atoms: C_10  and  C_11 
REMARK    6  A    between atoms: C_11  and  N_12 
REMARK       I    between atoms: N_12  and  C_13 
REMARK    7  A    between atoms: C_13  and  C_14 
REMARK    8  A    between atoms: C_16  and  O_17 
ROOT
HETATM    1  C   UNL     1      27.356  43.357  52.293  1.00  0.00     0.047 C 
ENDROOT
BRANCH   1   2
HETATM    2  C   UNL     1      26.991  43.172  53.759  1.00  0.00     0.235 C 
BRANCH   2   3
HETATM    3  N   UNL     1      26.785  44.494  54.428  1.00  0.00    -0.067 N 
HETATM    4  H   UNL     1      26.623  44.335  55.435  1.00  0.00     0.277 HD
HETATM    5  H   UNL     1      25.924  44.955  54.107  1.00  0.00     0.277 HD
BRANCH   3   6
HETATM    6  C   UNL     1      27.914  45.484  54.304  1.00  0.00     0.223 C 
HETATM    7  C   UNL     1      27.385  46.906  54.501  1.00  0.00     0.046 C 
BRANCH   6   8
HETATM    8  C   UNL     1      29.016  45.190  55.273  1.00  0.00     0.032 A 
HETATM    9  S   UNL     1      30.040  43.816  55.117  1.00  0.00    -0.076 SA
HETATM   10  C   UNL     1      30.850  44.258  56.568  1.00  0.00     0.071 A 
HETATM   11  C   UNL     1      31.960  43.426  57.113  1.00  0.00     0.078 C 
HETATM   12  N   UNL     1      30.413  45.363  57.132  1.00  0.00    -0.257 NA
HETATM   13  C   UNL     1      29.368  45.890  56.409  1.00  0.00     0.134 A 
ENDBRANCH   6   8
ENDBRANCH   3   6
ENDBRANCH   2   3
ENDBRANCH   1   2
BRANCH   1  14
HETATM   14  C   UNL     1      26.129  43.444  51.385  1.00  0.00     0.124 C 
BRANCH  14  15
HETATM   15  N   UNL     1      26.086  44.678  50.639  1.00  0.00    -0.357 N 
HETATM   16  C   UNL     1      25.477  45.805  51.156  1.00  0.00     0.251 C 
HETATM   17  O   UNL     1      24.882  45.795  52.229  1.00  0.00    -0.268 OA
HETATM   18  H   UNL     1      26.445  44.702  49.691  1.00  0.00     0.162 HD
BRANCH  16  19
HETATM   19  C   UNL     1      25.539  47.025  50.308  1.00  0.00     0.034 A 
HETATM   20  C   UNL     1      26.790  47.513  49.920  1.00  0.00     0.053 A 
HETATM   21  C   UNL     1      26.856  48.668  49.146  1.00  0.00     0.066 A 
HETATM   22  C   UNL     1      25.700  49.329  48.745  1.00  0.00     0.036 A 
HETATM   23  C   UNL     1      24.451  48.830  49.112  1.00  0.00     0.004 A 
HETATM   24  C   UNL     1      24.367  47.676  49.892  1.00  0.00     0.017 A 
BRANCH  21  25
HETATM   25  O   UNL     1      28.049  49.199  48.755  1.00  0.00    -0.361 OA
HETATM   26  H   UNL     1      27.968  50.165  48.685  1.00  0.00     0.217 HD
ENDBRANCH  21  25
ENDBRANCH  16  19
ENDBRANCH  14  15
ENDBRANCH   1  14
TORSDOF 8
ENDMDL
