MODEL 1
REMARK VINA RESULT:      -9.3      0.000      0.000
REMARK  7 active torsions:
REMARK  status: ('A' for Active; 'I' for Inactive)
REMARK    1  A    between atoms: O_2  and  C_3 
REMARK    2  A    between atoms: C_4  and  C_5 
REMARK    3  A    between atoms: C_5  and  C_6 
REMARK       I    between atoms: C_6  and  N_7 
REMARK    4  A    between atoms: N_7  and  N_8 
REMARK       I    between atoms: N_8  and  C_9 
REMARK    5  A    between atoms: C_9  and  C_10 
REMARK    6  A    between atoms: C_15  and  O_16 
REMARK    7  A    between atoms: O_16  and  C_17 
ROOT
HETATM    1  N   UNL     1      25.611  46.261  51.734  1.00  0.00    -0.262 N 
HETATM    2  C   UNL     1      25.623  45.145  52.543  1.00  0.00     0.286 C 
HETATM    3  O   UNL     1      24.651  44.396  52.631  1.00  0.00    -0.264 OA
HETATM    4  H   UNL     1      26.396  46.900  51.640  1.00  0.00     0.190 HD
ENDROOT
BRANCH   2   5
HETATM    5  C   UNL     1      26.845  44.923  53.282  1.00  0.00     0.103 A 
HETATM    6  N   UNL     1      27.626  43.809  53.056  1.00  0.00    -0.351 N 
HETATM    7  H   UNL     1      27.402  43.099  52.371  1.00  0.00     0.166 HD
HETATM    8  C   UNL     1      28.712  43.785  53.899  1.00  0.00     0.045 A 
HETATM    9  C   UNL     1      28.636  44.924  54.698  1.00  0.00     0.026 A 
HETATM   10  C   UNL     1      29.736  42.841  54.021  1.00  0.00     0.030 A 
HETATM   11  C   UNL     1      29.630  45.146  55.677  1.00  0.00     0.087 A 
HETATM   12  C   UNL     1      27.469  45.636  54.290  1.00  0.00     0.052 A 
HETATM   13  C   UNL     1      30.646  44.188  55.831  1.00  0.00     0.038 A 
HETATM   14  C   UNL     1      30.700  43.062  55.008  1.00  0.00     0.005 A 
BRANCH  11  15
HETATM   15  O   UNL     1      29.512  46.255  56.474  1.00  0.00    -0.289 OA
BRANCH  15  16
HETATM   16  C   UNL     1      29.256  45.964  57.837  1.00  0.00     0.505 C 
HETATM   17  F   UNL     1      30.322  46.404  58.552  1.00  0.00    -0.184 F 
HETATM   18  F   UNL     1      28.190  46.695  58.249  1.00  0.00    -0.184 F 
ENDBRANCH  15  16
ENDBRANCH  11  15
ENDBRANCH   2   5
BRANCH   1  19
HETATM   19  N   UNL     1      24.428  46.622  51.084  1.00  0.00    -0.267 N 
HETATM   20  C   UNL     1      24.309  46.343  49.738  1.00  0.00     0.240 C 
HETATM   21  O   UNL     1      25.176  45.729  49.116  1.00  0.00    -0.272 OA
HETATM   22  H   UNL     1      23.707  47.079  51.640  1.00  0.00     0.190 HD
BRANCH  20  23
HETATM   23  C   UNL     1      23.037  46.859  49.103  1.00  0.00     0.146 C 
BRANCH  23  24
HETATM   24  C   UNL     1      22.968  48.350  48.837  1.00  0.00    -0.016 A 
HETATM   25  C   UNL     1      21.715  48.994  48.919  1.00  0.00     0.074 A 
HETATM   26  C   UNL     1      21.614  50.365  48.660  1.00  0.00     0.037 A 
HETATM   27  C   UNL     1      22.750  51.104  48.326  1.00  0.00     0.003 A 
HETATM   28  C   UNL     1      23.989  50.478  48.247  1.00  0.00     0.001 A 
HETATM   29  C   UNL     1      24.100  49.111  48.501  1.00  0.00     0.010 A 
BRANCH  25  30
HETATM   30  O   UNL     1      20.652  48.188  49.241  1.00  0.00    -0.355 OA
HETATM   31  C   UNL     1      19.512  48.811  49.819  1.00  0.00     0.210 C 
ENDBRANCH  25  30
ENDBRANCH  23  24
ENDBRANCH  20  23
ENDBRANCH   1  19
TORSDOF 7
ENDMDL
MODEL 2
REMARK VINA RESULT:      -9.1      2.297      3.523
REMARK  7 active torsions:
REMARK  status: ('A' for Active; 'I' for Inactive)
REMARK    1  A    between atoms: O_2  and  C_3 
REMARK    2  A    between atoms: C_4  and  C_5 
REMARK    3  A    between atoms: C_5  and  C_6 
REMARK       I    between atoms: C_6  and  N_7 
REMARK    4  A    between atoms: N_7  and  N_8 
REMARK       I    between atoms: N_8  and  C_9 
REMARK    5  A    between atoms: C_9  and  C_10 
REMARK    6  A    between atoms: C_15  and  O_16 
REMARK    7  A    between atoms: O_16  and  C_17 
ROOT
HETATM    1  N   UNL     1      24.151  47.552  50.703  1.00  0.00    -0.262 N 
HETATM    2  C   UNL     1      24.756  46.316  50.772  1.00  0.00     0.286 C 
HETATM    3  O   UNL     1      24.543  45.441  49.933  1.00  0.00    -0.264 OA
HETATM    4  H   UNL     1      24.304  48.296  51.380  1.00  0.00     0.190 HD
ENDROOT
BRANCH   2   5
HETATM    5  C   UNL     1      25.644  46.117  51.894  1.00  0.00     0.103 A 
HETATM    6  N   UNL     1      25.796  47.081  52.868  1.00  0.00    -0.351 N 
HETATM    7  H   UNL     1      25.301  47.964  52.863  1.00  0.00     0.166 HD
HETATM    8  C   UNL     1      26.719  46.695  53.811  1.00  0.00     0.045 A 
HETATM    9  C   UNL     1      27.182  45.434  53.438  1.00  0.00     0.026 A 
HETATM   10  C   UNL     1      27.184  47.367  54.945  1.00  0.00     0.030 A 
HETATM   11  C   UNL     1      28.162  44.798  54.232  1.00  0.00     0.087 A 
HETATM   12  C   UNL     1      26.488  45.077  52.244  1.00  0.00     0.052 A 
HETATM   13  C   UNL     1      28.661  45.478  55.355  1.00  0.00     0.038 A 
HETATM   14  C   UNL     1      28.169  46.736  55.708  1.00  0.00     0.005 A 
BRANCH  11  15
HETATM   15  O   UNL     1      28.626  43.575  53.824  1.00  0.00    -0.289 OA
BRANCH  15  16
HETATM   16  C   UNL     1      29.974  43.318  54.180  1.00  0.00     0.505 C 
HETATM   17  F   UNL     1      29.957  42.511  55.271  1.00  0.00    -0.184 F 
HETATM   18  F   UNL     1      30.563  42.607  53.185  1.00  0.00    -0.184 F 
ENDBRANCH  15  16
ENDBRANCH  11  15
ENDBRANCH   2   5
BRANCH   1  19
HETATM   19  N   UNL     1      23.181  47.786  49.725  1.00  0.00    -0.267 N 
HETATM   20  C   UNL     1      23.228  48.976  49.027  1.00  0.00     0.240 C 
HETATM   21  O   UNL     1      24.131  49.797  49.190  1.00  0.00    -0.272 OA
HETATM   22  H   UNL     1      22.479  47.062  49.577  1.00  0.00     0.190 HD
BRANCH  20  23
HETATM   23  C   UNL     1      22.082  49.179  48.062  1.00  0.00     0.146 C 
BRANCH  23  24
HETATM   24  C   UNL     1      20.888  49.956  48.581  1.00  0.00    -0.016 A 
HETATM   25  C   UNL     1      19.852  49.252  49.232  1.00  0.00     0.074 A 
HETATM   26  C   UNL     1      18.728  49.937  49.705  1.00  0.00     0.037 A 
HETATM   27  C   UNL     1      18.626  51.319  49.540  1.00  0.00     0.003 A 
HETATM   28  C   UNL     1      19.643  52.022  48.903  1.00  0.00     0.001 A 
HETATM   29  C   UNL     1      20.767  51.347  48.426  1.00  0.00     0.010 A 
BRANCH  25  30
HETATM   30  O   UNL     1      20.032  47.895  49.338  1.00  0.00    -0.355 OA
HETATM   31  C   UNL     1      19.073  47.058  48.705  1.00  0.00     0.210 C 
ENDBRANCH  25  30
ENDBRANCH  23  24
ENDBRANCH  20  23
ENDBRANCH   1  19
TORSDOF 7
ENDMDL
MODEL 3
REMARK VINA RESULT:      -8.7      5.735      7.905
REMARK  7 active torsions:
REMARK  status: ('A' for Active; 'I' for Inactive)
REMARK    1  A    between atoms: O_2  and  C_3 
REMARK    2  A    between atoms: C_4  and  C_5 
REMARK    3  A    between atoms: C_5  and  C_6 
REMARK       I    between atoms: C_6  and  N_7 
REMARK    4  A    between atoms: N_7  and  N_8 
REMARK       I    between atoms: N_8  and  C_9 
REMARK    5  A    between atoms: C_9  and  C_10 
REMARK    6  A    between atoms: C_15  and  O_16 
REMARK    7  A    between atoms: O_16  and  C_17 
ROOT
HETATM    1  N   UNL     1      27.025  41.406  52.000  1.00  0.00    -0.262 N 
HETATM    2  C   UNL     1      28.243  41.358  52.642  1.00  0.00     0.286 C 
HETATM    3  O   UNL     1      29.031  40.428  52.472  1.00  0.00    -0.264 OA
HETATM    4  H   UNL     1      26.351  42.159  52.120  1.00  0.00     0.190 HD
ENDROOT
BRANCH   2   5
HETATM    5  C   UNL     1      28.525  42.462  53.531  1.00  0.00     0.103 A 
HETATM    6  N   UNL     1      27.628  43.496  53.696  1.00  0.00    -0.351 N 
HETATM    7  H   UNL     1      26.735  43.542  53.222  1.00  0.00     0.166 HD
HETATM    8  C   UNL     1      28.123  44.452  54.551  1.00  0.00     0.045 A 
HETATM    9  C   UNL     1      29.384  44.022  54.960  1.00  0.00     0.026 A 
HETATM   10  C   UNL     1      27.559  45.658  54.978  1.00  0.00     0.030 A 
HETATM   11  C   UNL     1      30.135  44.831  55.842  1.00  0.00     0.087 A 
HETATM   12  C   UNL     1      29.617  42.766  54.325  1.00  0.00     0.052 A 
HETATM   13  C   UNL     1      29.593  46.060  56.251  1.00  0.00     0.038 A 
HETATM   14  C   UNL     1      28.322  46.458  55.832  1.00  0.00     0.005 A 
BRANCH  11  15
HETATM   15  O   UNL     1      31.387  44.402  56.199  1.00  0.00    -0.289 OA
BRANCH  15  16
HETATM   16  C   UNL     1      31.434  43.731  57.447  1.00  0.00     0.505 C 
HETATM   17  F   UNL     1      32.428  42.810  57.375  1.00  0.00    -0.184 F 
HETATM   18  F   UNL     1      31.801  44.617  58.408  1.00  0.00    -0.184 F 
ENDBRANCH  15  16
ENDBRANCH  11  15
ENDBRANCH   2   5
BRANCH   1  19
HETATM   19  N   UNL     1      26.617  40.319  51.223  1.00  0.00    -0.267 N 
HETATM   20  C   UNL     1      26.763  40.401  49.853  1.00  0.00     0.240 C 
HETATM   21  O   UNL     1      27.301  41.365  49.307  1.00  0.00    -0.272 OA
HETATM   22  H   UNL     1      26.226  39.514  51.710  1.00  0.00     0.190 HD
BRANCH  20  23
HETATM   23  C   UNL     1      26.203  39.219  49.094  1.00  0.00     0.146 C 
BRANCH  23  24
HETATM   24  C   UNL     1      27.000  38.743  47.895  1.00  0.00    -0.016 A 
HETATM   25  C   UNL     1      28.074  37.852  48.108  1.00  0.00     0.074 A 
HETATM   26  C   UNL     1      28.841  37.409  47.025  1.00  0.00     0.037 A 
HETATM   27  C   UNL     1      28.547  37.840  45.731  1.00  0.00     0.003 A 
HETATM   28  C   UNL     1      27.488  38.714  45.512  1.00  0.00     0.001 A 
HETATM   29  C   UNL     1      26.719  39.164  46.586  1.00  0.00     0.010 A 
BRANCH  25  30
HETATM   30  O   UNL     1      28.298  37.492  49.413  1.00  0.00    -0.355 OA
HETATM   31  C   UNL     1      29.552  37.845  49.982  1.00  0.00     0.210 C 
ENDBRANCH  25  30
ENDBRANCH  23  24
ENDBRANCH  20  23
ENDBRANCH   1  19
TORSDOF 7
ENDMDL
MODEL 4
REMARK VINA RESULT:      -8.7      3.596      9.829
REMARK  7 active torsions:
REMARK  status: ('A' for Active; 'I' for Inactive)
REMARK    1  A    between atoms: O_2  and  C_3 
REMARK    2  A    between atoms: C_4  and  C_5 
REMARK    3  A    between atoms: C_5  and  C_6 
REMARK       I    between atoms: C_6  and  N_7 
REMARK    4  A    between atoms: N_7  and  N_8 
REMARK       I    between atoms: N_8  and  C_9 
REMARK    5  A    between atoms: C_9  and  C_10 
REMARK    6  A    between atoms: C_15  and  O_16 
REMARK    7  A    between atoms: O_16  and  C_17 
ROOT
HETATM    1  N   UNL     1      25.389  47.220  52.236  1.00  0.00    -0.262 N 
HETATM    2  C   UNL     1      25.501  46.858  50.911  1.00  0.00     0.286 C 
HETATM    3  O   UNL     1      26.523  46.338  50.463  1.00  0.00    -0.264 OA
HETATM    4  H   UNL     1      24.560  47.651  52.636  1.00  0.00     0.190 HD
ENDROOT
BRANCH   2   5
HETATM    5  C   UNL     1      24.346  47.135  50.087  1.00  0.00     0.103 A 
HETATM    6  N   UNL     1      23.566  46.118  49.581  1.00  0.00    -0.351 N 
HETATM    7  H   UNL     1      23.744  45.137  49.755  1.00  0.00     0.166 HD
HETATM    8  C   UNL     1      22.552  46.612  48.795  1.00  0.00     0.045 A 
HETATM    9  C   UNL     1      22.675  48.000  48.794  1.00  0.00     0.026 A 
HETATM   10  C   UNL     1      21.555  45.940  48.082  1.00  0.00     0.030 A 
HETATM   11  C   UNL     1      21.760  48.772  48.043  1.00  0.00     0.087 A 
HETATM   12  C   UNL     1      23.795  48.316  49.620  1.00  0.00     0.052 A 
HETATM   13  C   UNL     1      20.775  48.106  47.297  1.00  0.00     0.038 A 
HETATM   14  C   UNL     1      20.671  46.714  47.328  1.00  0.00     0.005 A 
BRANCH  11  15
HETATM   15  O   UNL     1      21.926  50.132  48.030  1.00  0.00    -0.289 OA
BRANCH  15  16
HETATM   16  C   UNL     1      21.105  50.825  48.955  1.00  0.00     0.505 C 
HETATM   17  F   UNL     1      21.883  51.159  50.016  1.00  0.00    -0.184 F 
HETATM   18  F   UNL     1      20.700  51.992  48.394  1.00  0.00    -0.184 F 
ENDBRANCH  15  16
ENDBRANCH  11  15
ENDBRANCH   2   5
BRANCH   1  19
HETATM   19  N   UNL     1      26.502  47.105  53.073  1.00  0.00    -0.267 N 
HETATM   20  C   UNL     1      26.377  46.363  54.229  1.00  0.00     0.240 C 
HETATM   21  O   UNL     1      25.348  45.748  54.507  1.00  0.00    -0.272 OA
HETATM   22  H   UNL     1      27.355  47.582  52.786  1.00  0.00     0.190 HD
BRANCH  20  23
HETATM   23  C   UNL     1      27.602  46.380  55.116  1.00  0.00     0.146 C 
BRANCH  23  24
HETATM   24  C   UNL     1      28.566  45.220  54.966  1.00  0.00    -0.016 A 
HETATM   25  C   UNL     1      29.690  45.159  55.818  1.00  0.00     0.074 A 
HETATM   26  C   UNL     1      30.609  44.112  55.691  1.00  0.00     0.037 A 
HETATM   27  C   UNL     1      30.417  43.120  54.729  1.00  0.00     0.003 A 
HETATM   28  C   UNL     1      29.310  43.169  53.888  1.00  0.00     0.001 A 
HETATM   29  C   UNL     1      28.390  44.212  54.005  1.00  0.00     0.010 A 
BRANCH  25  30
HETATM   30  O   UNL     1      29.804  46.183  56.725  1.00  0.00    -0.355 OA
HETATM   31  C   UNL     1      29.904  45.829  58.098  1.00  0.00     0.210 C 
ENDBRANCH  25  30
ENDBRANCH  23  24
ENDBRANCH  20  23
ENDBRANCH   1  19
TORSDOF 7
ENDMDL
MODEL 5
REMARK VINA RESULT:      -8.7      2.154      3.397
REMARK  7 active torsions:
REMARK  status: ('A' for Active; 'I' for Inactive)
REMARK    1  A    between atoms: O_2  and  C_3 
REMARK    2  A    between atoms: C_4  and  C_5 
REMARK    3  A    between atoms: C_5  and  C_6 
REMARK       I    between atoms: C_6  and  N_7 
REMARK    4  A    between atoms: N_7  and  N_8 
REMARK       I    between atoms: N_8  and  C_9 
REMARK    5  A    between atoms: C_9  and  C_10 
REMARK    6  A    between atoms: C_15  and  O_16 
REMARK    7  A    between atoms: O_16  and  C_17 
ROOT
HETATM    1  N   UNL     1      23.800  47.597  50.293  1.00  0.00    -0.262 N 
HETATM    2  C   UNL     1      24.395  46.358  50.196  1.00  0.00     0.286 C 
HETATM    3  O   UNL     1      24.151  45.591  49.265  1.00  0.00    -0.264 OA
HETATM    4  H   UNL     1      23.979  48.253  51.049  1.00  0.00     0.190 HD
ENDROOT
BRANCH   2   5
HETATM    5  C   UNL     1      25.314  46.021  51.259  1.00  0.00     0.103 A 
HETATM    6  N   UNL     1      26.253  45.024  51.106  1.00  0.00    -0.351 N 
HETATM    7  H   UNL     1      26.361  44.483  50.257  1.00  0.00     0.166 HD
HETATM    8  C   UNL     1      26.986  44.849  52.256  1.00  0.00     0.045 A 
HETATM    9  C   UNL     1      26.508  45.768  53.189  1.00  0.00     0.026 A 
HETATM   10  C   UNL     1      28.015  43.947  52.540  1.00  0.00     0.030 A 
HETATM   11  C   UNL     1      27.080  45.798  54.480  1.00  0.00     0.087 A 
HETATM   12  C   UNL     1      25.471  46.507  52.546  1.00  0.00     0.052 A 
HETATM   13  C   UNL     1      28.092  44.874  54.788  1.00  0.00     0.038 A 
HETATM   14  C   UNL     1      28.555  43.973  53.828  1.00  0.00     0.005 A 
BRANCH  11  15
HETATM   15  O   UNL     1      26.568  46.686  55.390  1.00  0.00    -0.289 OA
BRANCH  15  16
HETATM   16  C   UNL     1      27.202  47.954  55.381  1.00  0.00     0.505 C 
HETATM   17  F   UNL     1      28.148  47.927  54.410  1.00  0.00    -0.184 F 
HETATM   18  F   UNL     1      26.297  48.895  55.009  1.00  0.00    -0.184 F 
ENDBRANCH  15  16
ENDBRANCH  11  15
ENDBRANCH   2   5
BRANCH   1  19
HETATM   19  N   UNL     1      22.804  47.951  49.379  1.00  0.00    -0.267 N 
HETATM   20  C   UNL     1      22.693  49.277  49.013  1.00  0.00     0.240 C 
HETATM   21  O   UNL     1      23.481  50.136  49.410  1.00  0.00    -0.272 OA
HETATM   22  H   UNL     1      22.203  47.207  49.027  1.00  0.00     0.190 HD
BRANCH  20  23
HETATM   23  C   UNL     1      21.526  49.576  48.099  1.00  0.00     0.146 C 
BRANCH  23  24
HETATM   24  C   UNL     1      20.357  50.321  48.712  1.00  0.00    -0.016 A 
HETATM   25  C   UNL     1      19.426  49.598  49.488  1.00  0.00     0.074 A 
HETATM   26  C   UNL     1      18.326  50.253  50.051  1.00  0.00     0.037 A 
HETATM   27  C   UNL     1      18.145  51.622  49.854  1.00  0.00     0.003 A 
HETATM   28  C   UNL     1      19.059  52.344  49.094  1.00  0.00     0.001 A 
HETATM   29  C   UNL     1      20.158  51.699  48.526  1.00  0.00     0.010 A 
BRANCH  25  30
HETATM   30  O   UNL     1      19.678  48.255  49.619  1.00  0.00    -0.355 OA
HETATM   31  C   UNL     1      18.814  47.360  48.931  1.00  0.00     0.210 C 
ENDBRANCH  25  30
ENDBRANCH  23  24
ENDBRANCH  20  23
ENDBRANCH   1  19
TORSDOF 7
ENDMDL
MODEL 6
REMARK VINA RESULT:      -8.3      1.958      2.981
REMARK  7 active torsions:
REMARK  status: ('A' for Active; 'I' for Inactive)
REMARK    1  A    between atoms: O_2  and  C_3 
REMARK    2  A    between atoms: C_4  and  C_5 
REMARK    3  A    between atoms: C_5  and  C_6 
REMARK       I    between atoms: C_6  and  N_7 
REMARK    4  A    between atoms: N_7  and  N_8 
REMARK       I    between atoms: N_8  and  C_9 
REMARK    5  A    between atoms: C_9  and  C_10 
REMARK    6  A    between atoms: C_15  and  O_16 
REMARK    7  A    between atoms: O_16  and  C_17 
ROOT
HETATM    1  N   UNL     1      23.967  46.237  50.114  1.00  0.00    -0.262 N 
HETATM    2  C   UNL     1      24.974  46.759  50.897  1.00  0.00     0.286 C 
HETATM    3  O   UNL     1      25.198  47.969  50.945  1.00  0.00    -0.264 OA
HETATM    4  H   UNL     1      23.758  45.244  50.051  1.00  0.00     0.190 HD
ENDROOT
BRANCH   2   5
HETATM    5  C   UNL     1      25.748  45.795  51.645  1.00  0.00     0.103 A 
HETATM    6  N   UNL     1      25.981  44.528  51.155  1.00  0.00    -0.351 N 
HETATM    7  H   UNL     1      25.639  44.203  50.260  1.00  0.00     0.166 HD
HETATM    8  C   UNL     1      26.701  43.773  52.051  1.00  0.00     0.045 A 
HETATM    9  C   UNL     1      26.947  44.579  53.160  1.00  0.00     0.026 A 
HETATM   10  C   UNL     1      27.134  42.447  51.967  1.00  0.00     0.030 A 
HETATM   11  C   UNL     1      27.664  44.045  54.254  1.00  0.00     0.087 A 
HETATM   12  C   UNL     1      26.358  45.850  52.886  1.00  0.00     0.052 A 
HETATM   13  C   UNL     1      28.076  42.704  54.195  1.00  0.00     0.038 A 
HETATM   14  C   UNL     1      27.823  41.925  53.065  1.00  0.00     0.005 A 
BRANCH  11  15
HETATM   15  O   UNL     1      27.863  44.848  55.347  1.00  0.00    -0.289 OA
BRANCH  15  16
HETATM   16  C   UNL     1      29.118  45.505  55.363  1.00  0.00     0.505 C 
HETATM   17  F   UNL     1      28.891  46.806  55.675  1.00  0.00    -0.184 F 
HETATM   18  F   UNL     1      29.868  44.993  56.372  1.00  0.00    -0.184 F 
ENDBRANCH  15  16
ENDBRANCH  11  15
ENDBRANCH   2   5
BRANCH   1  19
HETATM   19  N   UNL     1      23.254  47.083  49.261  1.00  0.00    -0.267 N 
HETATM   20  C   UNL     1      22.280  46.530  48.454  1.00  0.00     0.240 C 
HETATM   21  O   UNL     1      21.977  45.339  48.514  1.00  0.00    -0.272 OA
HETATM   22  H   UNL     1      23.493  48.073  49.275  1.00  0.00     0.190 HD
BRANCH  20  23
HETATM   23  C   UNL     1      21.634  47.507  47.498  1.00  0.00     0.146 C 
BRANCH  23  24
HETATM   24  C   UNL     1      21.181  48.830  48.082  1.00  0.00    -0.016 A 
HETATM   25  C   UNL     1      22.032  49.950  47.963  1.00  0.00     0.074 A 
HETATM   26  C   UNL     1      21.651  51.181  48.509  1.00  0.00     0.037 A 
HETATM   27  C   UNL     1      20.428  51.310  49.167  1.00  0.00     0.003 A 
HETATM   28  C   UNL     1      19.581  50.214  49.286  1.00  0.00     0.001 A 
HETATM   29  C   UNL     1      19.954  48.981  48.747  1.00  0.00     0.010 A 
BRANCH  25  30
HETATM   30  O   UNL     1      23.219  49.727  47.311  1.00  0.00    -0.355 OA
HETATM   31  C   UNL     1      24.406  50.192  47.939  1.00  0.00     0.210 C 
ENDBRANCH  25  30
ENDBRANCH  23  24
ENDBRANCH  20  23
ENDBRANCH   1  19
TORSDOF 7
ENDMDL
MODEL 7
REMARK VINA RESULT:      -8.2      5.292      7.899
REMARK  7 active torsions:
REMARK  status: ('A' for Active; 'I' for Inactive)
REMARK    1  A    between atoms: O_2  and  C_3 
REMARK    2  A    between atoms: C_4  and  C_5 
REMARK    3  A    between atoms: C_5  and  C_6 
REMARK       I    between atoms: C_6  and  N_7 
REMARK    4  A    between atoms: N_7  and  N_8 
REMARK       I    between atoms: N_8  and  C_9 
REMARK    5  A    between atoms: C_9  and  C_10 
REMARK    6  A    between atoms: C_15  and  O_16 
REMARK    7  A    between atoms: O_16  and  C_17 
ROOT
HETATM    1  N   UNL     1      27.072  41.520  52.098  1.00  0.00    -0.262 N 
HETATM    2  C   UNL     1      28.301  41.473  52.719  1.00  0.00     0.286 C 
HETATM    3  O   UNL     1      29.084  40.541  52.540  1.00  0.00    -0.264 OA
HETATM    4  H   UNL     1      26.402  42.274  52.226  1.00  0.00     0.190 HD
ENDROOT
BRANCH   2   5
HETATM    5  C   UNL     1      28.600  42.582  53.597  1.00  0.00     0.103 A 
HETATM    6  N   UNL     1      29.767  42.621  54.329  1.00  0.00    -0.351 N 
HETATM    7  H   UNL     1      30.474  41.897  54.294  1.00  0.00     0.166 HD
HETATM    8  C   UNL     1      29.820  43.743  55.122  1.00  0.00     0.045 A 
HETATM    9  C   UNL     1      28.647  44.460  54.894  1.00  0.00     0.026 A 
HETATM   10  C   UNL     1      30.801  44.164  56.024  1.00  0.00     0.030 A 
HETATM   11  C   UNL     1      28.428  45.665  55.599  1.00  0.00     0.087 A 
HETATM   12  C   UNL     1      27.898  43.729  53.924  1.00  0.00     0.052 A 
HETATM   13  C   UNL     1      29.392  46.081  56.531  1.00  0.00     0.038 A 
HETATM   14  C   UNL     1      30.562  45.345  56.730  1.00  0.00     0.005 A 
BRANCH  11  15
HETATM   15  O   UNL     1      27.250  46.332  55.383  1.00  0.00    -0.289 OA
BRANCH  15  16
HETATM   16  C   UNL     1      27.309  47.286  54.337  1.00  0.00     0.505 C 
HETATM   17  F   UNL     1      26.053  47.769  54.158  1.00  0.00    -0.184 F 
HETATM   18  F   UNL     1      28.070  48.335  54.741  1.00  0.00    -0.184 F 
ENDBRANCH  15  16
ENDBRANCH  11  15
ENDBRANCH   2   5
BRANCH   1  19
HETATM   19  N   UNL     1      26.649  40.428  51.334  1.00  0.00    -0.267 N 
HETATM   20  C   UNL     1      26.840  40.472  49.968  1.00  0.00     0.240 C 
HETATM   21  O   UNL     1      27.428  41.402  49.417  1.00  0.00    -0.272 OA
HETATM   22  H   UNL     1      26.214  39.651  51.828  1.00  0.00     0.190 HD
BRANCH  20  23
HETATM   23  C   UNL     1      26.261  39.292  49.220  1.00  0.00     0.146 C 
BRANCH  23  24
HETATM   24  C   UNL     1      27.036  38.809  48.011  1.00  0.00    -0.016 A 
HETATM   25  C   UNL     1      28.077  37.875  48.203  1.00  0.00     0.074 A 
HETATM   26  C   UNL     1      28.824  37.424  47.109  1.00  0.00     0.037 A 
HETATM   27  C   UNL     1      28.542  37.889  45.824  1.00  0.00     0.003 A 
HETATM   28  C   UNL     1      27.516  38.806  45.625  1.00  0.00     0.001 A 
HETATM   29  C   UNL     1      26.767  39.264  46.709  1.00  0.00     0.010 A 
BRANCH  25  30
HETATM   30  O   UNL     1      28.291  37.483  49.501  1.00  0.00    -0.355 OA
HETATM   31  C   UNL     1      29.547  37.808  50.082  1.00  0.00     0.210 C 
ENDBRANCH  25  30
ENDBRANCH  23  24
ENDBRANCH  20  23
ENDBRANCH   1  19
TORSDOF 7
ENDMDL
MODEL 8
REMARK VINA RESULT:      -8.1      4.005      9.902
REMARK  7 active torsions:
REMARK  status: ('A' for Active; 'I' for Inactive)
REMARK    1  A    between atoms: O_2  and  C_3 
REMARK    2  A    between atoms: C_4  and  C_5 
REMARK    3  A    between atoms: C_5  and  C_6 
REMARK       I    between atoms: C_6  and  N_7 
REMARK    4  A    between atoms: N_7  and  N_8 
REMARK       I    between atoms: N_8  and  C_9 
REMARK    5  A    between atoms: C_9  and  C_10 
REMARK    6  A    between atoms: C_15  and  O_16 
REMARK    7  A    between atoms: O_16  and  C_17 
ROOT
HETATM    1  N   UNL     1      24.594  46.264  50.097  1.00  0.00    -0.262 N 
HETATM    2  C   UNL     1      24.696  47.616  49.851  1.00  0.00     0.286 C 
HETATM    3  O   UNL     1      25.735  48.239  50.066  1.00  0.00    -0.264 OA
HETATM    4  H   UNL     1      23.751  45.721  49.932  1.00  0.00     0.190 HD
ENDROOT
BRANCH   2   5
HETATM    5  C   UNL     1      23.504  48.249  49.335  1.00  0.00     0.103 A 
HETATM    6  N   UNL     1      23.335  49.615  49.394  1.00  0.00    -0.351 N 
HETATM    7  H   UNL     1      24.021  50.247  49.787  1.00  0.00     0.166 HD
HETATM    8  C   UNL     1      22.113  49.988  48.885  1.00  0.00     0.045 A 
HETATM    9  C   UNL     1      21.467  48.822  48.477  1.00  0.00     0.026 A 
HETATM   10  C   UNL     1      21.534  51.255  48.770  1.00  0.00     0.030 A 
HETATM   11  C   UNL     1      20.170  48.912  47.923  1.00  0.00     0.087 A 
HETATM   12  C   UNL     1      22.356  47.741  48.751  1.00  0.00     0.052 A 
HETATM   13  C   UNL     1      19.565  50.176  47.832  1.00  0.00     0.038 A 
HETATM   14  C   UNL     1      20.243  51.326  48.240  1.00  0.00     0.005 A 
BRANCH  11  15
HETATM   15  O   UNL     1      19.543  47.748  47.563  1.00  0.00    -0.289 OA
BRANCH  15  16
HETATM   16  C   UNL     1      18.833  47.122  48.619  1.00  0.00     0.505 C 
HETATM   17  F   UNL     1      19.506  45.991  48.945  1.00  0.00    -0.184 F 
HETATM   18  F   UNL     1      18.876  47.924  49.712  1.00  0.00    -0.184 F 
ENDBRANCH  15  16
ENDBRANCH  11  15
ENDBRANCH   2   5
BRANCH   1  19
HETATM   19  N   UNL     1      25.657  45.599  50.716  1.00  0.00    -0.267 N 
HETATM   20  C   UNL     1      25.376  44.763  51.777  1.00  0.00     0.240 C 
HETATM   21  O   UNL     1      24.224  44.533  52.145  1.00  0.00    -0.272 OA
HETATM   22  H   UNL     1      26.593  45.769  50.352  1.00  0.00     0.190 HD
BRANCH  20  23
HETATM   23  C   UNL     1      26.597  44.168  52.442  1.00  0.00     0.146 C 
BRANCH  23  24
HETATM   24  C   UNL     1      27.278  45.018  53.496  1.00  0.00    -0.016 A 
HETATM   25  C   UNL     1      28.372  44.472  54.202  1.00  0.00     0.074 A 
HETATM   26  C   UNL     1      29.009  45.224  55.195  1.00  0.00     0.037 A 
HETATM   27  C   UNL     1      28.573  46.516  55.489  1.00  0.00     0.003 A 
HETATM   28  C   UNL     1      27.498  47.063  54.796  1.00  0.00     0.001 A 
HETATM   29  C   UNL     1      26.854  46.320  53.806  1.00  0.00     0.010 A 
BRANCH  25  30
HETATM   30  O   UNL     1      28.724  43.192  53.855  1.00  0.00    -0.355 OA
HETATM   31  C   UNL     1      30.033  42.993  53.338  1.00  0.00     0.210 C 
ENDBRANCH  25  30
ENDBRANCH  23  24
ENDBRANCH  20  23
ENDBRANCH   1  19
TORSDOF 7
ENDMDL
MODEL 9
REMARK VINA RESULT:      -8.0      3.258      4.406
REMARK  7 active torsions:
REMARK  status: ('A' for Active; 'I' for Inactive)
REMARK    1  A    between atoms: O_2  and  C_3 
REMARK    2  A    between atoms: C_4  and  C_5 
REMARK    3  A    between atoms: C_5  and  C_6 
REMARK       I    between atoms: C_6  and  N_7 
REMARK    4  A    between atoms: N_7  and  N_8 
REMARK       I    between atoms: N_8  and  C_9 
REMARK    5  A    between atoms: C_9  and  C_10 
REMARK    6  A    between atoms: C_15  and  O_16 
REMARK    7  A    between atoms: O_16  and  C_17 
ROOT
HETATM    1  N   UNL     1      23.930  45.557  50.567  1.00  0.00    -0.262 N 
HETATM    2  C   UNL     1      24.726  46.558  51.081  1.00  0.00     0.286 C 
HETATM    3  O   UNL     1      24.624  47.725  50.705  1.00  0.00    -0.264 OA
HETATM    4  H   UNL     1      23.990  44.583  50.855  1.00  0.00     0.190 HD
ENDROOT
BRANCH   2   5
HETATM    5  C   UNL     1      25.685  46.144  52.079  1.00  0.00     0.103 A 
HETATM    6  N   UNL     1      26.149  47.022  53.035  1.00  0.00    -0.351 N 
HETATM    7  H   UNL     1      25.848  47.986  53.101  1.00  0.00     0.166 HD
HETATM    8  C   UNL     1      27.082  46.424  53.848  1.00  0.00     0.045 A 
HETATM    9  C   UNL     1      27.228  45.110  53.407  1.00  0.00     0.026 A 
HETATM   10  C   UNL     1      27.810  46.948  54.921  1.00  0.00     0.030 A 
HETATM   11  C   UNL     1      28.147  44.261  54.063  1.00  0.00     0.087 A 
HETATM   12  C   UNL     1      26.335  44.943  52.307  1.00  0.00     0.052 A 
HETATM   13  C   UNL     1      28.908  44.786  55.121  1.00  0.00     0.038 A 
HETATM   14  C   UNL     1      28.732  46.104  55.545  1.00  0.00     0.005 A 
BRANCH  11  15
HETATM   15  O   UNL     1      28.297  42.985  53.587  1.00  0.00    -0.289 OA
BRANCH  15  16
HETATM   16  C   UNL     1      29.642  42.616  53.334  1.00  0.00     0.505 C 
HETATM   17  F   UNL     1      29.629  41.350  52.844  1.00  0.00    -0.184 F 
HETATM   18  F   UNL     1      30.135  43.404  52.345  1.00  0.00    -0.184 F 
ENDBRANCH  15  16
ENDBRANCH  11  15
ENDBRANCH   2   5
BRANCH   1  19
HETATM   19  N   UNL     1      23.065  45.845  49.509  1.00  0.00    -0.267 N 
HETATM   20  C   UNL     1      22.121  44.901  49.159  1.00  0.00     0.240 C 
HETATM   21  O   UNL     1      21.974  43.855  49.790  1.00  0.00    -0.272 OA
HETATM   22  H   UNL     1      23.177  46.744  49.042  1.00  0.00     0.190 HD
BRANCH  20  23
HETATM   23  C   UNL     1      21.299  45.262  47.942  1.00  0.00     0.146 C 
BRANCH  23  24
HETATM   24  C   UNL     1      19.958  45.919  48.198  1.00  0.00    -0.016 A 
HETATM   25  C   UNL     1      18.785  45.239  47.806  1.00  0.00     0.074 A 
HETATM   26  C   UNL     1      17.532  45.827  48.011  1.00  0.00     0.037 A 
HETATM   27  C   UNL     1      17.434  47.084  48.608  1.00  0.00     0.003 A 
HETATM   28  C   UNL     1      18.584  47.760  49.001  1.00  0.00     0.001 A 
HETATM   29  C   UNL     1      19.838  47.183  48.798  1.00  0.00     0.010 A 
BRANCH  25  30
HETATM   30  O   UNL     1      18.977  44.014  47.217  1.00  0.00    -0.355 OA
HETATM   31  C   UNL     1      18.668  43.899  45.834  1.00  0.00     0.210 C 
ENDBRANCH  25  30
ENDBRANCH  23  24
ENDBRANCH  20  23
ENDBRANCH   1  19
TORSDOF 7
ENDMDL
MODEL 10
REMARK VINA RESULT:      -7.9      5.870      7.596
REMARK  7 active torsions:
REMARK  status: ('A' for Active; 'I' for Inactive)
REMARK    1  A    between atoms: O_2  and  C_3 
REMARK    2  A    between atoms: C_4  and  C_5 
REMARK    3  A    between atoms: C_5  and  C_6 
REMARK       I    between atoms: C_6  and  N_7 
REMARK    4  A    between atoms: N_7  and  N_8 
REMARK       I    between atoms: N_8  and  C_9 
REMARK    5  A    between atoms: C_9  and  C_10 
REMARK    6  A    between atoms: C_15  and  O_16 
REMARK    7  A    between atoms: O_16  and  C_17 
ROOT
HETATM    1  N   UNL     1      28.849  40.993  51.676  1.00  0.00    -0.262 N 
HETATM    2  C   UNL     1      28.265  42.236  51.793  1.00  0.00     0.286 C 
HETATM    3  O   UNL     1      27.481  42.668  50.949  1.00  0.00    -0.264 OA
HETATM    4  H   UNL     1      29.501  40.608  52.355  1.00  0.00     0.190 HD
ENDROOT
BRANCH   2   5
HETATM    5  C   UNL     1      28.641  42.995  52.964  1.00  0.00     0.103 A 
HETATM    6  N   UNL     1      27.796  43.938  53.508  1.00  0.00    -0.351 N 
HETATM    7  H   UNL     1      26.879  44.149  53.136  1.00  0.00     0.166 HD
HETATM    8  C   UNL     1      28.377  44.563  54.587  1.00  0.00     0.045 A 
HETATM    9  C   UNL     1      29.642  44.003  54.751  1.00  0.00     0.026 A 
HETATM   10  C   UNL     1      27.886  45.581  55.410  1.00  0.00     0.030 A 
HETATM   11  C   UNL     1      30.474  44.476  55.791  1.00  0.00     0.087 A 
HETATM   12  C   UNL     1      29.789  43.011  53.737  1.00  0.00     0.052 A 
HETATM   13  C   UNL     1      30.005  45.520  56.604  1.00  0.00     0.038 A 
HETATM   14  C   UNL     1      28.728  46.053  56.420  1.00  0.00     0.005 A 
BRANCH  11  15
HETATM   15  O   UNL     1      31.728  43.934  55.909  1.00  0.00    -0.289 OA
BRANCH  15  16
HETATM   16  C   UNL     1      31.941  43.227  57.118  1.00  0.00     0.505 C 
HETATM   17  F   UNL     1      31.981  44.141  58.120  1.00  0.00    -0.184 F 
HETATM   18  F   UNL     1      30.865  42.437  57.361  1.00  0.00    -0.184 F 
ENDBRANCH  15  16
ENDBRANCH  11  15
ENDBRANCH   2   5
BRANCH   1  19
HETATM   19  N   UNL     1      28.641  40.246  50.514  1.00  0.00    -0.267 N 
HETATM   20  C   UNL     1      29.212  38.993  50.430  1.00  0.00     0.240 C 
HETATM   21  O   UNL     1      29.834  38.491  51.366  1.00  0.00    -0.272 OA
HETATM   22  H   UNL     1      28.076  40.669  49.779  1.00  0.00     0.190 HD
BRANCH  20  23
HETATM   23  C   UNL     1      29.014  38.305  49.098  1.00  0.00     0.146 C 
BRANCH  23  24
HETATM   24  C   UNL     1      28.108  39.002  48.102  1.00  0.00    -0.016 A 
HETATM   25  C   UNL     1      26.810  38.487  47.893  1.00  0.00     0.074 A 
HETATM   26  C   UNL     1      25.957  39.095  46.966  1.00  0.00     0.037 A 
HETATM   27  C   UNL     1      26.380  40.215  46.249  1.00  0.00     0.003 A 
HETATM   28  C   UNL     1      27.655  40.731  46.451  1.00  0.00     0.001 A 
HETATM   29  C   UNL     1      28.515  40.130  47.371  1.00  0.00     0.010 A 
BRANCH  25  30
HETATM   30  O   UNL     1      26.485  37.378  48.633  1.00  0.00    -0.355 OA
HETATM   31  C   UNL     1      26.136  36.198  47.920  1.00  0.00     0.210 C 
ENDBRANCH  25  30
ENDBRANCH  23  24
ENDBRANCH  20  23
ENDBRANCH   1  19
TORSDOF 7
ENDMDL
