MODEL 1
REMARK VINA RESULT:      -8.4      0.000      0.000
REMARK  5 active torsions:
REMARK  status: ('A' for Active; 'I' for Inactive)
REMARK    1  A    between atoms: C_2  and  O_3 
REMARK    2  A    between atoms: O_3  and  C_4 
REMARK    3  A    between atoms: C_5  and  C_6 
REMARK       I    between atoms: C_6  and  N_7 
REMARK    4  A    between atoms: N_7  and  N_8 
REMARK    5  A    between atoms: C_9  and  C_10 
ROOT
HETATM    1  C   UNL     1      23.120  47.272  49.167  1.00  0.00     0.274 C 
HETATM    2  N   UNL     1      23.899  47.114  50.301  1.00  0.00    -0.243 N 
HETATM    3  O   UNL     1      22.899  46.391  48.338  1.00  0.00    -0.266 OA
HETATM    4  H   UNL     1      24.022  47.897  50.937  1.00  0.00     0.192 HD
ENDROOT
BRANCH   2   5
HETATM    5  N   UNL     1      24.557  45.938  50.516  1.00  0.00    -0.183 NA
HETATM    6  C   UNL     1      24.989  45.743  51.718  1.00  0.00     0.152 C 
BRANCH   6   7
HETATM    7  C   UNL     1      25.734  44.534  52.013  1.00  0.00     0.011 A 
HETATM    8  C   UNL     1      26.801  44.367  52.953  1.00  0.00     0.005 A 
HETATM    9  C   UNL     1      27.228  43.039  52.870  1.00  0.00     0.043 A 
HETATM   10  C   UNL     1      27.461  45.226  53.859  1.00  0.00     0.033 A 
HETATM   11  C   UNL     1      28.277  42.524  53.641  1.00  0.00     0.031 A 
HETATM   12  N   UNL     1      26.442  42.419  51.926  1.00  0.00    -0.364 N 
HETATM   13  C   UNL     1      28.915  43.394  54.529  1.00  0.00     0.021 A 
HETATM   14  C   UNL     1      28.511  44.723  54.634  1.00  0.00     0.012 A 
HETATM   15 BR   UNL     1      29.402  45.873  55.844  1.00  0.00    -0.051 Br
HETATM   16  H   UNL     1      26.526  41.450  51.650  1.00  0.00     0.165 HD
HETATM   17  C   UNL     1      25.547  43.308  51.402  1.00  0.00     0.102 A 
ENDBRANCH   6   7
ENDBRANCH   2   5
BRANCH   1  18
HETATM   18  C   UNL     1      22.577  48.645  48.931  1.00  0.00     0.067 A 
HETATM   19  C   UNL     1      23.350  49.818  48.970  1.00  0.00     0.084 A 
HETATM   20  C   UNL     1      22.752  51.051  48.670  1.00  0.00     0.038 A 
HETATM   21  C   UNL     1      21.388  51.126  48.379  1.00  0.00     0.003 A 
HETATM   22  C   UNL     1      20.611  49.972  48.378  1.00  0.00     0.001 A 
HETATM   23  C   UNL     1      21.201  48.739  48.651  1.00  0.00     0.020 A 
BRANCH  19  24
HETATM   24  O   UNL     1      24.691  49.727  49.253  1.00  0.00    -0.350 OA
BRANCH  24  25
HETATM   25  C   UNL     1      25.537  49.918  48.112  1.00  0.00     0.171 C 
HETATM   26  C   UNL     1      26.976  49.727  48.555  1.00  0.00     0.034 C 
ENDBRANCH  24  25
ENDBRANCH  19  24
ENDBRANCH   1  18
TORSDOF 5
ENDMDL
MODEL 2
REMARK VINA RESULT:      -8.3      5.693      8.717
REMARK  5 active torsions:
REMARK  status: ('A' for Active; 'I' for Inactive)
REMARK    1  A    between atoms: C_2  and  O_3 
REMARK    2  A    between atoms: O_3  and  C_4 
REMARK    3  A    between atoms: C_5  and  C_6 
REMARK       I    between atoms: C_6  and  N_7 
REMARK    4  A    between atoms: N_7  and  N_8 
REMARK    5  A    between atoms: C_9  and  C_10 
ROOT
HETATM    1  C   UNL     1      29.720  43.442  54.117  1.00  0.00     0.274 C 
HETATM    2  N   UNL     1      28.370  43.593  53.845  1.00  0.00    -0.243 N 
HETATM    3  O   UNL     1      30.519  42.845  53.397  1.00  0.00    -0.266 OA
HETATM    4  H   UNL     1      27.784  44.110  54.495  1.00  0.00     0.192 HD
ENDROOT
BRANCH   2   5
HETATM    5  N   UNL     1      27.824  42.983  52.754  1.00  0.00    -0.183 NA
HETATM    6  C   UNL     1      27.772  43.694  51.676  1.00  0.00     0.152 C 
BRANCH   6   7
HETATM    7  C   UNL     1      27.168  43.127  50.486  1.00  0.00     0.011 A 
HETATM    8  C   UNL     1      27.392  41.833  49.916  1.00  0.00     0.005 A 
HETATM    9  C   UNL     1      26.614  41.743  48.760  1.00  0.00     0.043 A 
HETATM   10  C   UNL     1      28.200  40.729  50.266  1.00  0.00     0.033 A 
HETATM   11  C   UNL     1      26.600  40.613  47.934  1.00  0.00     0.031 A 
HETATM   12  N   UNL     1      25.932  42.932  48.636  1.00  0.00    -0.364 N 
HETATM   13  C   UNL     1      27.409  39.533  48.300  1.00  0.00     0.021 A 
HETATM   14  C   UNL     1      28.195  39.594  49.448  1.00  0.00     0.012 A 
HETATM   15 BR   UNL     1      29.281  38.115  49.910  1.00  0.00    -0.051 Br
HETATM   16  H   UNL     1      25.293  43.156  47.886  1.00  0.00     0.165 HD
HETATM   17  C   UNL     1      26.261  43.771  49.663  1.00  0.00     0.102 A 
ENDBRANCH   6   7
ENDBRANCH   2   5
BRANCH   1  18
HETATM   18  C   UNL     1      30.194  44.003  55.420  1.00  0.00     0.067 A 
HETATM   19  C   UNL     1      29.864  45.283  55.895  1.00  0.00     0.084 A 
HETATM   20  C   UNL     1      30.310  45.687  57.163  1.00  0.00     0.038 A 
HETATM   21  C   UNL     1      31.115  44.845  57.932  1.00  0.00     0.003 A 
HETATM   22  C   UNL     1      31.477  43.592  57.448  1.00  0.00     0.001 A 
HETATM   23  C   UNL     1      31.018  43.173  56.201  1.00  0.00     0.020 A 
BRANCH  19  24
HETATM   24  O   UNL     1      29.067  46.098  55.128  1.00  0.00    -0.350 OA
BRANCH  24  25
HETATM   25  C   UNL     1      27.974  46.682  55.849  1.00  0.00     0.171 C 
HETATM   26  C   UNL     1      27.099  47.425  54.857  1.00  0.00     0.034 C 
ENDBRANCH  24  25
ENDBRANCH  19  24
ENDBRANCH   1  18
TORSDOF 5
ENDMDL
MODEL 3
REMARK VINA RESULT:      -8.1      3.559      8.355
REMARK  5 active torsions:
REMARK  status: ('A' for Active; 'I' for Inactive)
REMARK    1  A    between atoms: C_2  and  O_3 
REMARK    2  A    between atoms: O_3  and  C_4 
REMARK    3  A    between atoms: C_5  and  C_6 
REMARK       I    between atoms: C_6  and  N_7 
REMARK    4  A    between atoms: N_7  and  N_8 
REMARK    5  A    between atoms: C_9  and  C_10 
ROOT
HETATM    1  C   UNL     1      27.684  43.812  53.287  1.00  0.00     0.274 C 
HETATM    2  N   UNL     1      27.233  44.867  52.511  1.00  0.00    -0.243 N 
HETATM    3  O   UNL     1      27.265  42.658  53.216  1.00  0.00    -0.266 OA
HETATM    4  H   UNL     1      27.643  45.789  52.633  1.00  0.00     0.192 HD
ENDROOT
BRANCH   2   5
HETATM    5  N   UNL     1      26.193  44.680  51.648  1.00  0.00    -0.183 NA
HETATM    6  C   UNL     1      25.701  45.750  51.115  1.00  0.00     0.152 C 
BRANCH   6   7
HETATM    7  C   UNL     1      24.567  45.635  50.219  1.00  0.00     0.011 A 
HETATM    8  C   UNL     1      23.882  46.686  49.529  1.00  0.00     0.005 A 
HETATM    9  C   UNL     1      22.838  46.103  48.807  1.00  0.00     0.043 A 
HETATM   10  C   UNL     1      24.039  48.088  49.463  1.00  0.00     0.033 A 
HETATM   11  C   UNL     1      21.944  46.842  48.024  1.00  0.00     0.031 A 
HETATM   12  N   UNL     1      22.894  44.747  49.038  1.00  0.00    -0.364 N 
HETATM   13  C   UNL     1      22.119  48.228  47.976  1.00  0.00     0.021 A 
HETATM   14  C   UNL     1      23.151  48.838  48.684  1.00  0.00     0.012 A 
HETATM   15 BR   UNL     1      23.354  50.717  48.599  1.00  0.00    -0.051 Br
HETATM   16  H   UNL     1      22.256  44.068  48.646  1.00  0.00     0.165 HD
HETATM   17  C   UNL     1      23.923  44.457  49.887  1.00  0.00     0.102 A 
ENDBRANCH   6   7
ENDBRANCH   2   5
BRANCH   1  18
HETATM   18  C   UNL     1      28.710  44.151  54.321  1.00  0.00     0.067 A 
HETATM   19  C   UNL     1      28.605  45.231  55.214  1.00  0.00     0.084 A 
HETATM   20  C   UNL     1      29.596  45.422  56.189  1.00  0.00     0.038 A 
HETATM   21  C   UNL     1      30.705  44.575  56.248  1.00  0.00     0.003 A 
HETATM   22  C   UNL     1      30.833  43.528  55.341  1.00  0.00     0.001 A 
HETATM   23  C   UNL     1      29.841  43.317  54.384  1.00  0.00     0.020 A 
BRANCH  19  24
HETATM   24  O   UNL     1      27.506  46.052  55.145  1.00  0.00    -0.350 OA
BRANCH  24  25
HETATM   25  C   UNL     1      27.830  47.445  55.055  1.00  0.00     0.171 C 
HETATM   26  C   UNL     1      26.562  48.241  55.309  1.00  0.00     0.034 C 
ENDBRANCH  24  25
ENDBRANCH  19  24
ENDBRANCH   1  18
TORSDOF 5
ENDMDL
MODEL 4
REMARK VINA RESULT:      -8.0      5.838      8.701
REMARK  5 active torsions:
REMARK  status: ('A' for Active; 'I' for Inactive)
REMARK    1  A    between atoms: C_2  and  O_3 
REMARK    2  A    between atoms: O_3  and  C_4 
REMARK    3  A    between atoms: C_5  and  C_6 
REMARK       I    between atoms: C_6  and  N_7 
REMARK    4  A    between atoms: N_7  and  N_8 
REMARK    5  A    between atoms: C_9  and  C_10 
ROOT
HETATM    1  C   UNL     1      29.850  43.551  53.953  1.00  0.00     0.274 C 
HETATM    2  N   UNL     1      28.554  43.810  53.539  1.00  0.00    -0.243 N 
HETATM    3  O   UNL     1      30.676  42.904  53.311  1.00  0.00    -0.266 OA
HETATM    4  H   UNL     1      27.940  44.362  54.133  1.00  0.00     0.192 HD
ENDROOT
BRANCH   2   5
HETATM    5  N   UNL     1      28.087  43.259  52.381  1.00  0.00    -0.183 NA
HETATM    6  C   UNL     1      27.713  42.024  52.453  1.00  0.00     0.152 C 
BRANCH   6   7
HETATM    7  C   UNL     1      27.243  41.358  51.255  1.00  0.00     0.011 A 
HETATM    8  C   UNL     1      26.058  41.638  50.500  1.00  0.00     0.005 A 
HETATM    9  C   UNL     1      26.006  40.722  49.447  1.00  0.00     0.043 A 
HETATM   10  C   UNL     1      25.011  42.577  50.623  1.00  0.00     0.033 A 
HETATM   11  C   UNL     1      24.965  40.692  48.511  1.00  0.00     0.031 A 
HETATM   12  N   UNL     1      27.122  39.923  49.548  1.00  0.00    -0.364 N 
HETATM   13  C   UNL     1      23.939  41.630  48.654  1.00  0.00     0.021 A 
HETATM   14  C   UNL     1      23.965  42.556  49.694  1.00  0.00     0.012 A 
HETATM   15 BR   UNL     1      22.555  43.808  49.859  1.00  0.00    -0.051 Br
HETATM   16  H   UNL     1      27.349  39.165  48.920  1.00  0.00     0.165 HD
HETATM   17  C   UNL     1      27.867  40.293  50.631  1.00  0.00     0.102 A 
ENDBRANCH   6   7
ENDBRANCH   2   5
BRANCH   1  18
HETATM   18  C   UNL     1      30.218  44.055  55.312  1.00  0.00     0.067 A 
HETATM   19  C   UNL     1      29.826  45.303  55.824  1.00  0.00     0.084 A 
HETATM   20  C   UNL     1      30.173  45.651  57.139  1.00  0.00     0.038 A 
HETATM   21  C   UNL     1      30.941  44.788  57.921  1.00  0.00     0.003 A 
HETATM   22  C   UNL     1      31.366  43.568  57.404  1.00  0.00     0.001 A 
HETATM   23  C   UNL     1      31.005  43.203  56.108  1.00  0.00     0.020 A 
BRANCH  19  24
HETATM   24  O   UNL     1      29.066  46.139  55.043  1.00  0.00    -0.350 OA
BRANCH  24  25
HETATM   25  C   UNL     1      27.955  46.725  55.735  1.00  0.00     0.171 C 
HETATM   26  C   UNL     1      26.880  47.048  54.713  1.00  0.00     0.034 C 
ENDBRANCH  24  25
ENDBRANCH  19  24
ENDBRANCH   1  18
TORSDOF 5
ENDMDL
MODEL 5
REMARK VINA RESULT:      -7.9      3.301      8.494
REMARK  5 active torsions:
REMARK  status: ('A' for Active; 'I' for Inactive)
REMARK    1  A    between atoms: C_2  and  O_3 
REMARK    2  A    between atoms: O_3  and  C_4 
REMARK    3  A    between atoms: C_5  and  C_6 
REMARK       I    between atoms: C_6  and  N_7 
REMARK    4  A    between atoms: N_7  and  N_8 
REMARK    5  A    between atoms: C_9  and  C_10 
ROOT
HETATM    1  C   UNL     1      26.275  46.809  53.239  1.00  0.00     0.274 C 
HETATM    2  N   UNL     1      26.109  46.664  51.872  1.00  0.00    -0.243 N 
HETATM    3  O   UNL     1      25.811  47.729  53.910  1.00  0.00    -0.266 OA
HETATM    4  H   UNL     1      26.523  45.865  51.399  1.00  0.00     0.192 HD
ENDROOT
BRANCH   2   5
HETATM    5  N   UNL     1      25.461  47.631  51.160  1.00  0.00    -0.183 NA
HETATM    6  C   UNL     1      25.792  47.733  49.914  1.00  0.00     0.152 C 
BRANCH   6   7
HETATM    7  C   UNL     1      25.176  48.764  49.102  1.00  0.00     0.011 A 
HETATM    8  C   UNL     1      23.784  48.949  48.822  1.00  0.00     0.005 A 
HETATM    9  C   UNL     1      23.670  50.052  47.974  1.00  0.00     0.043 A 
HETATM   10  C   UNL     1      22.605  48.269  49.198  1.00  0.00     0.033 A 
HETATM   11  C   UNL     1      22.444  50.513  47.479  1.00  0.00     0.031 A 
HETATM   12  N   UNL     1      24.943  50.529  47.755  1.00  0.00    -0.364 N 
HETATM   13  C   UNL     1      21.291  49.823  47.863  1.00  0.00     0.021 A 
HETATM   14  C   UNL     1      21.373  48.720  48.709  1.00  0.00     0.012 A 
HETATM   15 BR   UNL     1      19.791  47.807  49.204  1.00  0.00    -0.051 Br
HETATM   16  H   UNL     1      25.170  51.323  47.174  1.00  0.00     0.165 HD
HETATM   17  C   UNL     1      25.853  49.761  48.423  1.00  0.00     0.102 A 
ENDBRANCH   6   7
ENDBRANCH   2   5
BRANCH   1  18
HETATM   18  C   UNL     1      27.141  45.788  53.906  1.00  0.00     0.067 A 
HETATM   19  C   UNL     1      27.060  44.406  53.667  1.00  0.00     0.084 A 
HETATM   20  C   UNL     1      27.965  43.540  54.300  1.00  0.00     0.038 A 
HETATM   21  C   UNL     1      28.911  44.036  55.198  1.00  0.00     0.003 A 
HETATM   22  C   UNL     1      28.969  45.400  55.468  1.00  0.00     0.001 A 
HETATM   23  C   UNL     1      28.090  46.270  54.826  1.00  0.00     0.020 A 
BRANCH  19  24
HETATM   24  O   UNL     1      26.127  43.934  52.776  1.00  0.00    -0.350 OA
BRANCH  24  25
HETATM   25  C   UNL     1      26.649  42.980  51.843  1.00  0.00     0.171 C 
HETATM   26  C   UNL     1      27.267  43.742  50.685  1.00  0.00     0.034 C 
ENDBRANCH  24  25
ENDBRANCH  19  24
ENDBRANCH   1  18
TORSDOF 5
ENDMDL
MODEL 6
REMARK VINA RESULT:      -7.9      1.185      2.627
REMARK  5 active torsions:
REMARK  status: ('A' for Active; 'I' for Inactive)
REMARK    1  A    between atoms: C_2  and  O_3 
REMARK    2  A    between atoms: O_3  and  C_4 
REMARK    3  A    between atoms: C_5  and  C_6 
REMARK       I    between atoms: C_6  and  N_7 
REMARK    4  A    between atoms: N_7  and  N_8 
REMARK    5  A    between atoms: C_9  and  C_10 
ROOT
HETATM    1  C   UNL     1      23.133  47.157  49.213  1.00  0.00     0.274 C 
HETATM    2  N   UNL     1      23.934  47.017  50.335  1.00  0.00    -0.243 N 
HETATM    3  O   UNL     1      22.815  46.240  48.459  1.00  0.00    -0.266 OA
HETATM    4  H   UNL     1      24.141  47.832  50.907  1.00  0.00     0.192 HD
ENDROOT
BRANCH   2   5
HETATM    5  N   UNL     1      24.503  45.810  50.618  1.00  0.00    -0.183 NA
HETATM    6  C   UNL     1      25.278  45.779  51.651  1.00  0.00     0.152 C 
BRANCH   6   7
HETATM    7  C   UNL     1      25.950  44.540  51.992  1.00  0.00     0.011 A 
HETATM    8  C   UNL     1      26.981  44.338  52.966  1.00  0.00     0.005 A 
HETATM    9  C   UNL     1      27.340  42.989  52.923  1.00  0.00     0.043 A 
HETATM   10  C   UNL     1      27.658  45.182  53.874  1.00  0.00     0.033 A 
HETATM   11  C   UNL     1      28.339  42.438  53.734  1.00  0.00     0.031 A 
HETATM   12  N   UNL     1      26.550  42.390  51.968  1.00  0.00    -0.364 N 
HETATM   13  C   UNL     1      28.996  43.292  54.623  1.00  0.00     0.021 A 
HETATM   14  C   UNL     1      28.658  44.642  54.690  1.00  0.00     0.012 A 
HETATM   15 BR   UNL     1      29.573  45.771  55.902  1.00  0.00    -0.051 Br
HETATM   16  H   UNL     1      26.592  41.412  51.715  1.00  0.00     0.165 HD
HETATM   17  C   UNL     1      25.718  43.312  51.401  1.00  0.00     0.102 A 
ENDBRANCH   6   7
ENDBRANCH   2   5
BRANCH   1  18
HETATM   18  C   UNL     1      22.695  48.550  48.890  1.00  0.00     0.067 A 
HETATM   19  C   UNL     1      21.368  49.002  48.982  1.00  0.00     0.084 A 
HETATM   20  C   UNL     1      21.075  50.348  48.716  1.00  0.00     0.038 A 
HETATM   21  C   UNL     1      22.083  51.227  48.317  1.00  0.00     0.003 A 
HETATM   22  C   UNL     1      23.392  50.775  48.186  1.00  0.00     0.001 A 
HETATM   23  C   UNL     1      23.697  49.445  48.472  1.00  0.00     0.020 A 
BRANCH  19  24
HETATM   24  O   UNL     1      20.388  48.125  49.380  1.00  0.00    -0.350 OA
BRANCH  24  25
HETATM   25  C   UNL     1      19.097  48.730  49.530  1.00  0.00     0.171 C 
HETATM   26  C   UNL     1      18.703  48.645  50.993  1.00  0.00     0.034 C 
ENDBRANCH  24  25
ENDBRANCH  19  24
ENDBRANCH   1  18
TORSDOF 5
ENDMDL
MODEL 7
REMARK VINA RESULT:      -7.8      5.596      8.525
REMARK  5 active torsions:
REMARK  status: ('A' for Active; 'I' for Inactive)
REMARK    1  A    between atoms: C_2  and  O_3 
REMARK    2  A    between atoms: O_3  and  C_4 
REMARK    3  A    between atoms: C_5  and  C_6 
REMARK       I    between atoms: C_6  and  N_7 
REMARK    4  A    between atoms: N_7  and  N_8 
REMARK    5  A    between atoms: C_9  and  C_10 
ROOT
HETATM    1  C   UNL     1      27.428  41.094  49.309  1.00  0.00     0.274 C 
HETATM    2  N   UNL     1      27.331  41.055  50.690  1.00  0.00    -0.243 N 
HETATM    3  O   UNL     1      27.469  42.123  48.636  1.00  0.00    -0.266 OA
HETATM    4  H   UNL     1      27.310  40.157  51.165  1.00  0.00     0.192 HD
ENDROOT
BRANCH   2   5
HETATM    5  N   UNL     1      27.184  42.214  51.394  1.00  0.00    -0.183 NA
HETATM    6  C   UNL     1      28.151  42.514  52.197  1.00  0.00     0.152 C 
BRANCH   6   7
HETATM    7  C   UNL     1      28.049  43.711  53.010  1.00  0.00     0.011 A 
HETATM    8  C   UNL     1      28.830  44.064  54.157  1.00  0.00     0.005 A 
HETATM    9  C   UNL     1      28.354  45.290  54.626  1.00  0.00     0.043 A 
HETATM   10  C   UNL     1      29.891  43.447  54.854  1.00  0.00     0.033 A 
HETATM   11  C   UNL     1      28.879  45.932  55.754  1.00  0.00     0.031 A 
HETATM   12  N   UNL     1      27.331  45.675  53.790  1.00  0.00    -0.364 N 
HETATM   13  C   UNL     1      29.928  45.301  56.429  1.00  0.00     0.021 A 
HETATM   14  C   UNL     1      30.424  44.078  55.984  1.00  0.00     0.012 A 
HETATM   15 BR   UNL     1      31.841  43.250  56.926  1.00  0.00    -0.051 Br
HETATM   16  H   UNL     1      26.794  46.525  53.889  1.00  0.00     0.165 HD
HETATM   17  C   UNL     1      27.137  44.733  52.821  1.00  0.00     0.102 A 
ENDBRANCH   6   7
ENDBRANCH   2   5
BRANCH   1  18
HETATM   18  C   UNL     1      27.415  39.771  48.613  1.00  0.00     0.067 A 
HETATM   19  C   UNL     1      28.058  38.618  49.095  1.00  0.00     0.084 A 
HETATM   20  C   UNL     1      27.929  37.409  48.394  1.00  0.00     0.038 A 
HETATM   21  C   UNL     1      27.206  37.355  47.201  1.00  0.00     0.003 A 
HETATM   22  C   UNL     1      26.600  38.503  46.700  1.00  0.00     0.001 A 
HETATM   23  C   UNL     1      26.703  39.703  47.401  1.00  0.00     0.020 A 
BRANCH  19  24
HETATM   24  O   UNL     1      28.762  38.687  50.272  1.00  0.00    -0.350 OA
BRANCH  24  25
HETATM   25  C   UNL     1      29.971  37.917  50.269  1.00  0.00     0.171 C 
HETATM   26  C   UNL     1      29.930  36.971  51.455  1.00  0.00     0.034 C 
ENDBRANCH  24  25
ENDBRANCH  19  24
ENDBRANCH   1  18
TORSDOF 5
ENDMDL
MODEL 8
REMARK VINA RESULT:      -7.7      1.355      2.571
REMARK  5 active torsions:
REMARK  status: ('A' for Active; 'I' for Inactive)
REMARK    1  A    between atoms: C_2  and  O_3 
REMARK    2  A    between atoms: O_3  and  C_4 
REMARK    3  A    between atoms: C_5  and  C_6 
REMARK       I    between atoms: C_6  and  N_7 
REMARK    4  A    between atoms: N_7  and  N_8 
REMARK    5  A    between atoms: C_9  and  C_10 
ROOT
HETATM    1  C   UNL     1      23.864  48.321  49.348  1.00  0.00     0.274 C 
HETATM    2  N   UNL     1      23.608  46.986  49.611  1.00  0.00    -0.243 N 
HETATM    3  O   UNL     1      24.946  48.877  49.525  1.00  0.00    -0.266 OA
HETATM    4  H   UNL     1      22.682  46.608  49.428  1.00  0.00     0.192 HD
ENDROOT
BRANCH   2   5
HETATM    5  N   UNL     1      24.572  46.209  50.186  1.00  0.00    -0.183 NA
HETATM    6  C   UNL     1      24.156  45.137  50.775  1.00  0.00     0.152 C 
BRANCH   6   7
HETATM    7  C   UNL     1      25.117  44.282  51.444  1.00  0.00     0.011 A 
HETATM    8  C   UNL     1      26.029  44.635  52.491  1.00  0.00     0.005 A 
HETATM    9  C   UNL     1      26.775  43.494  52.798  1.00  0.00     0.043 A 
HETATM   10  C   UNL     1      26.304  45.825  53.198  1.00  0.00     0.033 A 
HETATM   11  C   UNL     1      27.781  43.479  53.772  1.00  0.00     0.031 A 
HETATM   12  N   UNL     1      26.326  42.483  51.980  1.00  0.00    -0.364 N 
HETATM   13  C   UNL     1      28.037  44.670  54.457  1.00  0.00     0.021 A 
HETATM   14  C   UNL     1      27.308  45.822  54.173  1.00  0.00     0.012 A 
HETATM   15 BR   UNL     1      27.686  47.418  55.117  1.00  0.00    -0.051 Br
HETATM   16  H   UNL     1      26.687  41.539  51.977  1.00  0.00     0.165 HD
HETATM   17  C   UNL     1      25.336  42.946  51.161  1.00  0.00     0.102 A 
ENDBRANCH   6   7
ENDBRANCH   2   5
BRANCH   1  18
HETATM   18  C   UNL     1      22.699  49.131  48.877  1.00  0.00     0.067 A 
HETATM   19  C   UNL     1      21.834  48.743  47.840  1.00  0.00     0.084 A 
HETATM   20  C   UNL     1      20.731  49.549  47.519  1.00  0.00     0.038 A 
HETATM   21  C   UNL     1      20.515  50.754  48.190  1.00  0.00     0.003 A 
HETATM   22  C   UNL     1      21.391  51.162  49.191  1.00  0.00     0.001 A 
HETATM   23  C   UNL     1      22.476  50.356  49.533  1.00  0.00     0.020 A 
BRANCH  19  24
HETATM   24  O   UNL     1      22.057  47.552  47.192  1.00  0.00    -0.350 OA
BRANCH  24  25
HETATM   25  C   UNL     1      20.860  46.825  46.888  1.00  0.00     0.171 C 
HETATM   26  C   UNL     1      20.878  45.532  47.682  1.00  0.00     0.034 C 
ENDBRANCH  24  25
ENDBRANCH  19  24
ENDBRANCH   1  18
TORSDOF 5
ENDMDL
MODEL 9
REMARK VINA RESULT:      -7.7      2.266      3.162
REMARK  5 active torsions:
REMARK  status: ('A' for Active; 'I' for Inactive)
REMARK    1  A    between atoms: C_2  and  O_3 
REMARK    2  A    between atoms: O_3  and  C_4 
REMARK    3  A    between atoms: C_5  and  C_6 
REMARK       I    between atoms: C_6  and  N_7 
REMARK    4  A    between atoms: N_7  and  N_8 
REMARK    5  A    between atoms: C_9  and  C_10 
ROOT
HETATM    1  C   UNL     1      24.602  46.261  50.395  1.00  0.00     0.274 C 
HETATM    2  N   UNL     1      25.132  47.269  51.184  1.00  0.00    -0.243 N 
HETATM    3  O   UNL     1      24.960  45.085  50.424  1.00  0.00    -0.266 OA
HETATM    4  H   UNL     1      24.769  48.214  51.098  1.00  0.00     0.192 HD
ENDROOT
BRANCH   2   5
HETATM    5  N   UNL     1      26.186  47.003  52.009  1.00  0.00    -0.183 NA
HETATM    6  C   UNL     1      25.896  46.826  53.256  1.00  0.00     0.152 C 
BRANCH   6   7
HETATM    7  C   UNL     1      26.968  46.580  54.201  1.00  0.00     0.011 A 
HETATM    8  C   UNL     1      27.857  45.459  54.249  1.00  0.00     0.005 A 
HETATM    9  C   UNL     1      28.702  45.641  55.347  1.00  0.00     0.043 A 
HETATM   10  C   UNL     1      28.016  44.292  53.470  1.00  0.00     0.033 A 
HETATM   11  C   UNL     1      29.694  44.721  55.709  1.00  0.00     0.031 A 
HETATM   12  N   UNL     1      28.349  46.833  55.937  1.00  0.00    -0.364 N 
HETATM   13  C   UNL     1      29.830  43.573  54.924  1.00  0.00     0.021 A 
HETATM   14  C   UNL     1      29.003  43.365  53.823  1.00  0.00     0.012 A 
HETATM   15 BR   UNL     1      29.213  41.796  52.786  1.00  0.00    -0.051 Br
HETATM   16  H   UNL     1      28.788  47.223  56.760  1.00  0.00     0.165 HD
HETATM   17  C   UNL     1      27.307  47.401  55.261  1.00  0.00     0.102 A 
ENDBRANCH   6   7
ENDBRANCH   2   5
BRANCH   1  18
HETATM   18  C   UNL     1      23.566  46.681  49.402  1.00  0.00     0.067 A 
HETATM   19  C   UNL     1      23.294  48.017  49.062  1.00  0.00     0.084 A 
HETATM   20  C   UNL     1      22.344  48.299  48.069  1.00  0.00     0.038 A 
HETATM   21  C   UNL     1      21.636  47.266  47.451  1.00  0.00     0.003 A 
HETATM   22  C   UNL     1      21.873  45.944  47.814  1.00  0.00     0.001 A 
HETATM   23  C   UNL     1      22.833  45.653  48.782  1.00  0.00     0.020 A 
BRANCH  19  24
HETATM   24  O   UNL     1      24.003  49.022  49.675  1.00  0.00    -0.350 OA
BRANCH  24  25
HETATM   25  C   UNL     1      24.503  50.013  48.768  1.00  0.00     0.171 C 
HETATM   26  C   UNL     1      25.876  49.571  48.297  1.00  0.00     0.034 C 
ENDBRANCH  24  25
ENDBRANCH  19  24
ENDBRANCH   1  18
TORSDOF 5
ENDMDL
MODEL 10
REMARK VINA RESULT:      -7.6      4.557      9.376
REMARK  5 active torsions:
REMARK  status: ('A' for Active; 'I' for Inactive)
REMARK    1  A    between atoms: C_2  and  O_3 
REMARK    2  A    between atoms: O_3  and  C_4 
REMARK    3  A    between atoms: C_5  and  C_6 
REMARK       I    between atoms: C_6  and  N_7 
REMARK    4  A    between atoms: N_7  and  N_8 
REMARK    5  A    between atoms: C_9  and  C_10 
ROOT
HETATM    1  C   UNL     1      23.137  49.206  48.653  1.00  0.00     0.274 C 
HETATM    2  N   UNL     1      22.400  49.766  49.684  1.00  0.00    -0.243 N 
HETATM    3  O   UNL     1      22.666  48.810  47.589  1.00  0.00    -0.266 OA
HETATM    4  H   UNL     1      22.875  50.073  50.529  1.00  0.00     0.192 HD
ENDROOT
BRANCH   2   5
HETATM    5  N   UNL     1      21.040  49.828  49.592  1.00  0.00    -0.183 NA
HETATM    6  C   UNL     1      20.541  51.001  49.380  1.00  0.00     0.152 C 
BRANCH   6   7
HETATM    7  C   UNL     1      19.101  51.154  49.311  1.00  0.00     0.011 A 
HETATM    8  C   UNL     1      18.162  50.325  48.618  1.00  0.00     0.005 A 
HETATM    9  C   UNL     1      16.893  50.877  48.812  1.00  0.00     0.043 A 
HETATM   10  C   UNL     1      18.271  49.161  47.827  1.00  0.00     0.033 A 
HETATM   11  C   UNL     1      15.730  50.331  48.257  1.00  0.00     0.031 A 
HETATM   12  N   UNL     1      17.053  51.993  49.602  1.00  0.00    -0.364 N 
HETATM   13  C   UNL     1      15.863  49.180  47.476  1.00  0.00     0.021 A 
HETATM   14  C   UNL     1      17.114  48.606  47.267  1.00  0.00     0.012 A 
HETATM   15 BR   UNL     1      17.258  47.050  46.199  1.00  0.00    -0.051 Br
HETATM   16  H   UNL     1      16.303  52.599  49.903  1.00  0.00     0.165 HD
HETATM   17  C   UNL     1      18.373  52.170  49.903  1.00  0.00     0.102 A 
ENDBRANCH   6   7
ENDBRANCH   2   5
BRANCH   1  18
HETATM   18  C   UNL     1      24.598  49.026  48.914  1.00  0.00     0.067 A 
HETATM   19  C   UNL     1      25.136  48.024  49.740  1.00  0.00     0.084 A 
HETATM   20  C   UNL     1      26.528  47.904  49.866  1.00  0.00     0.038 A 
HETATM   21  C   UNL     1      27.379  48.800  49.215  1.00  0.00     0.003 A 
HETATM   22  C   UNL     1      26.850  49.818  48.429  1.00  0.00     0.001 A 
HETATM   23  C   UNL     1      25.468  49.930  48.278  1.00  0.00     0.020 A 
BRANCH  19  24
HETATM   24  O   UNL     1      24.286  47.148  50.369  1.00  0.00    -0.350 OA
BRANCH  24  25
HETATM   25  C   UNL     1      24.614  45.769  50.154  1.00  0.00     0.171 C 
HETATM   26  C   UNL     1      24.609  45.067  51.500  1.00  0.00     0.034 C 
ENDBRANCH  24  25
ENDBRANCH  19  24
ENDBRANCH   1  18
TORSDOF 5
ENDMDL
