MODEL 1
REMARK VINA RESULT:      -8.4      0.000      0.000
REMARK  4 active torsions:
REMARK  status: ('A' for Active; 'I' for Inactive)
REMARK    1  A    between atoms: C_9  and  C_10 
REMARK    2  A    between atoms: C_19  and  C_20 
REMARK    3  A    between atoms: C_20  and  C_21 
REMARK    4  A    between atoms: C_21  and  O_22 
ROOT
HETATM    1  C   UNL     1      30.100  42.432  53.349  1.00  0.00     0.069 C 
HETATM    2  C   UNL     1      29.639  43.655  54.103  1.00  0.00     0.018 A 
HETATM    3  N   UNL     1      28.527  44.303  53.579  1.00  0.00    -0.343 N 
HETATM    4  C   UNL     1      28.000  45.408  54.154  1.00  0.00     0.146 A 
HETATM    5  N   UNL     1      28.586  45.887  55.305  1.00  0.00    -0.179 N 
HETATM    6  N   UNL     1      27.939  46.977  55.798  1.00  0.00    -0.167 NA
HETATM    7  C   UNL     1      26.948  47.195  54.922  1.00  0.00     0.066 A 
HETATM    8  C   UNL     1      26.028  48.343  55.129  1.00  0.00     0.073 C 
HETATM    9  C   UNL     1      26.942  46.240  53.866  1.00  0.00     0.046 A 
HETATM   10  C   UNL     1      29.710  45.316  55.924  1.00  0.00     0.278 A 
HETATM   11  O   UNL     1      30.189  45.782  56.950  1.00  0.00    -0.265 OA
HETATM   12  C   UNL     1      30.255  44.095  55.228  1.00  0.00     0.036 A 
HETATM   13  H   UNL     1      28.104  43.891  52.748  1.00  0.00     0.167 HD
ENDROOT
BRANCH   9  14
HETATM   14  C   UNL     1      26.062  46.098  52.723  1.00  0.00    -0.020 A 
HETATM   15  C   UNL     1      25.253  44.961  52.586  1.00  0.00     0.014 A 
HETATM   16  C   UNL     1      24.415  44.820  51.477  1.00  0.00     0.020 A 
HETATM   17  C   UNL     1      24.386  45.815  50.502  1.00  0.00     0.011 A 
HETATM   18 BR   UNL     1      23.255  45.622  49.000  1.00  0.00    -0.051 Br
HETATM   19  C   UNL     1      25.187  46.948  50.625  1.00  0.00     0.020 A 
HETATM   20  C   UNL     1      26.025  47.089  51.734  1.00  0.00     0.014 A 
ENDBRANCH   9  14
BRANCH  12  21
HETATM   21  C   UNL     1      31.497  43.510  55.858  1.00  0.00     0.072 C 
BRANCH  21  22
HETATM   22  C   UNL     1      31.293  43.097  57.316  1.00  0.00     0.169 C 
BRANCH  22  23
HETATM   23  O   UNL     1      32.022  43.958  58.187  1.00  0.00    -0.401 OA
HETATM   24  H   UNL     1      32.650  44.459  57.639  1.00  0.00     0.209 HD
ENDBRANCH  22  23
ENDBRANCH  21  22
ENDBRANCH  12  21
TORSDOF 4
ENDMDL
MODEL 2
REMARK VINA RESULT:      -7.7      4.619      7.014
REMARK  4 active torsions:
REMARK  status: ('A' for Active; 'I' for Inactive)
REMARK    1  A    between atoms: C_9  and  C_10 
REMARK    2  A    between atoms: C_19  and  C_20 
REMARK    3  A    between atoms: C_20  and  C_21 
REMARK    4  A    between atoms: C_21  and  O_22 
ROOT
HETATM    1  C   UNL     1      26.418  40.668  50.803  1.00  0.00     0.069 C 
HETATM    2  C   UNL     1      26.015  42.084  51.133  1.00  0.00     0.018 A 
HETATM    3  N   UNL     1      26.789  42.722  52.095  1.00  0.00    -0.343 N 
HETATM    4  C   UNL     1      26.548  43.994  52.486  1.00  0.00     0.146 A 
HETATM    5  N   UNL     1      25.508  44.674  51.891  1.00  0.00    -0.179 N 
HETATM    6  N   UNL     1      25.397  45.949  52.348  1.00  0.00    -0.167 NA
HETATM    7  C   UNL     1      26.371  46.057  53.263  1.00  0.00     0.066 A 
HETATM    8  C   UNL     1      26.543  47.334  54.002  1.00  0.00     0.073 C 
HETATM    9  C   UNL     1      27.123  44.855  53.393  1.00  0.00     0.046 A 
HETATM   10  C   UNL     1      24.662  44.132  50.910  1.00  0.00     0.278 A 
HETATM   11  O   UNL     1      23.752  44.784  50.411  1.00  0.00    -0.265 OA
HETATM   12  C   UNL     1      24.976  42.709  50.527  1.00  0.00     0.036 A 
HETATM   13  H   UNL     1      27.571  42.193  52.481  1.00  0.00     0.167 HD
ENDROOT
BRANCH   9  14
HETATM   14  C   UNL     1      28.249  44.531  54.247  1.00  0.00    -0.020 A 
HETATM   15  C   UNL     1      28.646  45.410  55.264  1.00  0.00     0.014 A 
HETATM   16  C   UNL     1      29.738  45.102  56.078  1.00  0.00     0.020 A 
HETATM   17  C   UNL     1      30.438  43.914  55.875  1.00  0.00     0.011 A 
HETATM   18 BR   UNL     1      31.918  43.499  56.973  1.00  0.00    -0.051 Br
HETATM   19  C   UNL     1      30.055  43.032  54.866  1.00  0.00     0.020 A 
HETATM   20  C   UNL     1      28.962  43.341  54.053  1.00  0.00     0.014 A 
ENDBRANCH   9  14
BRANCH  12  21
HETATM   21  C   UNL     1      24.034  42.105  49.513  1.00  0.00     0.072 C 
BRANCH  21  22
HETATM   22  C   UNL     1      24.507  42.288  48.071  1.00  0.00     0.169 C 
BRANCH  22  23
HETATM   23  O   UNL     1      24.147  43.578  47.584  1.00  0.00    -0.401 OA
HETATM   24  H   UNL     1      23.376  43.461  47.003  1.00  0.00     0.209 HD
ENDBRANCH  22  23
ENDBRANCH  21  22
ENDBRANCH  12  21
TORSDOF 4
ENDMDL
MODEL 3
REMARK VINA RESULT:      -7.7      6.219      9.251
REMARK  4 active torsions:
REMARK  status: ('A' for Active; 'I' for Inactive)
REMARK    1  A    between atoms: C_9  and  C_10 
REMARK    2  A    between atoms: C_19  and  C_20 
REMARK    3  A    between atoms: C_20  and  C_21 
REMARK    4  A    between atoms: C_21  and  O_22 
ROOT
HETATM    1  C   UNL     1      20.682  47.025  49.069  1.00  0.00     0.069 C 
HETATM    2  C   UNL     1      21.900  47.882  48.830  1.00  0.00     0.018 A 
HETATM    3  N   UNL     1      23.093  47.393  49.348  1.00  0.00    -0.343 N 
HETATM    4  C   UNL     1      24.265  48.052  49.205  1.00  0.00     0.146 A 
HETATM    5  N   UNL     1      24.265  49.239  48.506  1.00  0.00    -0.179 N 
HETATM    6  N   UNL     1      25.508  49.779  48.405  1.00  0.00    -0.167 NA
HETATM    7  C   UNL     1      26.293  48.924  49.077  1.00  0.00     0.066 A 
HETATM    8  C   UNL     1      27.746  49.206  49.199  1.00  0.00     0.073 C 
HETATM    9  C   UNL     1      25.562  47.822  49.604  1.00  0.00     0.046 A 
HETATM   10  C   UNL     1      23.123  49.829  47.939  1.00  0.00     0.278 A 
HETATM   11  O   UNL     1      23.181  50.886  47.323  1.00  0.00    -0.265 OA
HETATM   12  C   UNL     1      21.849  49.051  48.143  1.00  0.00     0.036 A 
HETATM   13  H   UNL     1      23.052  46.493  49.826  1.00  0.00     0.167 HD
ENDROOT
BRANCH   9  14
HETATM   14  C   UNL     1      26.001  46.680  50.381  1.00  0.00    -0.020 A 
HETATM   15  C   UNL     1      25.768  46.628  51.763  1.00  0.00     0.014 A 
HETATM   16  C   UNL     1      26.202  45.533  52.512  1.00  0.00     0.020 A 
HETATM   17  C   UNL     1      26.873  44.487  51.882  1.00  0.00     0.011 A 
HETATM   18 BR   UNL     1      27.465  43.006  52.896  1.00  0.00    -0.051 Br
HETATM   19  C   UNL     1      27.114  44.527  50.510  1.00  0.00     0.020 A 
HETATM   20  C   UNL     1      26.678  45.622  49.760  1.00  0.00     0.014 A 
ENDBRANCH   9  14
BRANCH  12  21
HETATM   21  C   UNL     1      20.610  49.708  47.583  1.00  0.00     0.072 C 
BRANCH  21  22
HETATM   22  C   UNL     1      19.909  50.623  48.588  1.00  0.00     0.169 C 
BRANCH  22  23
HETATM   23  O   UNL     1      20.368  51.965  48.449  1.00  0.00    -0.401 OA
HETATM   24  H   UNL     1      19.814  52.519  49.026  1.00  0.00     0.209 HD
ENDBRANCH  22  23
ENDBRANCH  21  22
ENDBRANCH  12  21
TORSDOF 4
ENDMDL
MODEL 4
REMARK VINA RESULT:      -7.7      2.243      4.118
REMARK  4 active torsions:
REMARK  status: ('A' for Active; 'I' for Inactive)
REMARK    1  A    between atoms: C_9  and  C_10 
REMARK    2  A    between atoms: C_19  and  C_20 
REMARK    3  A    between atoms: C_20  and  C_21 
REMARK    4  A    between atoms: C_21  and  O_22 
ROOT
HETATM    1  C   UNL     1      27.046  48.290  55.379  1.00  0.00     0.069 C 
HETATM    2  C   UNL     1      27.121  47.061  54.507  1.00  0.00     0.018 A 
HETATM    3  N   UNL     1      26.591  47.195  53.230  1.00  0.00    -0.343 N 
HETATM    4  C   UNL     1      26.595  46.178  52.338  1.00  0.00     0.146 A 
HETATM    5  N   UNL     1      27.161  44.980  52.716  1.00  0.00    -0.179 N 
HETATM    6  N   UNL     1      27.132  44.058  51.718  1.00  0.00    -0.167 NA
HETATM    7  C   UNL     1      26.513  44.685  50.708  1.00  0.00     0.066 A 
HETATM    8  C   UNL     1      26.277  43.963  49.432  1.00  0.00     0.073 C 
HETATM    9  C   UNL     1      26.150  46.020  51.045  1.00  0.00     0.046 A 
HETATM   10  C   UNL     1      27.726  44.730  53.977  1.00  0.00     0.278 A 
HETATM   11  O   UNL     1      28.220  43.645  54.260  1.00  0.00    -0.265 OA
HETATM   12  C   UNL     1      27.680  45.899  54.927  1.00  0.00     0.036 A 
HETATM   13  H   UNL     1      26.216  48.110  52.981  1.00  0.00     0.167 HD
ENDROOT
BRANCH   9  14
HETATM   14  C   UNL     1      25.476  47.042  50.269  1.00  0.00    -0.020 A 
HETATM   15  C   UNL     1      26.201  48.108  49.716  1.00  0.00     0.014 A 
HETATM   16  C   UNL     1      25.549  49.099  48.979  1.00  0.00     0.020 A 
HETATM   17  C   UNL     1      24.170  49.028  48.795  1.00  0.00     0.011 A 
HETATM   18 BR   UNL     1      23.287  50.371  47.801  1.00  0.00    -0.051 Br
HETATM   19  C   UNL     1      23.437  47.976  49.341  1.00  0.00     0.020 A 
HETATM   20  C   UNL     1      24.090  46.985  50.078  1.00  0.00     0.014 A 
ENDBRANCH   9  14
BRANCH  12  21
HETATM   21  C   UNL     1      28.236  45.618  56.304  1.00  0.00     0.072 C 
BRANCH  21  22
HETATM   22  C   UNL     1      29.743  45.854  56.402  1.00  0.00     0.169 C 
BRANCH  22  23
HETATM   23  O   UNL     1      30.460  44.680  56.029  1.00  0.00    -0.401 OA
HETATM   24  H   UNL     1      30.691  44.770  55.089  1.00  0.00     0.209 HD
ENDBRANCH  22  23
ENDBRANCH  21  22
ENDBRANCH  12  21
TORSDOF 4
ENDMDL
MODEL 5
REMARK VINA RESULT:      -7.5      4.439      7.427
REMARK  4 active torsions:
REMARK  status: ('A' for Active; 'I' for Inactive)
REMARK    1  A    between atoms: C_9  and  C_10 
REMARK    2  A    between atoms: C_19  and  C_20 
REMARK    3  A    between atoms: C_20  and  C_21 
REMARK    4  A    between atoms: C_21  and  O_22 
ROOT
HETATM    1  C   UNL     1      25.031  46.891  51.161  1.00  0.00     0.069 C 
HETATM    2  C   UNL     1      25.557  45.477  51.118  1.00  0.00     0.018 A 
HETATM    3  N   UNL     1      26.450  45.135  52.126  1.00  0.00    -0.343 N 
HETATM    4  C   UNL     1      26.997  43.901  52.216  1.00  0.00     0.146 A 
HETATM    5  N   UNL     1      26.634  42.957  51.280  1.00  0.00    -0.179 N 
HETATM    6  N   UNL     1      27.226  41.754  51.505  1.00  0.00    -0.167 NA
HETATM    7  C   UNL     1      27.991  41.961  52.587  1.00  0.00     0.066 A 
HETATM    8  C   UNL     1      28.819  40.850  53.122  1.00  0.00     0.073 C 
HETATM    9  C   UNL     1      27.887  43.295  53.073  1.00  0.00     0.046 A 
HETATM   10  C   UNL     1      25.743  43.188  50.220  1.00  0.00     0.278 A 
HETATM   11  O   UNL     1      25.453  42.310  49.417  1.00  0.00    -0.265 OA
HETATM   12  C   UNL     1      25.178  44.584  50.169  1.00  0.00     0.036 A 
HETATM   13  H   UNL     1      26.660  45.854  52.818  1.00  0.00     0.167 HD
ENDROOT
BRANCH   9  14
HETATM   14  C   UNL     1      28.526  43.944  54.200  1.00  0.00    -0.020 A 
HETATM   15  C   UNL     1      29.812  43.561  54.606  1.00  0.00     0.014 A 
HETATM   16  C   UNL     1      30.422  44.179  55.700  1.00  0.00     0.020 A 
HETATM   17  C   UNL     1      29.745  45.180  56.393  1.00  0.00     0.011 A 
HETATM   18 BR   UNL     1      30.568  46.013  57.876  1.00  0.00    -0.051 Br
HETATM   19  C   UNL     1      28.466  45.569  56.003  1.00  0.00     0.020 A 
HETATM   20  C   UNL     1      27.857  44.951  54.907  1.00  0.00     0.014 A 
ENDBRANCH   9  14
BRANCH  12  21
HETATM   21  C   UNL     1      24.262  44.854  48.999  1.00  0.00     0.072 C 
BRANCH  21  22
HETATM   22  C   UNL     1      22.848  44.311  49.206  1.00  0.00     0.169 C 
BRANCH  22  23
HETATM   23  O   UNL     1      22.526  44.264  50.594  1.00  0.00    -0.401 OA
HETATM   24  H   UNL     1      23.277  44.651  51.076  1.00  0.00     0.209 HD
ENDBRANCH  22  23
ENDBRANCH  21  22
ENDBRANCH  12  21
TORSDOF 4
ENDMDL
MODEL 6
REMARK VINA RESULT:      -7.5      1.883      3.548
REMARK  4 active torsions:
REMARK  status: ('A' for Active; 'I' for Inactive)
REMARK    1  A    between atoms: C_9  and  C_10 
REMARK    2  A    between atoms: C_19  and  C_20 
REMARK    3  A    between atoms: C_20  and  C_21 
REMARK    4  A    between atoms: C_21  and  O_22 
ROOT
HETATM    1  C   UNL     1      28.033  47.465  55.440  1.00  0.00     0.069 C 
HETATM    2  C   UNL     1      28.562  46.092  55.108  1.00  0.00     0.018 A 
HETATM    3  N   UNL     1      27.954  45.455  54.033  1.00  0.00    -0.343 N 
HETATM    4  C   UNL     1      28.329  44.224  53.619  1.00  0.00     0.146 A 
HETATM    5  N   UNL     1      29.361  43.598  54.285  1.00  0.00    -0.179 N 
HETATM    6  N   UNL     1      29.661  42.386  53.748  1.00  0.00    -0.167 NA
HETATM    7  C   UNL     1      28.782  42.243  52.745  1.00  0.00     0.066 A 
HETATM    8  C   UNL     1      28.797  41.002  51.930  1.00  0.00     0.073 C 
HETATM    9  C   UNL     1      27.918  43.368  52.622  1.00  0.00     0.046 A 
HETATM   10  C   UNL     1      30.047  44.144  55.381  1.00  0.00     0.278 A 
HETATM   11  O   UNL     1      30.961  43.544  55.935  1.00  0.00    -0.265 OA
HETATM   12  C   UNL     1      29.574  45.512  55.799  1.00  0.00     0.036 A 
HETATM   13  H   UNL     1      27.221  45.971  53.548  1.00  0.00     0.167 HD
ENDROOT
BRANCH   9  14
HETATM   14  C   UNL     1      26.840  43.637  51.692  1.00  0.00    -0.020 A 
HETATM   15  C   UNL     1      27.119  44.023  50.373  1.00  0.00     0.014 A 
HETATM   16  C   UNL     1      26.079  44.293  49.481  1.00  0.00     0.020 A 
HETATM   17  C   UNL     1      24.757  44.180  49.906  1.00  0.00     0.011 A 
HETATM   18 BR   UNL     1      23.350  44.549  48.701  1.00  0.00    -0.051 Br
HETATM   19  C   UNL     1      24.466  43.800  51.215  1.00  0.00     0.020 A 
HETATM   20  C   UNL     1      25.507  43.529  52.106  1.00  0.00     0.014 A 
ENDBRANCH   9  14
BRANCH  12  21
HETATM   21  C   UNL     1      30.272  46.079  57.013  1.00  0.00     0.072 C 
BRANCH  21  22
HETATM   22  C   UNL     1      30.131  45.198  58.254  1.00  0.00     0.169 C 
BRANCH  22  23
HETATM   23  O   UNL     1      31.412  44.800  58.735  1.00  0.00    -0.401 OA
HETATM   24  H   UNL     1      31.702  45.474  59.374  1.00  0.00     0.209 HD
ENDBRANCH  22  23
ENDBRANCH  21  22
ENDBRANCH  12  21
TORSDOF 4
ENDMDL
MODEL 7
REMARK VINA RESULT:      -7.5      2.795      3.524
REMARK  4 active torsions:
REMARK  status: ('A' for Active; 'I' for Inactive)
REMARK    1  A    between atoms: C_9  and  C_10 
REMARK    2  A    between atoms: C_19  and  C_20 
REMARK    3  A    between atoms: C_20  and  C_21 
REMARK    4  A    between atoms: C_21  and  O_22 
ROOT
HETATM    1  C   UNL     1      31.154  43.495  55.611  1.00  0.00     0.069 C 
HETATM    2  C   UNL     1      29.928  44.292  55.239  1.00  0.00     0.018 A 
HETATM    3  N   UNL     1      29.196  43.804  54.163  1.00  0.00    -0.343 N 
HETATM    4  C   UNL     1      28.072  44.413  53.722  1.00  0.00     0.146 A 
HETATM    5  N   UNL     1      27.640  45.543  54.381  1.00  0.00    -0.179 N 
HETATM    6  N   UNL     1      26.484  46.033  53.861  1.00  0.00    -0.167 NA
HETATM    7  C   UNL     1      26.204  45.207  52.844  1.00  0.00     0.066 A 
HETATM    8  C   UNL     1      24.997  45.451  52.013  1.00  0.00     0.073 C 
HETATM    9  C   UNL     1      27.172  44.171  52.709  1.00  0.00     0.046 A 
HETATM   10  C   UNL     1      28.297  46.125  55.477  1.00  0.00     0.278 A 
HETATM   11  O   UNL     1      27.867  47.131  56.028  1.00  0.00    -0.265 OA
HETATM   12  C   UNL     1      29.548  45.406  55.911  1.00  0.00     0.036 A 
HETATM   13  H   UNL     1      29.532  42.945  53.730  1.00  0.00     0.167 HD
ENDROOT
BRANCH   9  14
HETATM   14  C   UNL     1      27.262  43.077  51.763  1.00  0.00    -0.020 A 
HETATM   15  C   UNL     1      27.561  41.780  52.203  1.00  0.00     0.014 A 
HETATM   16  C   UNL     1      27.660  40.729  51.288  1.00  0.00     0.020 A 
HETATM   17  C   UNL     1      27.462  40.974  49.931  1.00  0.00     0.011 A 
HETATM   18 BR   UNL     1      27.600  39.553  48.693  1.00  0.00    -0.051 Br
HETATM   19  C   UNL     1      27.168  42.258  49.480  1.00  0.00     0.020 A 
HETATM   20  C   UNL     1      27.068  43.309  50.395  1.00  0.00     0.014 A 
ENDBRANCH   9  14
BRANCH  12  21
HETATM   21  C   UNL     1      30.289  46.059  57.055  1.00  0.00     0.072 C 
BRANCH  21  22
HETATM   22  C   UNL     1      30.182  45.277  58.364  1.00  0.00     0.169 C 
BRANCH  22  23
HETATM   23  O   UNL     1      31.476  44.920  58.842  1.00  0.00    -0.401 OA
HETATM   24  H   UNL     1      31.554  43.954  58.766  1.00  0.00     0.209 HD
ENDBRANCH  22  23
ENDBRANCH  21  22
ENDBRANCH  12  21
TORSDOF 4
ENDMDL
MODEL 8
REMARK VINA RESULT:      -7.4      3.948      5.254
REMARK  4 active torsions:
REMARK  status: ('A' for Active; 'I' for Inactive)
REMARK    1  A    between atoms: C_9  and  C_10 
REMARK    2  A    between atoms: C_19  and  C_20 
REMARK    3  A    between atoms: C_20  and  C_21 
REMARK    4  A    between atoms: C_21  and  O_22 
ROOT
HETATM    1  C   UNL     1      29.759  43.316  54.266  1.00  0.00     0.069 C 
HETATM    2  C   UNL     1      28.367  43.688  53.816  1.00  0.00     0.018 A 
HETATM    3  N   UNL     1      27.886  42.997  52.711  1.00  0.00    -0.343 N 
HETATM    4  C   UNL     1      26.654  43.221  52.201  1.00  0.00     0.146 A 
HETATM    5  N   UNL     1      25.854  44.158  52.818  1.00  0.00    -0.179 N 
HETATM    6  N   UNL     1      24.633  44.261  52.229  1.00  0.00    -0.167 NA
HETATM    7  C   UNL     1      24.683  43.389  51.212  1.00  0.00     0.066 A 
HETATM    8  C   UNL     1      23.509  43.242  50.314  1.00  0.00     0.073 C 
HETATM    9  C   UNL     1      25.933  42.711  51.145  1.00  0.00     0.046 A 
HETATM   10  C   UNL     1      26.232  44.915  53.938  1.00  0.00     0.278 A 
HETATM   11  O   UNL     1      25.478  45.735  54.449  1.00  0.00    -0.265 OA
HETATM   12  C   UNL     1      27.620  44.626  54.450  1.00  0.00     0.036 A 
HETATM   13  H   UNL     1      28.498  42.287  52.311  1.00  0.00     0.167 HD
ENDROOT
BRANCH   9  14
HETATM   14  C   UNL     1      26.415  41.702  50.223  1.00  0.00    -0.020 A 
HETATM   15  C   UNL     1      26.378  40.344  50.572  1.00  0.00     0.014 A 
HETATM   16  C   UNL     1      26.854  39.374  49.687  1.00  0.00     0.020 A 
HETATM   17  C   UNL     1      27.371  39.760  48.452  1.00  0.00     0.011 A 
HETATM   18 BR   UNL     1      28.019  38.448  47.257  1.00  0.00    -0.051 Br
HETATM   19  C   UNL     1      27.416  41.105  48.094  1.00  0.00     0.020 A 
HETATM   20  C   UNL     1      26.939  42.076  48.979  1.00  0.00     0.014 A 
ENDBRANCH   9  14
BRANCH  12  21
HETATM   21  C   UNL     1      28.053  45.477  55.620  1.00  0.00     0.072 C 
BRANCH  21  22
HETATM   22  C   UNL     1      28.768  46.760  55.198  1.00  0.00     0.169 C 
BRANCH  22  23
HETATM   23  O   UNL     1      27.824  47.765  54.838  1.00  0.00    -0.401 OA
HETATM   24  H   UNL     1      28.065  48.573  55.324  1.00  0.00     0.209 HD
ENDBRANCH  22  23
ENDBRANCH  21  22
ENDBRANCH  12  21
TORSDOF 4
ENDMDL
MODEL 9
REMARK VINA RESULT:      -7.3      5.848      7.082
REMARK  4 active torsions:
REMARK  status: ('A' for Active; 'I' for Inactive)
REMARK    1  A    between atoms: C_9  and  C_10 
REMARK    2  A    between atoms: C_19  and  C_20 
REMARK    3  A    between atoms: C_20  and  C_21 
REMARK    4  A    between atoms: C_21  and  O_22 
ROOT
HETATM    1  C   UNL     1      22.794  43.798  50.239  1.00  0.00     0.069 C 
HETATM    2  C   UNL     1      23.959  44.720  49.976  1.00  0.00     0.018 A 
HETATM    3  N   UNL     1      23.631  46.038  49.684  1.00  0.00    -0.343 N 
HETATM    4  C   UNL     1      24.572  46.976  49.433  1.00  0.00     0.146 A 
HETATM    5  N   UNL     1      25.897  46.602  49.488  1.00  0.00    -0.179 N 
HETATM    6  N   UNL     1      26.738  47.644  49.251  1.00  0.00    -0.167 NA
HETATM    7  C   UNL     1      25.920  48.680  49.020  1.00  0.00     0.066 A 
HETATM    8  C   UNL     1      26.497  50.011  48.697  1.00  0.00     0.073 C 
HETATM    9  C   UNL     1      24.547  48.316  49.118  1.00  0.00     0.046 A 
HETATM   10  C   UNL     1      26.346  45.302  49.773  1.00  0.00     0.278 A 
HETATM   11  O   UNL     1      27.539  45.025  49.811  1.00  0.00    -0.265 OA
HETATM   12  C   UNL     1      25.248  44.303  50.031  1.00  0.00     0.036 A 
HETATM   13  H   UNL     1      22.640  46.278  49.691  1.00  0.00     0.167 HD
ENDROOT
BRANCH   9  14
HETATM   14  C   UNL     1      23.343  49.105  48.949  1.00  0.00    -0.020 A 
HETATM   15  C   UNL     1      22.403  48.767  47.965  1.00  0.00     0.014 A 
HETATM   16  C   UNL     1      21.250  49.536  47.795  1.00  0.00     0.020 A 
HETATM   17  C   UNL     1      21.035  50.648  48.608  1.00  0.00     0.011 A 
HETATM   18 BR   UNL     1      19.477  51.691  48.375  1.00  0.00    -0.051 Br
HETATM   19  C   UNL     1      21.962  50.997  49.587  1.00  0.00     0.020 A 
HETATM   20  C   UNL     1      23.116  50.226  49.757  1.00  0.00     0.014 A 
ENDBRANCH   9  14
BRANCH  12  21
HETATM   21  C   UNL     1      25.724  42.892  50.284  1.00  0.00     0.072 C 
BRANCH  21  22
HETATM   22  C   UNL     1      25.874  42.070  49.003  1.00  0.00     0.169 C 
BRANCH  22  23
HETATM   23  O   UNL     1      27.095  42.391  48.342  1.00  0.00    -0.401 OA
HETATM   24  H   UNL     1      27.096  41.915  47.493  1.00  0.00     0.209 HD
ENDBRANCH  22  23
ENDBRANCH  21  22
ENDBRANCH  12  21
TORSDOF 4
ENDMDL
MODEL 10
REMARK VINA RESULT:      -7.2      3.846      5.211
REMARK  4 active torsions:
REMARK  status: ('A' for Active; 'I' for Inactive)
REMARK    1  A    between atoms: C_9  and  C_10 
REMARK    2  A    between atoms: C_19  and  C_20 
REMARK    3  A    between atoms: C_20  and  C_21 
REMARK    4  A    between atoms: C_21  and  O_22 
ROOT
HETATM    1  C   UNL     1      25.791  41.767  48.100  1.00  0.00     0.069 C 
HETATM    2  C   UNL     1      26.169  42.320  49.452  1.00  0.00     0.018 A 
HETATM    3  N   UNL     1      25.940  43.679  49.632  1.00  0.00    -0.343 N 
HETATM    4  C   UNL     1      26.226  44.310  50.794  1.00  0.00     0.146 A 
HETATM    5  N   UNL     1      26.746  43.565  51.830  1.00  0.00    -0.179 N 
HETATM    6  N   UNL     1      26.953  44.310  52.947  1.00  0.00    -0.167 NA
HETATM    7  C   UNL     1      26.579  45.547  52.592  1.00  0.00     0.066 A 
HETATM    8  C   UNL     1      26.690  46.657  53.574  1.00  0.00     0.073 C 
HETATM    9  C   UNL     1      26.117  45.605  51.246  1.00  0.00     0.046 A 
HETATM   10  C   UNL     1      27.018  42.189  51.762  1.00  0.00     0.278 A 
HETATM   11  O   UNL     1      27.479  41.574  52.717  1.00  0.00    -0.265 OA
HETATM   12  C   UNL     1      26.689  41.549  50.439  1.00  0.00     0.036 A 
HETATM   13  H   UNL     1      25.520  44.182  48.851  1.00  0.00     0.167 HD
ENDROOT
BRANCH   9  14
HETATM   14  C   UNL     1      25.623  46.719  50.462  1.00  0.00    -0.020 A 
HETATM   15  C   UNL     1      26.508  47.685  49.963  1.00  0.00     0.014 A 
HETATM   16  C   UNL     1      26.030  48.765  49.218  1.00  0.00     0.020 A 
HETATM   17  C   UNL     1      24.663  48.882  48.972  1.00  0.00     0.011 A 
HETATM   18 BR   UNL     1      24.015  50.345  47.967  1.00  0.00    -0.051 Br
HETATM   19  C   UNL     1      23.772  47.931  49.463  1.00  0.00     0.020 A 
HETATM   20  C   UNL     1      24.252  46.850  50.208  1.00  0.00     0.014 A 
ENDBRANCH   9  14
BRANCH  12  21
HETATM   21  C   UNL     1      27.031  40.081  50.343  1.00  0.00     0.072 C 
BRANCH  21  22
HETATM   22  C   UNL     1      28.517  39.826  50.090  1.00  0.00     0.169 C 
BRANCH  22  23
HETATM   23  O   UNL     1      29.181  39.481  51.303  1.00  0.00    -0.401 OA
HETATM   24  H   UNL     1      30.090  39.821  51.240  1.00  0.00     0.209 HD
ENDBRANCH  22  23
ENDBRANCH  21  22
ENDBRANCH  12  21
TORSDOF 4
ENDMDL
