MODEL 1
REMARK VINA RESULT:      -9.0      0.000      0.000
REMARK  5 active torsions:
REMARK  status: ('A' for Active; 'I' for Inactive)
REMARK    1  A    between atoms: C_9  and  C_10 
REMARK       I    between atoms: C_10  and  N_11 
REMARK    2  A    between atoms: N_11  and  C_12 
REMARK    3  A    between atoms: C_12  and  C_13 
REMARK    4  A    between atoms: C_16  and  N_17 
REMARK       I    between atoms: N_17  and  C_18 
REMARK    5  A    between atoms: C_18  and  C_19 
ROOT
HETATM    1  C   UNL     1      27.261  43.230  51.689  1.00  0.00     0.273 C 
HETATM    2  N   UNL     1      27.441  44.143  50.674  1.00  0.00    -0.351 N 
HETATM    3  O   UNL     1      26.271  42.508  51.771  1.00  0.00    -0.266 OA
HETATM    4  H   UNL     1      28.347  44.603  50.647  1.00  0.00     0.163 HD
ENDROOT
BRANCH   2   5
HETATM    5  C   UNL     1      26.553  44.189  49.546  1.00  0.00     0.161 C 
BRANCH   5   6
HETATM    6  C   UNL     1      25.718  45.439  49.551  1.00  0.00    -0.040 A 
HETATM    7  C   UNL     1      26.296  46.681  49.842  1.00  0.00     0.011 A 
HETATM    8  C   UNL     1      25.523  47.848  49.839  1.00  0.00     0.030 A 
HETATM    9  C   UNL     1      24.159  47.795  49.552  1.00  0.00     0.034 A 
HETATM   10  C   UNL     1      23.576  46.551  49.283  1.00  0.00     0.030 A 
HETATM   11  C   UNL     1      24.345  45.383  49.288  1.00  0.00     0.011 A 
BRANCH   9  12
HETATM   12  N   UNL     1      23.315  48.924  49.506  1.00  0.00    -0.327 N 
HETATM   13  C   UNL     1      23.188  49.847  48.478  1.00  0.00     0.225 C 
HETATM   14  O   UNL     1      23.810  49.840  47.421  1.00  0.00    -0.273 OA
HETATM   15  H   UNL     1      22.721  49.059  50.313  1.00  0.00     0.169 HD
BRANCH  13  16
HETATM   16  C   UNL     1      22.147  50.928  48.793  1.00  0.00     0.070 C 
HETATM   17  C   UNL     1      20.895  50.742  47.937  1.00  0.00     0.019 C 
HETATM   18  C   UNL     1      21.777  50.921  50.275  1.00  0.00     0.019 C 
ENDBRANCH  13  16
ENDBRANCH   9  12
ENDBRANCH   5   6
ENDBRANCH   2   5
BRANCH   1  19
HETATM   19  C   UNL     1      28.376  43.192  52.647  1.00  0.00     0.157 A 
HETATM   20  C   UNL     1      28.604  44.077  53.743  1.00  0.00     0.029 A 
HETATM   21  C   UNL     1      27.957  45.204  54.289  1.00  0.00     0.023 A 
HETATM   22  C   UNL     1      29.769  43.618  54.344  1.00  0.00     0.063 A 
HETATM   23  C   UNL     1      28.498  45.832  55.423  1.00  0.00    -0.061 A 
HETATM   24  C   UNL     1      27.823  47.031  56.024  1.00  0.00     0.048 C 
HETATM   25  C   UNL     1      29.676  45.336  55.998  1.00  0.00     0.009 A 
HETATM   26  C   UNL     1      30.335  44.220  55.471  1.00  0.00     0.032 A 
HETATM   27  N   UNL     1      30.153  42.535  53.604  1.00  0.00    -0.277 N 
HETATM   28  H   UNL     1      30.964  41.946  53.755  1.00  0.00     0.189 HD
HETATM   29  N   UNL     1      29.336  42.243  52.576  1.00  0.00    -0.168 NA
ENDBRANCH   1  19
TORSDOF 5
ENDMDL
MODEL 2
REMARK VINA RESULT:      -9.0      2.723      3.706
REMARK  5 active torsions:
REMARK  status: ('A' for Active; 'I' for Inactive)
REMARK    1  A    between atoms: C_9  and  C_10 
REMARK       I    between atoms: C_10  and  N_11 
REMARK    2  A    between atoms: N_11  and  C_12 
REMARK    3  A    between atoms: C_12  and  C_13 
REMARK    4  A    between atoms: C_16  and  N_17 
REMARK       I    between atoms: N_17  and  C_18 
REMARK    5  A    between atoms: C_18  and  C_19 
ROOT
HETATM    1  C   UNL     1      25.460  46.623  51.951  1.00  0.00     0.273 C 
HETATM    2  N   UNL     1      25.876  47.540  51.012  1.00  0.00    -0.351 N 
HETATM    3  O   UNL     1      24.658  45.726  51.700  1.00  0.00    -0.266 OA
HETATM    4  H   UNL     1      26.623  48.164  51.303  1.00  0.00     0.163 HD
ENDROOT
BRANCH   2   5
HETATM    5  C   UNL     1      25.525  47.401  49.626  1.00  0.00     0.161 C 
BRANCH   5   6
HETATM    6  C   UNL     1      24.382  48.304  49.253  1.00  0.00    -0.040 A 
HETATM    7  C   UNL     1      24.615  49.635  48.889  1.00  0.00     0.011 A 
HETATM    8  C   UNL     1      23.554  50.476  48.533  1.00  0.00     0.030 A 
HETATM    9  C   UNL     1      22.241  50.004  48.540  1.00  0.00     0.034 A 
HETATM   10  C   UNL     1      22.005  48.679  48.926  1.00  0.00     0.030 A 
HETATM   11  C   UNL     1      23.064  47.837  49.285  1.00  0.00     0.011 A 
BRANCH   9  12
HETATM   12  N   UNL     1      21.120  50.777  48.174  1.00  0.00    -0.327 N 
HETATM   13  C   UNL     1      20.199  51.387  49.012  1.00  0.00     0.225 C 
HETATM   14  O   UNL     1      20.202  51.346  50.239  1.00  0.00    -0.273 OA
HETATM   15  H   UNL     1      20.989  50.914  47.180  1.00  0.00     0.169 HD
BRANCH  13  16
HETATM   16  C   UNL     1      19.127  52.160  48.235  1.00  0.00     0.070 C 
HETATM   17  C   UNL     1      18.580  51.320  47.082  1.00  0.00     0.019 C 
HETATM   18  C   UNL     1      17.988  52.596  49.155  1.00  0.00     0.019 C 
ENDBRANCH  13  16
ENDBRANCH   9  12
ENDBRANCH   5   6
ENDBRANCH   2   5
BRANCH   1  19
HETATM   19  C   UNL     1      26.082  46.811  53.270  1.00  0.00     0.157 A 
HETATM   20  C   UNL     1      27.118  46.023  53.855  1.00  0.00     0.029 A 
HETATM   21  C   UNL     1      27.870  44.892  53.477  1.00  0.00     0.023 A 
HETATM   22  C   UNL     1      27.365  46.608  55.091  1.00  0.00     0.063 A 
HETATM   23  C   UNL     1      28.847  44.385  54.351  1.00  0.00    -0.061 A 
HETATM   24  C   UNL     1      29.661  43.184  53.967  1.00  0.00     0.048 C 
HETATM   25  C   UNL     1      29.062  45.005  55.589  1.00  0.00     0.009 A 
HETATM   26  C   UNL     1      28.326  46.128  55.984  1.00  0.00     0.032 A 
HETATM   27  N   UNL     1      26.499  47.662  55.168  1.00  0.00    -0.277 N 
HETATM   28  H   UNL     1      26.400  48.318  55.935  1.00  0.00     0.189 HD
HETATM   29  N   UNL     1      25.714  47.821  54.088  1.00  0.00    -0.168 NA
ENDBRANCH   1  19
TORSDOF 5
ENDMDL
MODEL 3
REMARK VINA RESULT:      -8.8      2.263      9.377
REMARK  5 active torsions:
REMARK  status: ('A' for Active; 'I' for Inactive)
REMARK    1  A    between atoms: C_9  and  C_10 
REMARK       I    between atoms: C_10  and  N_11 
REMARK    2  A    between atoms: N_11  and  C_12 
REMARK    3  A    between atoms: C_12  and  C_13 
REMARK    4  A    between atoms: C_16  and  N_17 
REMARK       I    between atoms: N_17  and  C_18 
REMARK    5  A    between atoms: C_18  and  C_19 
ROOT
HETATM    1  C   UNL     1      24.290  46.707  49.873  1.00  0.00     0.273 C 
HETATM    2  N   UNL     1      24.817  46.588  51.140  1.00  0.00    -0.351 N 
HETATM    3  O   UNL     1      23.886  45.746  49.223  1.00  0.00    -0.266 OA
HETATM    4  H   UNL     1      25.013  47.461  51.622  1.00  0.00     0.163 HD
ENDROOT
BRANCH   2   5
HETATM    5  C   UNL     1      24.770  45.342  51.852  1.00  0.00     0.161 C 
BRANCH   5   6
HETATM    6  C   UNL     1      25.899  45.227  52.839  1.00  0.00    -0.040 A 
HETATM    7  C   UNL     1      26.410  43.974  53.195  1.00  0.00     0.011 A 
HETATM    8  C   UNL     1      27.466  43.865  54.107  1.00  0.00     0.030 A 
HETATM    9  C   UNL     1      28.027  45.005  54.684  1.00  0.00     0.034 A 
HETATM   10  C   UNL     1      27.501  46.258  54.345  1.00  0.00     0.030 A 
HETATM   11  C   UNL     1      26.444  46.369  53.436  1.00  0.00     0.011 A 
BRANCH   9  12
HETATM   12  N   UNL     1      29.106  44.984  55.591  1.00  0.00    -0.327 N 
HETATM   13  C   UNL     1      30.249  44.201  55.533  1.00  0.00     0.225 C 
HETATM   14  O   UNL     1      30.512  43.371  54.669  1.00  0.00    -0.273 OA
HETATM   15  H   UNL     1      29.041  45.635  56.363  1.00  0.00     0.169 HD
BRANCH  13  16
HETATM   16  C   UNL     1      31.206  44.481  56.698  1.00  0.00     0.070 C 
HETATM   17  C   UNL     1      30.489  45.223  57.825  1.00  0.00     0.019 C 
HETATM   18  C   UNL     1      31.821  43.187  57.228  1.00  0.00     0.019 C 
ENDBRANCH  13  16
ENDBRANCH   9  12
ENDBRANCH   5   6
ENDBRANCH   2   5
BRANCH   1  19
HETATM   19  C   UNL     1      24.241  48.095  49.387  1.00  0.00     0.157 A 
HETATM   20  C   UNL     1      23.077  48.857  49.069  1.00  0.00     0.029 A 
HETATM   21  C   UNL     1      21.685  48.636  49.078  1.00  0.00     0.023 A 
HETATM   22  C   UNL     1      23.554  50.100  48.672  1.00  0.00     0.063 A 
HETATM   23  C   UNL     1      20.816  49.669  48.689  1.00  0.00    -0.061 A 
HETATM   24  C   UNL     1      19.330  49.456  48.694  1.00  0.00     0.048 C 
HETATM   25  C   UNL     1      21.341  50.907  48.295  1.00  0.00     0.009 A 
HETATM   26  C   UNL     1      22.719  51.148  48.278  1.00  0.00     0.032 A 
HETATM   27  N   UNL     1      24.914  50.010  48.770  1.00  0.00    -0.277 N 
HETATM   28  H   UNL     1      25.592  50.734  48.560  1.00  0.00     0.189 HD
HETATM   29  N   UNL     1      25.366  48.820  49.203  1.00  0.00    -0.168 NA
ENDBRANCH   1  19
TORSDOF 5
ENDMDL
MODEL 4
REMARK VINA RESULT:      -8.3      3.916      7.185
REMARK  5 active torsions:
REMARK  status: ('A' for Active; 'I' for Inactive)
REMARK    1  A    between atoms: C_9  and  C_10 
REMARK       I    between atoms: C_10  and  N_11 
REMARK    2  A    between atoms: N_11  and  C_12 
REMARK    3  A    between atoms: C_12  and  C_13 
REMARK    4  A    between atoms: C_16  and  N_17 
REMARK       I    between atoms: N_17  and  C_18 
REMARK    5  A    between atoms: C_18  and  C_19 
ROOT
HETATM    1  C   UNL     1      25.709  46.496  52.759  1.00  0.00     0.273 C 
HETATM    2  N   UNL     1      25.383  45.170  52.572  1.00  0.00    -0.351 N 
HETATM    3  O   UNL     1      25.407  47.378  51.958  1.00  0.00    -0.266 OA
HETATM    4  H   UNL     1      25.585  44.551  53.352  1.00  0.00     0.163 HD
ENDROOT
BRANCH   2   5
HETATM    5  C   UNL     1      24.518  44.759  51.502  1.00  0.00     0.161 C 
BRANCH   5   6
HETATM    6  C   UNL     1      24.928  43.424  50.943  1.00  0.00    -0.040 A 
HETATM    7  C   UNL     1      26.086  42.786  51.401  1.00  0.00     0.011 A 
HETATM    8  C   UNL     1      26.467  41.540  50.888  1.00  0.00     0.030 A 
HETATM    9  C   UNL     1      25.701  40.913  49.905  1.00  0.00     0.034 A 
HETATM   10  C   UNL     1      24.554  41.562  49.430  1.00  0.00     0.030 A 
HETATM   11  C   UNL     1      24.174  42.808  49.939  1.00  0.00     0.011 A 
BRANCH   9  12
HETATM   12  N   UNL     1      26.000  39.650  49.353  1.00  0.00    -0.327 N 
HETATM   13  C   UNL     1      27.022  39.330  48.473  1.00  0.00     0.225 C 
HETATM   14  O   UNL     1      27.848  40.111  48.010  1.00  0.00    -0.273 OA
HETATM   15  H   UNL     1      25.406  38.889  49.655  1.00  0.00     0.169 HD
BRANCH  13  16
HETATM   16  C   UNL     1      27.036  37.839  48.114  1.00  0.00     0.070 C 
HETATM   17  C   UNL     1      28.306  37.476  47.347  1.00  0.00     0.019 C 
HETATM   18  C   UNL     1      26.910  36.971  49.365  1.00  0.00     0.019 C 
ENDBRANCH  13  16
ENDBRANCH   9  12
ENDBRANCH   5   6
ENDBRANCH   2   5
BRANCH   1  19
HETATM   19  C   UNL     1      26.429  46.751  54.016  1.00  0.00     0.157 A 
HETATM   20  C   UNL     1      27.529  46.013  54.545  1.00  0.00     0.029 A 
HETATM   21  C   UNL     1      28.280  44.887  54.152  1.00  0.00     0.023 A 
HETATM   22  C   UNL     1      27.856  46.653  55.735  1.00  0.00     0.063 A 
HETATM   23  C   UNL     1      29.336  44.439  54.963  1.00  0.00    -0.061 A 
HETATM   24  C   UNL     1      30.151  43.244  54.561  1.00  0.00     0.048 C 
HETATM   25  C   UNL     1      29.632  45.114  56.155  1.00  0.00     0.009 A 
HETATM   26  C   UNL     1      28.899  46.233  56.565  1.00  0.00     0.032 A 
HETATM   27  N   UNL     1      26.971  47.688  55.841  1.00  0.00    -0.277 N 
HETATM   28  H   UNL     1      26.915  48.371  56.588  1.00  0.00     0.189 HD
HETATM   29  N   UNL     1      26.098  47.784  54.823  1.00  0.00    -0.168 NA
ENDBRANCH   1  19
TORSDOF 5
ENDMDL
MODEL 5
REMARK VINA RESULT:      -8.3      1.305      1.858
REMARK  5 active torsions:
REMARK  status: ('A' for Active; 'I' for Inactive)
REMARK    1  A    between atoms: C_9  and  C_10 
REMARK       I    between atoms: C_10  and  N_11 
REMARK    2  A    between atoms: N_11  and  C_12 
REMARK    3  A    between atoms: C_12  and  C_13 
REMARK    4  A    between atoms: C_16  and  N_17 
REMARK       I    between atoms: N_17  and  C_18 
REMARK    5  A    between atoms: C_18  and  C_19 
ROOT
HETATM    1  C   UNL     1      25.726  42.663  50.657  1.00  0.00     0.273 C 
HETATM    2  N   UNL     1      25.769  43.154  49.371  1.00  0.00    -0.351 N 
HETATM    3  O   UNL     1      24.680  42.526  51.287  1.00  0.00    -0.266 OA
HETATM    4  H   UNL     1      26.675  43.116  48.912  1.00  0.00     0.163 HD
ENDROOT
BRANCH   2   5
HETATM    5  C   UNL     1      24.566  43.381  48.620  1.00  0.00     0.161 C 
BRANCH   5   6
HETATM    6  C   UNL     1      24.056  44.783  48.805  1.00  0.00    -0.040 A 
HETATM    7  C   UNL     1      24.779  45.710  49.566  1.00  0.00     0.011 A 
HETATM    8  C   UNL     1      24.311  47.018  49.734  1.00  0.00     0.030 A 
HETATM    9  C   UNL     1      23.109  47.423  49.151  1.00  0.00     0.034 A 
HETATM   10  C   UNL     1      22.374  46.490  48.410  1.00  0.00     0.030 A 
HETATM   11  C   UNL     1      22.838  45.181  48.243  1.00  0.00     0.011 A 
BRANCH   9  12
HETATM   12  N   UNL     1      22.579  48.726  49.252  1.00  0.00    -0.327 N 
HETATM   13  C   UNL     1      22.783  49.794  48.391  1.00  0.00     0.225 C 
HETATM   14  O   UNL     1      23.482  49.785  47.383  1.00  0.00    -0.273 OA
HETATM   15  H   UNL     1      21.962  48.887  50.037  1.00  0.00     0.169 HD
BRANCH  13  16
HETATM   16  C   UNL     1      22.017  51.048  48.828  1.00  0.00     0.070 C 
HETATM   17  C   UNL     1      20.666  51.135  48.119  1.00  0.00     0.019 C 
HETATM   18  C   UNL     1      21.817  51.071  50.343  1.00  0.00     0.019 C 
ENDBRANCH  13  16
ENDBRANCH   9  12
ENDBRANCH   5   6
ENDBRANCH   2   5
BRANCH   1  19
HETATM   19  C   UNL     1      27.048  42.299  51.190  1.00  0.00     0.157 A 
HETATM   20  C   UNL     1      27.757  42.939  52.251  1.00  0.00     0.029 A 
HETATM   21  C   UNL     1      27.529  44.033  53.109  1.00  0.00     0.023 A 
HETATM   22  C   UNL     1      28.939  42.220  52.382  1.00  0.00     0.063 A 
HETATM   23  C   UNL     1      28.493  44.371  54.072  1.00  0.00    -0.061 A 
HETATM   24  C   UNL     1      28.270  45.531  54.999  1.00  0.00     0.048 C 
HETATM   25  C   UNL     1      29.672  43.620  54.170  1.00  0.00     0.009 A 
HETATM   26  C   UNL     1      29.919  42.530  53.328  1.00  0.00     0.032 A 
HETATM   27  N   UNL     1      28.870  41.239  51.433  1.00  0.00    -0.277 N 
HETATM   28  H   UNL     1      29.562  40.524  51.241  1.00  0.00     0.189 HD
HETATM   29  N   UNL     1      27.744  41.250  50.698  1.00  0.00    -0.168 NA
ENDBRANCH   1  19
TORSDOF 5
ENDMDL
MODEL 6
REMARK VINA RESULT:      -8.3      1.423      1.699
REMARK  5 active torsions:
REMARK  status: ('A' for Active; 'I' for Inactive)
REMARK    1  A    between atoms: C_9  and  C_10 
REMARK       I    between atoms: C_10  and  N_11 
REMARK    2  A    between atoms: N_11  and  C_12 
REMARK    3  A    between atoms: C_12  and  C_13 
REMARK    4  A    between atoms: C_16  and  N_17 
REMARK       I    between atoms: N_17  and  C_18 
REMARK    5  A    between atoms: C_18  and  C_19 
ROOT
HETATM    1  C   UNL     1      27.715  42.592  52.232  1.00  0.00     0.273 C 
HETATM    2  N   UNL     1      26.380  42.926  52.291  1.00  0.00    -0.351 N 
HETATM    3  O   UNL     1      28.196  41.921  51.322  1.00  0.00    -0.266 OA
HETATM    4  H   UNL     1      26.119  43.576  53.027  1.00  0.00     0.163 HD
ENDROOT
BRANCH   2   5
HETATM    5  C   UNL     1      25.493  42.652  51.195  1.00  0.00     0.161 C 
BRANCH   5   6
HETATM    6  C   UNL     1      24.927  43.918  50.613  1.00  0.00    -0.040 A 
HETATM    7  C   UNL     1      25.067  45.137  51.287  1.00  0.00     0.011 A 
HETATM    8  C   UNL     1      24.549  46.318  50.744  1.00  0.00     0.030 A 
HETATM    9  C   UNL     1      23.876  46.303  49.522  1.00  0.00     0.034 A 
HETATM   10  C   UNL     1      23.716  45.080  48.859  1.00  0.00     0.030 A 
HETATM   11  C   UNL     1      24.230  43.897  49.401  1.00  0.00     0.011 A 
BRANCH   9  12
HETATM   12  N   UNL     1      23.345  47.449  48.895  1.00  0.00    -0.327 N 
HETATM   13  C   UNL     1      23.906  48.715  48.827  1.00  0.00     0.225 C 
HETATM   14  O   UNL     1      24.975  49.058  49.321  1.00  0.00    -0.273 OA
HETATM   15  H   UNL     1      22.459  47.319  48.425  1.00  0.00     0.169 HD
BRANCH  13  16
HETATM   16  C   UNL     1      23.031  49.697  48.038  1.00  0.00     0.070 C 
HETATM   17  C   UNL     1      21.602  49.172  47.912  1.00  0.00     0.019 C 
HETATM   18  C   UNL     1      23.029  51.079  48.690  1.00  0.00     0.019 C 
ENDBRANCH  13  16
ENDBRANCH   9  12
ENDBRANCH   5   6
ENDBRANCH   2   5
BRANCH   1  19
HETATM   19  C   UNL     1      28.505  43.132  53.349  1.00  0.00     0.157 A 
HETATM   20  C   UNL     1      28.311  44.376  54.021  1.00  0.00     0.029 A 
HETATM   21  C   UNL     1      27.416  45.460  53.912  1.00  0.00     0.023 A 
HETATM   22  C   UNL     1      29.296  44.417  54.999  1.00  0.00     0.063 A 
HETATM   23  C   UNL     1      27.538  46.550  54.790  1.00  0.00    -0.061 A 
HETATM   24  C   UNL     1      26.594  47.713  54.695  1.00  0.00     0.048 C 
HETATM   25  C   UNL     1      28.547  46.550  55.763  1.00  0.00     0.009 A 
HETATM   26  C   UNL     1      29.446  45.485  55.887  1.00  0.00     0.032 A 
HETATM   27  N   UNL     1      29.990  43.248  54.859  1.00  0.00    -0.277 N 
HETATM   28  H   UNL     1      30.783  42.937  55.410  1.00  0.00     0.189 HD
HETATM   29  N   UNL     1      29.541  42.445  53.879  1.00  0.00    -0.168 NA
ENDBRANCH   1  19
TORSDOF 5
ENDMDL
MODEL 7
REMARK VINA RESULT:      -8.2      2.434      3.366
REMARK  5 active torsions:
REMARK  status: ('A' for Active; 'I' for Inactive)
REMARK    1  A    between atoms: C_9  and  C_10 
REMARK       I    between atoms: C_10  and  N_11 
REMARK    2  A    between atoms: N_11  and  C_12 
REMARK    3  A    between atoms: C_12  and  C_13 
REMARK    4  A    between atoms: C_16  and  N_17 
REMARK       I    between atoms: N_17  and  C_18 
REMARK    5  A    between atoms: C_18  and  C_19 
ROOT
HETATM    1  C   UNL     1      28.101  43.912  53.019  1.00  0.00     0.273 C 
HETATM    2  N   UNL     1      26.876  43.291  52.909  1.00  0.00    -0.351 N 
HETATM    3  O   UNL     1      29.004  43.759  52.199  1.00  0.00    -0.266 OA
HETATM    4  H   UNL     1      26.172  43.580  53.582  1.00  0.00     0.163 HD
ENDROOT
BRANCH   2   5
HETATM    5  C   UNL     1      26.517  42.553  51.730  1.00  0.00     0.161 C 
BRANCH   5   6
HETATM    6  C   UNL     1      25.548  43.320  50.873  1.00  0.00    -0.040 A 
HETATM    7  C   UNL     1      26.002  44.318  50.003  1.00  0.00     0.011 A 
HETATM    8  C   UNL     1      25.104  45.029  49.198  1.00  0.00     0.030 A 
HETATM    9  C   UNL     1      23.736  44.759  49.252  1.00  0.00     0.034 A 
HETATM   10  C   UNL     1      23.279  43.777  50.139  1.00  0.00     0.030 A 
HETATM   11  C   UNL     1      24.174  43.068  50.947  1.00  0.00     0.011 A 
BRANCH   9  12
HETATM   12  N   UNL     1      22.769  45.411  48.459  1.00  0.00    -0.327 N 
HETATM   13  C   UNL     1      22.423  46.754  48.476  1.00  0.00     0.225 C 
HETATM   14  O   UNL     1      22.905  47.614  49.206  1.00  0.00    -0.273 OA
HETATM   15  H   UNL     1      22.288  44.827  47.788  1.00  0.00     0.169 HD
BRANCH  13  16
HETATM   16  C   UNL     1      21.336  47.087  47.448  1.00  0.00     0.070 C 
HETATM   17  C   UNL     1      21.339  46.074  46.304  1.00  0.00     0.019 C 
HETATM   18  C   UNL     1      19.956  47.137  48.102  1.00  0.00     0.019 C 
ENDBRANCH  13  16
ENDBRANCH   9  12
ENDBRANCH   5   6
ENDBRANCH   2   5
BRANCH   1  19
HETATM   19  C   UNL     1      28.211  44.787  54.196  1.00  0.00     0.157 A 
HETATM   20  C   UNL     1      29.166  44.695  55.253  1.00  0.00     0.029 A 
HETATM   21  C   UNL     1      30.246  43.849  55.575  1.00  0.00     0.023 A 
HETATM   22  C   UNL     1      28.862  45.748  56.108  1.00  0.00     0.063 A 
HETATM   23  C   UNL     1      30.987  44.086  56.744  1.00  0.00    -0.061 A 
HETATM   24  C   UNL     1      32.144  43.199  57.105  1.00  0.00     0.048 C 
HETATM   25  C   UNL     1      30.646  45.158  57.579  1.00  0.00     0.009 A 
HETATM   26  C   UNL     1      29.577  46.010  57.279  1.00  0.00     0.032 A 
HETATM   27  N   UNL     1      27.791  46.376  55.537  1.00  0.00    -0.277 N 
HETATM   28  H   UNL     1      27.301  47.191  55.889  1.00  0.00     0.189 HD
HETATM   29  N   UNL     1      27.373  45.831  54.382  1.00  0.00    -0.168 NA
ENDBRANCH   1  19
TORSDOF 5
ENDMDL
MODEL 8
REMARK VINA RESULT:      -8.2      3.233      5.347
REMARK  5 active torsions:
REMARK  status: ('A' for Active; 'I' for Inactive)
REMARK    1  A    between atoms: C_9  and  C_10 
REMARK       I    between atoms: C_10  and  N_11 
REMARK    2  A    between atoms: N_11  and  C_12 
REMARK    3  A    between atoms: C_12  and  C_13 
REMARK    4  A    between atoms: C_16  and  N_17 
REMARK       I    between atoms: N_17  and  C_18 
REMARK    5  A    between atoms: C_18  and  C_19 
ROOT
HETATM    1  C   UNL     1      25.061  47.639  50.056  1.00  0.00     0.273 C 
HETATM    2  N   UNL     1      23.817  48.078  49.660  1.00  0.00    -0.351 N 
HETATM    3  O   UNL     1      26.103  48.208  49.739  1.00  0.00    -0.266 OA
HETATM    4  H   UNL     1      23.025  47.595  50.074  1.00  0.00     0.163 HD
ENDROOT
BRANCH   2   5
HETATM    5  C   UNL     1      23.650  49.335  48.985  1.00  0.00     0.161 C 
BRANCH   5   6
HETATM    6  C   UNL     1      22.197  49.658  48.774  1.00  0.00    -0.040 A 
HETATM    7  C   UNL     1      21.793  50.966  48.480  1.00  0.00     0.011 A 
HETATM    8  C   UNL     1      20.442  51.270  48.276  1.00  0.00     0.030 A 
HETATM    9  C   UNL     1      19.469  50.274  48.368  1.00  0.00     0.034 A 
HETATM   10  C   UNL     1      19.870  48.970  48.684  1.00  0.00     0.030 A 
HETATM   11  C   UNL     1      21.219  48.665  48.892  1.00  0.00     0.011 A 
BRANCH   9  12
HETATM   12  N   UNL     1      18.092  50.490  48.154  1.00  0.00    -0.327 N 
HETATM   13  C   UNL     1      17.162  50.989  49.053  1.00  0.00     0.225 C 
HETATM   14  O   UNL     1      17.386  51.323  50.212  1.00  0.00    -0.273 OA
HETATM   15  H   UNL     1      17.754  50.270  47.226  1.00  0.00     0.169 HD
BRANCH  13  16
HETATM   16  C   UNL     1      15.761  51.097  48.440  1.00  0.00     0.070 C 
HETATM   17  C   UNL     1      15.653  52.331  47.544  1.00  0.00     0.019 C 
HETATM   18  C   UNL     1      15.408  49.840  47.647  1.00  0.00     0.019 C 
ENDBRANCH  13  16
ENDBRANCH   9  12
ENDBRANCH   5   6
ENDBRANCH   2   5
BRANCH   1  19
HETATM   19  C   UNL     1      25.016  46.442  50.910  1.00  0.00     0.157 A 
HETATM   20  C   UNL     1      25.653  46.258  52.173  1.00  0.00     0.029 A 
HETATM   21  C   UNL     1      26.481  47.029  53.014  1.00  0.00     0.023 A 
HETATM   22  C   UNL     1      25.297  44.977  52.576  1.00  0.00     0.063 A 
HETATM   23  C   UNL     1      26.924  46.490  54.234  1.00  0.00    -0.061 A 
HETATM   24  C   UNL     1      27.804  47.294  55.147  1.00  0.00     0.048 C 
HETATM   25  C   UNL     1      26.542  45.193  54.601  1.00  0.00     0.009 A 
HETATM   26  C   UNL     1      25.722  44.410  53.780  1.00  0.00     0.032 A 
HETATM   27  N   UNL     1      24.505  44.492  51.574  1.00  0.00    -0.277 N 
HETATM   28  H   UNL     1      24.063  43.581  51.529  1.00  0.00     0.189 HD
HETATM   29  N   UNL     1      24.307  45.347  50.555  1.00  0.00    -0.168 NA
ENDBRANCH   1  19
TORSDOF 5
ENDMDL
MODEL 9
REMARK VINA RESULT:      -8.1      7.213     14.052
REMARK  5 active torsions:
REMARK  status: ('A' for Active; 'I' for Inactive)
REMARK    1  A    between atoms: C_9  and  C_10 
REMARK       I    between atoms: C_10  and  N_11 
REMARK    2  A    between atoms: N_11  and  C_12 
REMARK    3  A    between atoms: C_12  and  C_13 
REMARK    4  A    between atoms: C_16  and  N_17 
REMARK       I    between atoms: N_17  and  C_18 
REMARK    5  A    between atoms: C_18  and  C_19 
ROOT
HETATM    1  C   UNL     1      14.491  53.746  50.153  1.00  0.00     0.273 C 
HETATM    2  N   UNL     1      15.345  53.130  49.265  1.00  0.00    -0.351 N 
HETATM    3  O   UNL     1      13.807  53.126  50.964  1.00  0.00    -0.266 OA
HETATM    4  H   UNL     1      15.941  53.748  48.722  1.00  0.00     0.163 HD
ENDROOT
BRANCH   2   5
HETATM    5  C   UNL     1      15.617  51.722  49.347  1.00  0.00     0.161 C 
BRANCH   5   6
HETATM    6  C   UNL     1      17.080  51.430  49.161  1.00  0.00    -0.040 A 
HETATM    7  C   UNL     1      18.002  52.474  49.019  1.00  0.00     0.011 A 
HETATM    8  C   UNL     1      19.366  52.206  48.853  1.00  0.00     0.030 A 
HETATM    9  C   UNL     1      19.833  50.892  48.820  1.00  0.00     0.034 A 
HETATM   10  C   UNL     1      18.908  49.847  48.938  1.00  0.00     0.030 A 
HETATM   11  C   UNL     1      17.544  50.112  49.101  1.00  0.00     0.011 A 
BRANCH   9  12
HETATM   12  N   UNL     1      21.190  50.536  48.680  1.00  0.00    -0.327 N 
HETATM   13  C   UNL     1      22.198  50.649  49.625  1.00  0.00     0.225 C 
HETATM   14  O   UNL     1      22.076  51.097  50.761  1.00  0.00    -0.273 OA
HETATM   15  H   UNL     1      21.447  50.133  47.788  1.00  0.00     0.169 HD
BRANCH  13  16
HETATM   16  C   UNL     1      23.545  50.136  49.103  1.00  0.00     0.070 C 
HETATM   17  C   UNL     1      23.640  48.618  49.244  1.00  0.00     0.019 C 
HETATM   18  C   UNL     1      23.763  50.544  47.646  1.00  0.00     0.019 C 
ENDBRANCH  13  16
ENDBRANCH   9  12
ENDBRANCH   5   6
ENDBRANCH   2   5
BRANCH   1  19
HETATM   19  C   UNL     1      14.497  55.213  50.049  1.00  0.00     0.157 A 
HETATM   20  C   UNL     1      14.808  56.151  51.079  1.00  0.00     0.029 A 
HETATM   21  C   UNL     1      15.181  56.080  52.436  1.00  0.00     0.023 A 
HETATM   22  C   UNL     1      14.684  57.399  50.482  1.00  0.00     0.063 A 
HETATM   23  C   UNL     1      15.420  57.266  53.152  1.00  0.00    -0.061 A 
HETATM   24  C   UNL     1      15.821  57.215  54.598  1.00  0.00     0.048 C 
HETATM   25  C   UNL     1      15.282  58.505  52.511  1.00  0.00     0.009 A 
HETATM   26  C   UNL     1      14.912  58.597  51.165  1.00  0.00     0.032 A 
HETATM   27  N   UNL     1      14.321  57.146  49.190  1.00  0.00    -0.277 N 
HETATM   28  H   UNL     1      14.143  57.825  48.459  1.00  0.00     0.189 HD
HETATM   29  N   UNL     1      14.203  55.840  48.888  1.00  0.00    -0.168 NA
ENDBRANCH   1  19
TORSDOF 5
ENDMDL
MODEL 10
REMARK VINA RESULT:      -8.1      2.510      8.147
REMARK  5 active torsions:
REMARK  status: ('A' for Active; 'I' for Inactive)
REMARK    1  A    between atoms: C_9  and  C_10 
REMARK       I    between atoms: C_10  and  N_11 
REMARK    2  A    between atoms: N_11  and  C_12 
REMARK    3  A    between atoms: C_12  and  C_13 
REMARK    4  A    between atoms: C_16  and  N_17 
REMARK       I    between atoms: N_17  and  C_18 
REMARK    5  A    between atoms: C_18  and  C_19 
ROOT
HETATM    1  C   UNL     1      24.375  43.527  50.394  1.00  0.00     0.273 C 
HETATM    2  N   UNL     1      25.725  43.432  50.139  1.00  0.00    -0.351 N 
HETATM    3  O   UNL     1      23.744  42.656  50.990  1.00  0.00    -0.266 OA
HETATM    4  H   UNL     1      26.160  44.259  49.741  1.00  0.00     0.163 HD
ENDROOT
BRANCH   2   5
HETATM    5  C   UNL     1      26.519  42.377  50.705  1.00  0.00     0.161 C 
BRANCH   5   6
HETATM    6  C   UNL     1      27.302  42.855  51.897  1.00  0.00    -0.040 A 
HETATM    7  C   UNL     1      26.645  43.362  53.024  1.00  0.00     0.011 A 
HETATM    8  C   UNL     1      27.371  43.801  54.138  1.00  0.00     0.030 A 
HETATM    9  C   UNL     1      28.765  43.746  54.143  1.00  0.00     0.034 A 
HETATM   10  C   UNL     1      29.423  43.261  53.007  1.00  0.00     0.030 A 
HETATM   11  C   UNL     1      28.700  42.825  51.891  1.00  0.00     0.011 A 
BRANCH   9  12
HETATM   12  N   UNL     1      29.569  44.145  55.231  1.00  0.00    -0.327 N 
HETATM   13  C   UNL     1      29.722  45.422  55.749  1.00  0.00     0.225 C 
HETATM   14  O   UNL     1      29.180  46.441  55.332  1.00  0.00    -0.273 OA
HETATM   15  H   UNL     1      30.076  43.403  55.696  1.00  0.00     0.169 HD
BRANCH  13  16
HETATM   16  C   UNL     1      30.672  45.452  56.953  1.00  0.00     0.070 C 
HETATM   17  C   UNL     1      29.948  45.948  58.204  1.00  0.00     0.019 C 
HETATM   18  C   UNL     1      31.279  44.073  57.209  1.00  0.00     0.019 C 
ENDBRANCH  13  16
ENDBRANCH   9  12
ENDBRANCH   5   6
ENDBRANCH   2   5
BRANCH   1  19
HETATM   19  C   UNL     1      23.772  44.776  49.906  1.00  0.00     0.157 A 
HETATM   20  C   UNL     1      24.422  46.033  49.722  1.00  0.00     0.029 A 
HETATM   21  C   UNL     1      25.723  46.541  49.910  1.00  0.00     0.023 A 
HETATM   22  C   UNL     1      23.436  46.883  49.234  1.00  0.00     0.063 A 
HETATM   23  C   UNL     1      25.995  47.884  49.600  1.00  0.00    -0.061 A 
HETATM   24  C   UNL     1      27.375  48.445  49.789  1.00  0.00     0.048 C 
HETATM   25  C   UNL     1      24.971  48.706  49.111  1.00  0.00     0.009 A 
HETATM   26  C   UNL     1      23.672  48.223  48.918  1.00  0.00     0.032 A 
HETATM   27  N   UNL     1      22.307  46.117  49.159  1.00  0.00    -0.277 N 
HETATM   28  H   UNL     1      21.389  46.409  48.843  1.00  0.00     0.189 HD
HETATM   29  N   UNL     1      22.470  44.841  49.550  1.00  0.00    -0.168 NA
ENDBRANCH   1  19
TORSDOF 5
ENDMDL
