MODEL 1
REMARK VINA RESULT:      -8.1      0.000      0.000
REMARK  5 active torsions:
REMARK  status: ('A' for Active; 'I' for Inactive)
REMARK    1  A    between atoms: C_2  and  C_3 
REMARK       I    between atoms: C_3  and  N_4 
REMARK    2  A    between atoms: N_4  and  C_5 
REMARK    3  A    between atoms: C_5  and  C_6 
REMARK    4  A    between atoms: C_5  and  C_17 
REMARK    5  A    between atoms: C_7  and  O_8 
ROOT
HETATM    1  C   UNL     1      26.410  43.218  51.820  1.00  0.00     0.154 C 
ENDROOT
BRANCH   1   2
HETATM    2  N   UNL     1      26.145  44.549  51.299  1.00  0.00    -0.348 N 
HETATM    3  C   UNL     1      24.888  45.074  51.186  1.00  0.00     0.218 C 
HETATM    4  O   UNL     1      23.878  44.496  51.581  1.00  0.00    -0.274 OA
HETATM    5  H   UNL     1      26.945  45.007  50.883  1.00  0.00     0.163 HD
BRANCH   3   6
HETATM    6  C   UNL     1      24.816  46.491  50.647  1.00  0.00     0.098 C 
HETATM    7  C   UNL     1      26.060  47.333  50.871  1.00  0.00     0.014 C 
ENDBRANCH   3   6
ENDBRANCH   1   2
BRANCH   1   8
HETATM    8  C   UNL     1      27.617  43.284  52.749  1.00  0.00     0.005 A 
HETATM    9  C   UNL     1      27.715  44.214  53.795  1.00  0.00     0.103 A 
HETATM   10  C   UNL     1      28.823  44.299  54.636  1.00  0.00     0.100 A 
HETATM   11  C   UNL     1      29.881  43.393  54.434  1.00  0.00    -0.004 A 
HETATM   12  N   UNL     1      28.838  45.235  55.611  1.00  0.00    -0.257 NA
HETATM   13  C   UNL     1      29.802  42.440  53.405  1.00  0.00     0.014 A 
HETATM   14  C   UNL     1      30.987  43.478  55.290  1.00  0.00     0.015 A 
HETATM   15  C   UNL     1      28.683  42.390  52.571  1.00  0.00     0.013 A 
HETATM   16  C   UNL     1      31.012  44.441  56.293  1.00  0.00     0.020 A 
HETATM   17  C   UNL     1      29.926  45.289  56.410  1.00  0.00     0.117 A 
BRANCH   9  18
HETATM   18  O   UNL     1      26.663  45.075  54.041  1.00  0.00    -0.358 OA
HETATM   19  H   UNL     1      27.104  45.946  54.166  1.00  0.00     0.218 HD
ENDBRANCH   9  18
ENDBRANCH   1   8
BRANCH   1  20
HETATM   20  C   UNL     1      26.553  42.143  50.742  1.00  0.00    -0.031 A 
HETATM   21  C   UNL     1      26.966  42.518  49.450  1.00  0.00     0.010 A 
HETATM   22  C   UNL     1      27.102  41.571  48.430  1.00  0.00     0.007 A 
HETATM   23  C   UNL     1      26.826  40.223  48.674  1.00  0.00    -0.062 A 
HETATM   24  C   UNL     1      26.994  39.194  47.597  1.00  0.00     0.048 C 
HETATM   25  C   UNL     1      26.428  39.838  49.957  1.00  0.00     0.007 A 
HETATM   26  C   UNL     1      26.287  40.786  50.976  1.00  0.00     0.010 A 
ENDBRANCH   1  20
TORSDOF 5
ENDMDL
MODEL 2
REMARK VINA RESULT:      -8.0      2.336      6.741
REMARK  5 active torsions:
REMARK  status: ('A' for Active; 'I' for Inactive)
REMARK    1  A    between atoms: C_2  and  C_3 
REMARK       I    between atoms: C_3  and  N_4 
REMARK    2  A    between atoms: N_4  and  C_5 
REMARK    3  A    between atoms: C_5  and  C_6 
REMARK    4  A    between atoms: C_5  and  C_17 
REMARK    5  A    between atoms: C_7  and  O_8 
ROOT
HETATM    1  C   UNL     1      25.385  44.570  51.236  1.00  0.00     0.154 C 
ENDROOT
BRANCH   1   2
HETATM    2  N   UNL     1      25.247  43.546  50.215  1.00  0.00    -0.348 N 
HETATM    3  C   UNL     1      24.156  42.728  50.115  1.00  0.00     0.218 C 
HETATM    4  O   UNL     1      23.167  42.834  50.836  1.00  0.00    -0.274 OA
HETATM    5  H   UNL     1      26.082  43.376  49.671  1.00  0.00     0.163 HD
BRANCH   3   6
HETATM    6  C   UNL     1      24.182  41.738  48.964  1.00  0.00     0.098 C 
HETATM    7  C   UNL     1      25.404  40.839  48.911  1.00  0.00     0.014 C 
ENDBRANCH   3   6
ENDBRANCH   1   2
BRANCH   1   8
HETATM    8  C   UNL     1      25.387  45.939  50.564  1.00  0.00     0.005 A 
HETATM    9  C   UNL     1      24.254  46.468  49.926  1.00  0.00     0.103 A 
HETATM   10  C   UNL     1      24.250  47.708  49.289  1.00  0.00     0.100 A 
HETATM   11  C   UNL     1      25.434  48.468  49.308  1.00  0.00    -0.004 A 
HETATM   12  N   UNL     1      23.116  48.133  48.689  1.00  0.00    -0.257 NA
HETATM   13  C   UNL     1      26.578  47.970  49.954  1.00  0.00     0.014 A 
HETATM   14  C   UNL     1      25.419  49.717  48.674  1.00  0.00     0.015 A 
HETATM   15  C   UNL     1      26.553  46.718  50.572  1.00  0.00     0.013 A 
HETATM   16  C   UNL     1      24.258  50.161  48.050  1.00  0.00     0.020 A 
HETATM   17  C   UNL     1      23.146  49.341  48.082  1.00  0.00     0.117 A 
BRANCH   9  18
HETATM   18  O   UNL     1      23.069  45.758  49.945  1.00  0.00    -0.358 OA
HETATM   19  H   UNL     1      23.216  45.084  50.646  1.00  0.00     0.218 HD
ENDBRANCH   9  18
ENDBRANCH   1   8
BRANCH   1  20
HETATM   20  C   UNL     1      26.584  44.368  52.165  1.00  0.00    -0.031 A 
HETATM   21  C   UNL     1      27.690  43.630  51.706  1.00  0.00     0.010 A 
HETATM   22  C   UNL     1      28.804  43.411  52.522  1.00  0.00     0.007 A 
HETATM   23  C   UNL     1      28.841  43.923  53.822  1.00  0.00    -0.062 A 
HETATM   24  C   UNL     1      30.039  43.719  54.698  1.00  0.00     0.048 C 
HETATM   25  C   UNL     1      27.752  44.669  54.284  1.00  0.00     0.007 A 
HETATM   26  C   UNL     1      26.635  44.883  53.469  1.00  0.00     0.010 A 
ENDBRANCH   1  20
TORSDOF 5
ENDMDL
MODEL 3
REMARK VINA RESULT:      -8.0      6.627      8.849
REMARK  5 active torsions:
REMARK  status: ('A' for Active; 'I' for Inactive)
REMARK    1  A    between atoms: C_2  and  C_3 
REMARK       I    between atoms: C_3  and  N_4 
REMARK    2  A    between atoms: N_4  and  C_5 
REMARK    3  A    between atoms: C_5  and  C_6 
REMARK    4  A    between atoms: C_5  and  C_17 
REMARK    5  A    between atoms: C_7  and  O_8 
ROOT
HETATM    1  C   UNL     1      20.887  48.685  49.129  1.00  0.00     0.154 C 
ENDROOT
BRANCH   1   2
HETATM    2  N   UNL     1      20.059  49.872  48.998  1.00  0.00    -0.348 N 
HETATM    3  C   UNL     1      19.180  50.284  49.960  1.00  0.00     0.218 C 
HETATM    4  O   UNL     1      19.063  49.726  51.049  1.00  0.00    -0.274 OA
HETATM    5  H   UNL     1      20.067  50.294  48.079  1.00  0.00     0.163 HD
BRANCH   3   6
HETATM    6  C   UNL     1      18.425  51.565  49.654  1.00  0.00     0.098 C 
HETATM    7  C   UNL     1      19.025  52.422  48.553  1.00  0.00     0.014 C 
ENDBRANCH   3   6
ENDBRANCH   1   2
BRANCH   1   8
HETATM    8  C   UNL     1      22.342  49.069  48.883  1.00  0.00     0.005 A 
HETATM    9  C   UNL     1      23.416  48.307  49.369  1.00  0.00     0.103 A 
HETATM   10  C   UNL     1      24.750  48.660  49.171  1.00  0.00     0.100 A 
HETATM   11  C   UNL     1      25.026  49.824  48.431  1.00  0.00    -0.004 A 
HETATM   12  N   UNL     1      25.720  47.872  49.686  1.00  0.00    -0.257 NA
HETATM   13  C   UNL     1      23.970  50.597  47.918  1.00  0.00     0.014 A 
HETATM   14  C   UNL     1      26.368  50.167  48.227  1.00  0.00     0.015 A 
HETATM   15  C   UNL     1      22.644  50.223  48.146  1.00  0.00     0.013 A 
HETATM   16  C   UNL     1      27.374  49.365  48.757  1.00  0.00     0.020 A 
HETATM   17  C   UNL     1      27.003  48.242  49.473  1.00  0.00     0.117 A 
BRANCH   9  18
HETATM   18  O   UNL     1      23.163  47.133  50.052  1.00  0.00    -0.358 OA
HETATM   19  H   UNL     1      22.194  47.008  49.943  1.00  0.00     0.218 HD
ENDBRANCH   9  18
ENDBRANCH   1   8
BRANCH   1  20
HETATM   20  C   UNL     1      20.433  47.510  48.261  1.00  0.00    -0.031 A 
HETATM   21  C   UNL     1      19.572  46.543  48.812  1.00  0.00     0.010 A 
HETATM   22  C   UNL     1      19.138  45.447  48.059  1.00  0.00     0.007 A 
HETATM   23  C   UNL     1      19.557  45.287  46.735  1.00  0.00    -0.062 A 
HETATM   24  C   UNL     1      19.078  44.131  45.910  1.00  0.00     0.048 C 
HETATM   25  C   UNL     1      20.402  46.248  46.175  1.00  0.00     0.007 A 
HETATM   26  C   UNL     1      20.840  47.342  46.929  1.00  0.00     0.010 A 
ENDBRANCH   1  20
TORSDOF 5
ENDMDL
MODEL 4
REMARK VINA RESULT:      -7.7      7.129     10.544
REMARK  5 active torsions:
REMARK  status: ('A' for Active; 'I' for Inactive)
REMARK    1  A    between atoms: C_2  and  C_3 
REMARK       I    between atoms: C_3  and  N_4 
REMARK    2  A    between atoms: N_4  and  C_5 
REMARK    3  A    between atoms: C_5  and  C_6 
REMARK    4  A    between atoms: C_5  and  C_17 
REMARK    5  A    between atoms: C_7  and  O_8 
ROOT
HETATM    1  C   UNL     1      22.017  48.933  48.940  1.00  0.00     0.154 C 
ENDROOT
BRANCH   1   2
HETATM    2  N   UNL     1      23.180  49.533  48.309  1.00  0.00    -0.348 N 
HETATM    3  C   UNL     1      24.454  49.374  48.778  1.00  0.00     0.218 C 
HETATM    4  O   UNL     1      24.735  48.652  49.732  1.00  0.00    -0.274 OA
HETATM    5  H   UNL     1      22.968  50.204  47.583  1.00  0.00     0.163 HD
BRANCH   3   6
HETATM    6  C   UNL     1      25.541  50.055  47.966  1.00  0.00     0.098 C 
HETATM    7  C   UNL     1      26.946  49.924  48.527  1.00  0.00     0.014 C 
ENDBRANCH   3   6
ENDBRANCH   1   2
BRANCH   1   8
HETATM    8  C   UNL     1      21.622  47.684  48.159  1.00  0.00     0.005 A 
HETATM    9  C   UNL     1      22.194  46.427  48.407  1.00  0.00     0.103 A 
HETATM   10  C   UNL     1      21.858  45.283  47.685  1.00  0.00     0.100 A 
HETATM   11  C   UNL     1      20.884  45.397  46.675  1.00  0.00    -0.004 A 
HETATM   12  N   UNL     1      22.469  44.115  47.983  1.00  0.00    -0.257 NA
HETATM   13  C   UNL     1      20.282  46.641  46.417  1.00  0.00     0.014 A 
HETATM   14  C   UNL     1      20.544  44.241  45.961  1.00  0.00     0.015 A 
HETATM   15  C   UNL     1      20.651  47.770  47.151  1.00  0.00     0.013 A 
HETATM   16  C   UNL     1      21.171  43.036  46.258  1.00  0.00     0.020 A 
HETATM   17  C   UNL     1      22.118  43.025  47.265  1.00  0.00     0.117 A 
BRANCH   9  18
HETATM   18  O   UNL     1      23.112  46.286  49.429  1.00  0.00    -0.358 OA
HETATM   19  H   UNL     1      22.965  45.367  49.746  1.00  0.00     0.218 HD
ENDBRANCH   9  18
ENDBRANCH   1   8
BRANCH   1  20
HETATM   20  C   UNL     1      20.847  49.898  49.139  1.00  0.00    -0.031 A 
HETATM   21  C   UNL     1      20.833  51.114  48.430  1.00  0.00     0.010 A 
HETATM   22  C   UNL     1      19.789  52.030  48.587  1.00  0.00     0.007 A 
HETATM   23  C   UNL     1      18.732  51.758  49.460  1.00  0.00    -0.062 A 
HETATM   24  C   UNL     1      17.594  52.721  49.617  1.00  0.00     0.048 C 
HETATM   25  C   UNL     1      18.731  50.548  50.160  1.00  0.00     0.007 A 
HETATM   26  C   UNL     1      19.777  49.633  50.007  1.00  0.00     0.010 A 
ENDBRANCH   1  20
TORSDOF 5
ENDMDL
MODEL 5
REMARK VINA RESULT:      -7.7      2.118      6.400
REMARK  5 active torsions:
REMARK  status: ('A' for Active; 'I' for Inactive)
REMARK    1  A    between atoms: C_2  and  C_3 
REMARK       I    between atoms: C_3  and  N_4 
REMARK    2  A    between atoms: N_4  and  C_5 
REMARK    3  A    between atoms: C_5  and  C_6 
REMARK    4  A    between atoms: C_5  and  C_17 
REMARK    5  A    between atoms: C_7  and  O_8 
ROOT
HETATM    1  C   UNL     1      26.967  42.853  51.470  1.00  0.00     0.154 C 
ENDROOT
BRANCH   1   2
HETATM    2  N   UNL     1      27.565  42.251  50.289  1.00  0.00    -0.348 N 
HETATM    3  C   UNL     1      27.287  40.980  49.872  1.00  0.00     0.218 C 
HETATM    4  O   UNL     1      26.456  40.258  50.419  1.00  0.00    -0.274 OA
HETATM    5  H   UNL     1      28.318  42.786  49.878  1.00  0.00     0.163 HD
BRANCH   3   6
HETATM    6  C   UNL     1      27.988  40.539  48.599  1.00  0.00     0.098 C 
HETATM    7  C   UNL     1      27.844  39.067  48.258  1.00  0.00     0.014 C 
ENDBRANCH   3   6
ENDBRANCH   1   2
BRANCH   1   8
HETATM    8  C   UNL     1      26.196  44.100  51.051  1.00  0.00     0.005 A 
HETATM    9  C   UNL     1      26.805  45.176  50.388  1.00  0.00     0.103 A 
HETATM   10  C   UNL     1      26.116  46.331  50.021  1.00  0.00     0.100 A 
HETATM   11  C   UNL     1      24.742  46.406  50.314  1.00  0.00    -0.004 A 
HETATM   12  N   UNL     1      26.786  47.325  49.395  1.00  0.00    -0.257 NA
HETATM   13  C   UNL     1      24.103  45.335  50.962  1.00  0.00     0.014 A 
HETATM   14  C   UNL     1      24.054  47.565  49.933  1.00  0.00     0.015 A 
HETATM   15  C   UNL     1      24.825  44.197  51.328  1.00  0.00     0.013 A 
HETATM   16  C   UNL     1      24.736  48.594  49.293  1.00  0.00     0.020 A 
HETATM   17  C   UNL     1      26.088  48.429  49.051  1.00  0.00     0.117 A 
BRANCH   9  18
HETATM   18  O   UNL     1      28.141  45.097  50.046  1.00  0.00    -0.358 OA
HETATM   19  H   UNL     1      28.606  45.363  50.871  1.00  0.00     0.218 HD
ENDBRANCH   9  18
ENDBRANCH   1   8
BRANCH   1  20
HETATM   20  C   UNL     1      27.960  43.125  52.601  1.00  0.00    -0.031 A 
HETATM   21  C   UNL     1      29.253  42.575  52.527  1.00  0.00     0.010 A 
HETATM   22  C   UNL     1      30.190  42.789  53.542  1.00  0.00     0.007 A 
HETATM   23  C   UNL     1      29.859  43.558  54.661  1.00  0.00    -0.062 A 
HETATM   24  C   UNL     1      30.863  43.818  55.743  1.00  0.00     0.048 C 
HETATM   25  C   UNL     1      28.581  44.120  54.739  1.00  0.00     0.007 A 
HETATM   26  C   UNL     1      27.641  43.901  53.726  1.00  0.00     0.010 A 
ENDBRANCH   1  20
TORSDOF 5
ENDMDL
MODEL 6
REMARK VINA RESULT:      -7.3      2.365      4.331
REMARK  5 active torsions:
REMARK  status: ('A' for Active; 'I' for Inactive)
REMARK    1  A    between atoms: C_2  and  C_3 
REMARK       I    between atoms: C_3  and  N_4 
REMARK    2  A    between atoms: N_4  and  C_5 
REMARK    3  A    between atoms: C_5  and  C_6 
REMARK    4  A    between atoms: C_5  and  C_17 
REMARK    5  A    between atoms: C_7  and  O_8 
ROOT
HETATM    1  C   UNL     1      27.553  42.934  50.843  1.00  0.00     0.154 C 
ENDROOT
BRANCH   1   2
HETATM    2  N   UNL     1      27.742  41.499  50.962  1.00  0.00    -0.348 N 
HETATM    3  C   UNL     1      27.985  40.682  49.893  1.00  0.00     0.218 C 
HETATM    4  O   UNL     1      28.135  41.100  48.747  1.00  0.00    -0.274 OA
HETATM    5  H   UNL     1      27.531  41.119  51.875  1.00  0.00     0.163 HD
BRANCH   3   6
HETATM    6  C   UNL     1      28.184  39.213  50.222  1.00  0.00     0.098 C 
HETATM    7  C   UNL     1      27.242  38.258  49.512  1.00  0.00     0.014 C 
ENDBRANCH   3   6
ENDBRANCH   1   2
BRANCH   1   8
HETATM    8  C   UNL     1      27.952  43.595  52.157  1.00  0.00     0.005 A 
HETATM    9  C   UNL     1      29.098  43.218  52.874  1.00  0.00     0.103 A 
HETATM   10  C   UNL     1      29.460  43.798  54.089  1.00  0.00     0.100 A 
HETATM   11  C   UNL     1      28.647  44.825  54.603  1.00  0.00    -0.004 A 
HETATM   12  N   UNL     1      30.575  43.363  54.717  1.00  0.00    -0.257 NA
HETATM   13  C   UNL     1      27.503  45.234  53.898  1.00  0.00     0.014 A 
HETATM   14  C   UNL     1      29.023  45.410  55.819  1.00  0.00     0.015 A 
HETATM   15  C   UNL     1      27.160  44.623  52.690  1.00  0.00     0.013 A 
HETATM   16  C   UNL     1      30.166  44.966  56.475  1.00  0.00     0.020 A 
HETATM   17  C   UNL     1      30.900  43.950  55.891  1.00  0.00     0.117 A 
BRANCH   9  18
HETATM   18  O   UNL     1      29.936  42.249  52.357  1.00  0.00    -0.358 OA
HETATM   19  H   UNL     1      30.006  42.490  51.406  1.00  0.00     0.218 HD
ENDBRANCH   9  18
ENDBRANCH   1   8
BRANCH   1  20
HETATM   20  C   UNL     1      26.153  43.343  50.378  1.00  0.00    -0.031 A 
HETATM   21  C   UNL     1      25.039  42.613  50.832  1.00  0.00     0.010 A 
HETATM   22  C   UNL     1      23.743  42.945  50.427  1.00  0.00     0.007 A 
HETATM   23  C   UNL     1      23.525  44.014  49.554  1.00  0.00    -0.062 A 
HETATM   24  C   UNL     1      22.138  44.396  49.133  1.00  0.00     0.048 C 
HETATM   25  C   UNL     1      24.624  44.753  49.107  1.00  0.00     0.007 A 
HETATM   26  C   UNL     1      25.922  44.418  49.508  1.00  0.00     0.010 A 
ENDBRANCH   1  20
TORSDOF 5
ENDMDL
MODEL 7
REMARK VINA RESULT:      -7.2      6.826      9.856
REMARK  5 active torsions:
REMARK  status: ('A' for Active; 'I' for Inactive)
REMARK    1  A    between atoms: C_2  and  C_3 
REMARK       I    between atoms: C_3  and  N_4 
REMARK    2  A    between atoms: N_4  and  C_5 
REMARK    3  A    between atoms: C_5  and  C_6 
REMARK    4  A    between atoms: C_5  and  C_17 
REMARK    5  A    between atoms: C_7  and  O_8 
ROOT
HETATM    1  C   UNL     1      21.151  48.399  47.668  1.00  0.00     0.154 C 
ENDROOT
BRANCH   1   2
HETATM    2  N   UNL     1      20.546  47.079  47.716  1.00  0.00    -0.348 N 
HETATM    3  C   UNL     1      19.721  46.594  46.739  1.00  0.00     0.218 C 
HETATM    4  O   UNL     1      19.477  47.205  45.701  1.00  0.00    -0.274 OA
HETATM    5  H   UNL     1      20.655  46.596  48.598  1.00  0.00     0.163 HD
BRANCH   3   6
HETATM    6  C   UNL     1      19.210  45.181  46.954  1.00  0.00     0.098 C 
HETATM    7  C   UNL     1      20.144  44.078  46.490  1.00  0.00     0.014 C 
ENDBRANCH   3   6
ENDBRANCH   1   2
BRANCH   1   8
HETATM    8  C   UNL     1      22.551  48.322  48.265  1.00  0.00     0.005 A 
HETATM    9  C   UNL     1      23.566  49.231  47.930  1.00  0.00     0.103 A 
HETATM   10  C   UNL     1      24.857  49.157  48.452  1.00  0.00     0.100 A 
HETATM   11  C   UNL     1      25.142  48.132  49.373  1.00  0.00    -0.004 A 
HETATM   12  N   UNL     1      25.775  50.069  48.063  1.00  0.00    -0.257 NA
HETATM   13  C   UNL     1      24.140  47.218  49.740  1.00  0.00     0.014 A 
HETATM   14  C   UNL     1      26.438  48.071  49.901  1.00  0.00     0.015 A 
HETATM   15  C   UNL     1      22.861  47.312  49.188  1.00  0.00     0.013 A 
HETATM   16  C   UNL     1      27.391  49.002  49.504  1.00  0.00     0.020 A 
HETATM   17  C   UNL     1      27.016  49.970  48.590  1.00  0.00     0.117 A 
BRANCH   9  18
HETATM   18  O   UNL     1      23.288  50.274  47.068  1.00  0.00    -0.358 OA
HETATM   19  H   UNL     1      22.307  50.342  47.099  1.00  0.00     0.218 HD
ENDBRANCH   9  18
ENDBRANCH   1   8
BRANCH   1  20
HETATM   20  C   UNL     1      20.299  49.499  48.303  1.00  0.00    -0.031 A 
HETATM   21  C   UNL     1      19.879  50.585  47.512  1.00  0.00     0.010 A 
HETATM   22  C   UNL     1      19.107  51.617  48.051  1.00  0.00     0.007 A 
HETATM   23  C   UNL     1      18.736  51.595  49.398  1.00  0.00    -0.062 A 
HETATM   24  C   UNL     1      17.886  52.683  49.983  1.00  0.00     0.048 C 
HETATM   25  C   UNL     1      19.137  50.516  50.190  1.00  0.00     0.007 A 
HETATM   26  C   UNL     1      19.914  49.484  49.652  1.00  0.00     0.010 A 
ENDBRANCH   1  20
TORSDOF 5
ENDMDL
MODEL 8
REMARK VINA RESULT:      -7.2      3.805      7.812
REMARK  5 active torsions:
REMARK  status: ('A' for Active; 'I' for Inactive)
REMARK    1  A    between atoms: C_2  and  C_3 
REMARK       I    between atoms: C_3  and  N_4 
REMARK    2  A    between atoms: N_4  and  C_5 
REMARK    3  A    between atoms: C_5  and  C_6 
REMARK    4  A    between atoms: C_5  and  C_17 
REMARK    5  A    between atoms: C_7  and  O_8 
ROOT
HETATM    1  C   UNL     1      25.697  46.230  49.746  1.00  0.00     0.154 C 
ENDROOT
BRANCH   1   2
HETATM    2  N   UNL     1      26.246  47.571  49.642  1.00  0.00    -0.348 N 
HETATM    3  C   UNL     1      27.515  47.831  49.207  1.00  0.00     0.218 C 
HETATM    4  O   UNL     1      28.278  46.959  48.798  1.00  0.00    -0.274 OA
HETATM    5  H   UNL     1      25.675  48.295  50.058  1.00  0.00     0.163 HD
BRANCH   3   6
HETATM    6  C   UNL     1      27.898  49.299  49.140  1.00  0.00     0.098 C 
HETATM    7  C   UNL     1      26.886  50.200  48.455  1.00  0.00     0.014 C 
ENDBRANCH   3   6
ENDBRANCH   1   2
BRANCH   1   8
HETATM    8  C   UNL     1      24.249  46.252  49.269  1.00  0.00     0.005 A 
HETATM    9  C   UNL     1      23.440  47.395  49.364  1.00  0.00     0.103 A 
HETATM   10  C   UNL     1      22.108  47.421  48.953  1.00  0.00     0.100 A 
HETATM   11  C   UNL     1      21.562  46.248  48.398  1.00  0.00    -0.004 A 
HETATM   12  N   UNL     1      21.400  48.563  49.093  1.00  0.00    -0.257 NA
HETATM   13  C   UNL     1      22.354  45.094  48.275  1.00  0.00     0.014 A 
HETATM   14  C   UNL     1      20.226  46.285  47.977  1.00  0.00     0.015 A 
HETATM   15  C   UNL     1      23.682  45.098  48.709  1.00  0.00     0.013 A 
HETATM   16  C   UNL     1      19.488  47.455  48.122  1.00  0.00     0.020 A 
HETATM   17  C   UNL     1      20.112  48.554  48.682  1.00  0.00     0.117 A 
BRANCH   9  18
HETATM   18  O   UNL     1      23.976  48.569  49.857  1.00  0.00    -0.358 OA
HETATM   19  H   UNL     1      23.538  49.265  49.318  1.00  0.00     0.218 HD
ENDBRANCH   9  18
ENDBRANCH   1   8
BRANCH   1  20
HETATM   20  C   UNL     1      25.852  45.597  51.130  1.00  0.00    -0.031 A 
HETATM   21  C   UNL     1      26.401  44.306  51.237  1.00  0.00     0.010 A 
HETATM   22  C   UNL     1      26.553  43.686  52.480  1.00  0.00     0.007 A 
HETATM   23  C   UNL     1      26.158  44.338  53.651  1.00  0.00    -0.062 A 
HETATM   24  C   UNL     1      26.340  43.693  54.992  1.00  0.00     0.048 C 
HETATM   25  C   UNL     1      25.622  45.625  53.557  1.00  0.00     0.007 A 
HETATM   26  C   UNL     1      25.465  46.245  52.313  1.00  0.00     0.010 A 
ENDBRANCH   1  20
TORSDOF 5
ENDMDL
MODEL 9
REMARK VINA RESULT:      -7.2      5.727      9.645
REMARK  5 active torsions:
REMARK  status: ('A' for Active; 'I' for Inactive)
REMARK    1  A    between atoms: C_2  and  C_3 
REMARK       I    between atoms: C_3  and  N_4 
REMARK    2  A    between atoms: N_4  and  C_5 
REMARK    3  A    between atoms: C_5  and  C_6 
REMARK    4  A    between atoms: C_5  and  C_17 
REMARK    5  A    between atoms: C_7  and  O_8 
ROOT
HETATM    1  C   UNL     1      22.786  47.435  48.252  1.00  0.00     0.154 C 
ENDROOT
BRANCH   1   2
HETATM    2  N   UNL     1      23.318  47.058  49.550  1.00  0.00    -0.348 N 
HETATM    3  C   UNL     1      24.561  47.419  49.987  1.00  0.00     0.218 C 
HETATM    4  O   UNL     1      25.311  48.155  49.349  1.00  0.00    -0.274 OA
HETATM    5  H   UNL     1      22.762  46.379  50.053  1.00  0.00     0.163 HD
BRANCH   3   6
HETATM    6  C   UNL     1      24.926  46.954  51.385  1.00  0.00     0.098 C 
HETATM    7  C   UNL     1      24.814  45.458  51.619  1.00  0.00     0.014 C 
ENDBRANCH   3   6
ENDBRANCH   1   2
BRANCH   1   8
HETATM    8  C   UNL     1      21.930  48.686  48.414  1.00  0.00     0.005 A 
HETATM    9  C   UNL     1      20.693  48.673  49.077  1.00  0.00     0.103 A 
HETATM   10  C   UNL     1      19.891  49.805  49.211  1.00  0.00     0.100 A 
HETATM   11  C   UNL     1      20.359  51.019  48.674  1.00  0.00    -0.004 A 
HETATM   12  N   UNL     1      18.707  49.698  49.855  1.00  0.00    -0.257 NA
HETATM   13  C   UNL     1      21.602  51.064  48.020  1.00  0.00     0.014 A 
HETATM   14  C   UNL     1      19.552  52.154  48.822  1.00  0.00     0.015 A 
HETATM   15  C   UNL     1      22.376  49.909  47.891  1.00  0.00     0.013 A 
HETATM   16  C   UNL     1      18.330  52.052  49.479  1.00  0.00     0.020 A 
HETATM   17  C   UNL     1      17.955  50.815  49.970  1.00  0.00     0.117 A 
BRANCH   9  18
HETATM   18  O   UNL     1      20.244  47.503  49.656  1.00  0.00    -0.358 OA
HETATM   19  H   UNL     1      20.835  47.389  50.433  1.00  0.00     0.218 HD
ENDBRANCH   9  18
ENDBRANCH   1   8
BRANCH   1  20
HETATM   20  C   UNL     1      22.051  46.307  47.527  1.00  0.00    -0.031 A 
HETATM   21  C   UNL     1      22.167  44.990  48.009  1.00  0.00     0.010 A 
HETATM   22  C   UNL     1      21.520  43.927  47.374  1.00  0.00     0.007 A 
HETATM   23  C   UNL     1      20.740  44.150  46.236  1.00  0.00    -0.062 A 
HETATM   24  C   UNL     1      20.020  43.022  45.560  1.00  0.00     0.048 C 
HETATM   25  C   UNL     1      20.608  45.456  45.755  1.00  0.00     0.007 A 
HETATM   26  C   UNL     1      21.259  46.520  46.388  1.00  0.00     0.010 A 
ENDBRANCH   1  20
TORSDOF 5
ENDMDL
MODEL 10
REMARK VINA RESULT:      -6.9     11.052     15.481
REMARK  5 active torsions:
REMARK  status: ('A' for Active; 'I' for Inactive)
REMARK    1  A    between atoms: C_2  and  C_3 
REMARK       I    between atoms: C_3  and  N_4 
REMARK    2  A    between atoms: N_4  and  C_5 
REMARK    3  A    between atoms: C_5  and  C_6 
REMARK    4  A    between atoms: C_5  and  C_17 
REMARK    5  A    between atoms: C_7  and  O_8 
ROOT
HETATM    1  C   UNL     1      16.835  52.109  48.413  1.00  0.00     0.154 C 
ENDROOT
BRANCH   1   2
HETATM    2  N   UNL     1      16.110  52.462  49.622  1.00  0.00    -0.348 N 
HETATM    3  C   UNL     1      15.113  53.397  49.654  1.00  0.00     0.218 C 
HETATM    4  O   UNL     1      14.695  53.970  48.650  1.00  0.00    -0.274 OA
HETATM    5  H   UNL     1      16.495  52.076  50.473  1.00  0.00     0.163 HD
BRANCH   3   6
HETATM    6  C   UNL     1      14.453  53.606  51.005  1.00  0.00     0.098 C 
HETATM    7  C   UNL     1      14.671  54.974  51.626  1.00  0.00     0.014 C 
ENDBRANCH   3   6
ENDBRANCH   1   2
BRANCH   1   8
HETATM    8  C   UNL     1      16.049  51.041  47.661  1.00  0.00     0.005 A 
HETATM    9  C   UNL     1      15.349  51.314  46.475  1.00  0.00     0.103 A 
HETATM   10  C   UNL     1      14.608  50.351  45.791  1.00  0.00     0.100 A 
HETATM   11  C   UNL     1      14.582  49.042  46.307  1.00  0.00    -0.004 A 
HETATM   12  N   UNL     1      13.955  50.706  44.662  1.00  0.00    -0.257 NA
HETATM   13  C   UNL     1      15.288  48.737  47.483  1.00  0.00     0.014 A 
HETATM   14  C   UNL     1      13.844  48.078  45.608  1.00  0.00     0.015 A 
HETATM   15  C   UNL     1      16.010  49.728  48.152  1.00  0.00     0.013 A 
HETATM   16  C   UNL     1      13.165  48.435  44.448  1.00  0.00     0.020 A 
HETATM   17  C   UNL     1      13.248  49.748  44.021  1.00  0.00     0.117 A 
BRANCH   9  18
HETATM   18  O   UNL     1      15.407  52.580  45.926  1.00  0.00    -0.358 OA
HETATM   19  H   UNL     1      14.774  52.534  45.175  1.00  0.00     0.218 HD
ENDBRANCH   9  18
ENDBRANCH   1   8
BRANCH   1  20
HETATM   20  C   UNL     1      18.291  51.709  48.654  1.00  0.00    -0.031 A 
HETATM   21  C   UNL     1      18.778  51.650  49.972  1.00  0.00     0.010 A 
HETATM   22  C   UNL     1      20.104  51.298  50.239  1.00  0.00     0.007 A 
HETATM   23  C   UNL     1      20.982  50.999  49.194  1.00  0.00    -0.062 A 
HETATM   24  C   UNL     1      22.399  50.596  49.468  1.00  0.00     0.048 C 
HETATM   25  C   UNL     1      20.506  51.044  47.881  1.00  0.00     0.007 A 
HETATM   26  C   UNL     1      19.180  51.400  47.613  1.00  0.00     0.010 A 
ENDBRANCH   1  20
TORSDOF 5
ENDMDL
