MODEL 1
REMARK VINA RESULT:      -7.9      0.000      0.000
REMARK  14 active torsions:
REMARK  status: ('A' for Active; 'I' for Inactive)
REMARK    1  A    between atoms: C_2  and  N_3 
REMARK    2  A    between atoms: N_3  and  C_5 
REMARK    3  A    between atoms: N_3  and  C_37 
REMARK    4  A    between atoms: C_5  and  C_6 
REMARK    5  A    between atoms: C_6  and  N_7 
REMARK    6  A    between atoms: C_10  and  O_11 
REMARK    7  A    between atoms: C_12  and  C_13 
REMARK    8  A    between atoms: C_13  and  C_14 
REMARK    9  A    between atoms: C_18  and  O_19 
REMARK   10  A    between atoms: O_19  and  C_20 
REMARK   11  A    between atoms: C_26  and  C_27 
REMARK   12  A    between atoms: C_29  and  O_30 
REMARK   13  A    between atoms: O_30  and  C_31 
REMARK   14  A    between atoms: C_33  and  O_34 
ROOT
HETATM    1  N   UNL     1      28.028  43.090  52.142  1.00  0.00    -0.332 N 
HETATM    2  C   UNL     1      27.561  41.863  52.552  1.00  0.00     0.278 C 
HETATM    3  O   UNL     1      27.678  41.365  53.656  1.00  0.00    -0.265 OA
HETATM    4  C   UNL     1      26.913  41.221  51.387  1.00  0.00     0.146 C 
HETATM    5  C   UNL     1      26.995  42.081  50.363  1.00  0.00     0.059 C 
HETATM    6  C   UNL     1      27.617  43.388  50.779  1.00  0.00     0.161 C 
ENDROOT
BRANCH   5   7
HETATM    7  C   UNL     1      26.615  41.961  48.938  1.00  0.00     0.193 C 
HETATM    8  O   UNL     1      27.496  41.979  48.079  1.00  0.00    -0.287 OA
BRANCH   7   9
HETATM    9  C   UNL     1      25.214  41.831  48.499  1.00  0.00     0.015 A 
HETATM   10  C   UNL     1      24.736  40.676  47.874  1.00  0.00     0.025 A 
HETATM   11  C   UNL     1      23.417  40.625  47.396  1.00  0.00    -0.028 A 
HETATM   12  C   UNL     1      22.904  39.373  46.738  1.00  0.00     0.051 C 
HETATM   13  C   UNL     1      22.608  41.771  47.485  1.00  0.00     0.075 A 
HETATM   14  C   UNL     1      23.085  42.920  48.117  1.00  0.00     0.038 A 
HETATM   15  C   UNL     1      24.391  42.955  48.613  1.00  0.00     0.018 A 
BRANCH  13  16
HETATM   16  O   UNL     1      21.347  41.676  46.960  1.00  0.00    -0.346 OA
BRANCH  16  17
HETATM   17  C   UNL     1      21.101  42.390  45.737  1.00  0.00     0.121 C 
HETATM   18  C   UNL     1      20.474  41.481  44.679  1.00  0.00     0.040 C 
HETATM   19  C   UNL     1      20.132  43.519  46.084  1.00  0.00     0.040 C 
ENDBRANCH  16  17
ENDBRANCH  13  16
ENDBRANCH   7   9
ENDBRANCH   5   7
BRANCH   4  20
HETATM   20  O   UNL     1      26.396  39.965  51.435  1.00  0.00    -0.355 OA
HETATM   21  H   UNL     1      25.904  39.890  52.279  1.00  0.00     0.218 HD
ENDBRANCH   4  20
BRANCH   6  22
HETATM   22  C   UNL     1      26.685  44.590  50.733  1.00  0.00    -0.028 A 
HETATM   23  C   UNL     1      26.945  45.628  49.814  1.00  0.00     0.049 A 
HETATM   24  C   UNL     1      26.155  46.779  49.797  1.00  0.00     0.102 A 
HETATM   25  C   UNL     1      25.092  46.878  50.699  1.00  0.00     0.099 A 
HETATM   26  C   UNL     1      24.799  45.860  51.596  1.00  0.00     0.040 A 
HETATM   27  C   UNL     1      25.593  44.715  51.613  1.00  0.00     0.012 A 
BRANCH  24  28
HETATM   28  O   UNL     1      26.325  47.867  48.982  1.00  0.00    -0.349 OA
BRANCH  28  29
HETATM   29  C   UNL     1      27.451  48.706  49.245  1.00  0.00     0.171 C 
HETATM   30  C   UNL     1      27.179  50.061  48.616  1.00  0.00     0.034 C 
ENDBRANCH  28  29
ENDBRANCH  24  28
BRANCH  25  31
HETATM   31  O   UNL     1      24.305  47.996  50.719  1.00  0.00    -0.358 OA
HETATM   32  H   UNL     1      24.792  48.649  51.260  1.00  0.00     0.218 HD
ENDBRANCH  25  31
ENDBRANCH   6  22
BRANCH   1  33
HETATM   33  C   UNL     1      28.598  44.071  53.051  1.00  0.00     0.155 C 
BRANCH  33  34
HETATM   34  C   UNL     1      29.714  43.482  53.928  1.00  0.00     0.254 C 
BRANCH  34  35
HETATM   35  N   UNL     1      29.744  44.047  55.346  1.00  0.00    -0.070 N 
HETATM   36  H   UNL     1      29.278  43.340  55.932  1.00  0.00     0.279 HD
BRANCH  35  37
HETATM   37  C   UNL     1      28.921  45.317  55.522  1.00  0.00     0.230 C 
HETATM   38  C   UNL     1      29.231  46.002  56.841  1.00  0.00     0.034 C 
ENDBRANCH  35  37
BRANCH  35  39
HETATM   39  C   UNL     1      31.131  44.223  55.944  1.00  0.00     0.230 C 
HETATM   40  C   UNL     1      31.445  43.132  56.952  1.00  0.00     0.034 C 
ENDBRANCH  35  39
ENDBRANCH  34  35
ENDBRANCH  33  34
ENDBRANCH   1  33
TORSDOF 14
ENDMDL
MODEL 2
REMARK VINA RESULT:      -7.6      5.730     10.929
REMARK  14 active torsions:
REMARK  status: ('A' for Active; 'I' for Inactive)
REMARK    1  A    between atoms: C_2  and  N_3 
REMARK    2  A    between atoms: N_3  and  C_5 
REMARK    3  A    between atoms: N_3  and  C_37 
REMARK    4  A    between atoms: C_5  and  C_6 
REMARK    5  A    between atoms: C_6  and  N_7 
REMARK    6  A    between atoms: C_10  and  O_11 
REMARK    7  A    between atoms: C_12  and  C_13 
REMARK    8  A    between atoms: C_13  and  C_14 
REMARK    9  A    between atoms: C_18  and  O_19 
REMARK   10  A    between atoms: O_19  and  C_20 
REMARK   11  A    between atoms: C_26  and  C_27 
REMARK   12  A    between atoms: C_29  and  O_30 
REMARK   13  A    between atoms: O_30  and  C_31 
REMARK   14  A    between atoms: C_33  and  O_34 
ROOT
HETATM    1  N   UNL     1      18.931  49.568  48.503  1.00  0.00    -0.332 N 
HETATM    2  C   UNL     1      19.239  50.131  49.718  1.00  0.00     0.278 C 
HETATM    3  O   UNL     1      18.458  50.498  50.577  1.00  0.00    -0.265 OA
HETATM    4  C   UNL     1      20.712  50.255  49.792  1.00  0.00     0.146 C 
HETATM    5  C   UNL     1      21.209  49.748  48.656  1.00  0.00     0.059 C 
HETATM    6  C   UNL     1      20.129  49.170  47.781  1.00  0.00     0.161 C 
ENDROOT
BRANCH   5   7
HETATM    7  C   UNL     1      22.588  49.685  48.122  1.00  0.00     0.193 C 
HETATM    8  O   UNL     1      22.854  50.276  47.076  1.00  0.00    -0.287 OA
BRANCH   7   9
HETATM    9  C   UNL     1      23.664  48.929  48.791  1.00  0.00     0.015 A 
HETATM   10  C   UNL     1      25.002  49.321  48.716  1.00  0.00     0.025 A 
HETATM   11  C   UNL     1      26.005  48.527  49.296  1.00  0.00    -0.028 A 
HETATM   12  C   UNL     1      27.443  48.963  49.226  1.00  0.00     0.051 C 
HETATM   13  C   UNL     1      25.656  47.299  49.885  1.00  0.00     0.075 A 
HETATM   14  C   UNL     1      24.316  46.915  49.965  1.00  0.00     0.038 A 
HETATM   15  C   UNL     1      23.322  47.723  49.407  1.00  0.00     0.018 A 
BRANCH  13  16
HETATM   16  O   UNL     1      26.681  46.547  50.392  1.00  0.00    -0.346 OA
BRANCH  16  17
HETATM   17  C   UNL     1      26.315  45.434  51.224  1.00  0.00     0.121 C 
HETATM   18  C   UNL     1      27.253  44.245  51.007  1.00  0.00     0.040 C 
HETATM   19  C   UNL     1      26.426  45.919  52.668  1.00  0.00     0.040 C 
ENDBRANCH  16  17
ENDBRANCH  13  16
ENDBRANCH   7   9
ENDBRANCH   5   7
BRANCH   4  20
HETATM   20  O   UNL     1      21.349  50.832  50.845  1.00  0.00    -0.355 OA
HETATM   21  H   UNL     1      22.310  50.723  50.692  1.00  0.00     0.218 HD
ENDBRANCH   4  20
BRANCH   6  22
HETATM   22  C   UNL     1      20.187  47.661  47.594  1.00  0.00    -0.028 A 
HETATM   23  C   UNL     1      20.345  47.133  46.296  1.00  0.00     0.049 A 
HETATM   24  C   UNL     1      20.326  45.754  46.080  1.00  0.00     0.102 A 
HETATM   25  C   UNL     1      20.163  44.905  47.178  1.00  0.00     0.099 A 
HETATM   26  C   UNL     1      20.032  45.398  48.468  1.00  0.00     0.040 A 
HETATM   27  C   UNL     1      20.046  46.775  48.679  1.00  0.00     0.012 A 
BRANCH  24  28
HETATM   28  O   UNL     1      20.433  45.122  44.870  1.00  0.00    -0.349 OA
BRANCH  28  29
HETATM   29  C   UNL     1      21.548  45.473  44.050  1.00  0.00     0.171 C 
HETATM   30  C   UNL     1      22.780  44.793  44.620  1.00  0.00     0.034 C 
ENDBRANCH  28  29
ENDBRANCH  24  28
BRANCH  25  31
HETATM   31  O   UNL     1      20.128  43.549  47.002  1.00  0.00    -0.358 OA
HETATM   32  H   UNL     1      20.430  43.397  46.085  1.00  0.00     0.218 HD
ENDBRANCH  25  31
ENDBRANCH   6  22
BRANCH   1  33
HETATM   33  C   UNL     1      17.586  49.160  48.130  1.00  0.00     0.155 C 
BRANCH  33  34
HETATM   34  C   UNL     1      17.035  49.966  46.943  1.00  0.00     0.254 C 
BRANCH  34  35
HETATM   35  N   UNL     1      17.049  51.476  47.166  1.00  0.00    -0.070 N 
HETATM   36  H   UNL     1      17.743  51.636  47.909  1.00  0.00     0.279 HD
BRANCH  35  37
HETATM   37  C   UNL     1      15.741  52.032  47.715  1.00  0.00     0.230 C 
HETATM   38  C   UNL     1      15.898  52.508  49.148  1.00  0.00     0.034 C 
ENDBRANCH  35  37
BRANCH  35  39
HETATM   39  C   UNL     1      17.523  52.301  45.979  1.00  0.00     0.230 C 
HETATM   40  C   UNL     1      16.363  52.720  45.095  1.00  0.00     0.034 C 
ENDBRANCH  35  39
ENDBRANCH  34  35
ENDBRANCH  33  34
ENDBRANCH   1  33
TORSDOF 14
ENDMDL
MODEL 3
REMARK VINA RESULT:      -7.6      8.287     11.909
REMARK  14 active torsions:
REMARK  status: ('A' for Active; 'I' for Inactive)
REMARK    1  A    between atoms: C_2  and  N_3 
REMARK    2  A    between atoms: N_3  and  C_5 
REMARK    3  A    between atoms: N_3  and  C_37 
REMARK    4  A    between atoms: C_5  and  C_6 
REMARK    5  A    between atoms: C_6  and  N_7 
REMARK    6  A    between atoms: C_10  and  O_11 
REMARK    7  A    between atoms: C_12  and  C_13 
REMARK    8  A    between atoms: C_13  and  C_14 
REMARK    9  A    between atoms: C_18  and  O_19 
REMARK   10  A    between atoms: O_19  and  C_20 
REMARK   11  A    between atoms: C_26  and  C_27 
REMARK   12  A    between atoms: C_29  and  O_30 
REMARK   13  A    between atoms: O_30  and  C_31 
REMARK   14  A    between atoms: C_33  and  O_34 
ROOT
HETATM    1  N   UNL     1      18.596  47.868  47.232  1.00  0.00    -0.332 N 
HETATM    2  C   UNL     1      17.310  47.474  47.513  1.00  0.00     0.278 C 
HETATM    3  O   UNL     1      16.917  46.340  47.720  1.00  0.00    -0.265 OA
HETATM    4  C   UNL     1      16.457  48.682  47.482  1.00  0.00     0.146 C 
HETATM    5  C   UNL     1      17.255  49.725  47.215  1.00  0.00     0.059 C 
HETATM    6  C   UNL     1      18.702  49.315  47.138  1.00  0.00     0.161 C 
ENDROOT
BRANCH   5   7
HETATM    7  C   UNL     1      16.965  51.155  46.969  1.00  0.00     0.193 C 
HETATM    8  O   UNL     1      17.409  51.690  45.954  1.00  0.00    -0.287 OA
BRANCH   7   9
HETATM    9  C   UNL     1      16.170  51.975  47.901  1.00  0.00     0.015 A 
HETATM   10  C   UNL     1      15.197  52.872  47.455  1.00  0.00     0.025 A 
HETATM   11  C   UNL     1      14.521  53.695  48.370  1.00  0.00    -0.028 A 
HETATM   12  C   UNL     1      13.463  54.648  47.885  1.00  0.00     0.051 C 
HETATM   13  C   UNL     1      14.887  53.661  49.727  1.00  0.00     0.075 A 
HETATM   14  C   UNL     1      15.854  52.758  50.171  1.00  0.00     0.038 A 
HETATM   15  C   UNL     1      16.504  51.925  49.257  1.00  0.00     0.018 A 
BRANCH  13  16
HETATM   16  O   UNL     1      14.226  54.519  50.565  1.00  0.00    -0.346 OA
BRANCH  16  17
HETATM   17  C   UNL     1      15.039  55.377  51.383  1.00  0.00     0.121 C 
HETATM   18  C   UNL     1      15.256  56.737  50.718  1.00  0.00     0.040 C 
HETATM   19  C   UNL     1      14.283  55.563  52.697  1.00  0.00     0.040 C 
ENDBRANCH  16  17
ENDBRANCH  13  16
ENDBRANCH   7   9
ENDBRANCH   5   7
BRANCH   4  20
HETATM   20  O   UNL     1      15.110  48.636  47.659  1.00  0.00    -0.355 OA
HETATM   21  H   UNL     1      14.866  47.691  47.748  1.00  0.00     0.218 HD
ENDBRANCH   4  20
BRANCH   6  22
HETATM   22  C   UNL     1      19.592  49.878  48.236  1.00  0.00    -0.028 A 
HETATM   23  C   UNL     1      20.906  50.283  47.918  1.00  0.00     0.049 A 
HETATM   24  C   UNL     1      21.774  50.732  48.915  1.00  0.00     0.102 A 
HETATM   25  C   UNL     1      21.313  50.786  50.233  1.00  0.00     0.099 A 
HETATM   26  C   UNL     1      20.017  50.418  50.568  1.00  0.00     0.040 A 
HETATM   27  C   UNL     1      19.156  49.965  49.572  1.00  0.00     0.012 A 
BRANCH  24  28
HETATM   28  O   UNL     1      23.076  51.118  48.741  1.00  0.00    -0.349 OA
BRANCH  28  29
HETATM   29  C   UNL     1      23.762  50.598  47.601  1.00  0.00     0.171 C 
HETATM   30  C   UNL     1      25.157  50.192  48.041  1.00  0.00     0.034 C 
ENDBRANCH  28  29
ENDBRANCH  24  28
BRANCH  25  31
HETATM   31  O   UNL     1      22.139  51.210  51.237  1.00  0.00    -0.358 OA
HETATM   32  H   UNL     1      22.813  51.768  50.801  1.00  0.00     0.218 HD
ENDBRANCH  25  31
ENDBRANCH   6  22
BRANCH   1  33
HETATM   33  C   UNL     1      19.740  46.974  47.314  1.00  0.00     0.155 C 
BRANCH  33  34
HETATM   34  C   UNL     1      19.956  46.422  48.732  1.00  0.00     0.254 C 
BRANCH  34  35
HETATM   35  N   UNL     1      21.384  45.949  48.996  1.00  0.00    -0.070 N 
HETATM   36  H   UNL     1      21.524  46.054  50.010  1.00  0.00     0.279 HD
BRANCH  35  37
HETATM   37  C   UNL     1      22.453  46.822  48.352  1.00  0.00     0.230 C 
HETATM   38  C   UNL     1      23.373  47.433  49.395  1.00  0.00     0.034 C 
ENDBRANCH  35  37
BRANCH  35  39
HETATM   39  C   UNL     1      21.644  44.480  48.698  1.00  0.00     0.230 C 
HETATM   40  C   UNL     1      22.600  43.869  49.706  1.00  0.00     0.034 C 
ENDBRANCH  35  39
ENDBRANCH  34  35
ENDBRANCH  33  34
ENDBRANCH   1  33
TORSDOF 14
ENDMDL
MODEL 4
REMARK VINA RESULT:      -7.6      5.756     10.917
REMARK  14 active torsions:
REMARK  status: ('A' for Active; 'I' for Inactive)
REMARK    1  A    between atoms: C_2  and  N_3 
REMARK    2  A    between atoms: N_3  and  C_5 
REMARK    3  A    between atoms: N_3  and  C_37 
REMARK    4  A    between atoms: C_5  and  C_6 
REMARK    5  A    between atoms: C_6  and  N_7 
REMARK    6  A    between atoms: C_10  and  O_11 
REMARK    7  A    between atoms: C_12  and  C_13 
REMARK    8  A    between atoms: C_13  and  C_14 
REMARK    9  A    between atoms: C_18  and  O_19 
REMARK   10  A    between atoms: O_19  and  C_20 
REMARK   11  A    between atoms: C_26  and  C_27 
REMARK   12  A    between atoms: C_29  and  O_30 
REMARK   13  A    between atoms: O_30  and  C_31 
REMARK   14  A    between atoms: C_33  and  O_34 
ROOT
HETATM    1  N   UNL     1      18.974  49.721  48.479  1.00  0.00    -0.332 N 
HETATM    2  C   UNL     1      19.307  50.193  49.726  1.00  0.00     0.278 C 
HETATM    3  O   UNL     1      18.542  50.539  50.608  1.00  0.00    -0.265 OA
HETATM    4  C   UNL     1      20.783  50.249  49.803  1.00  0.00     0.146 C 
HETATM    5  C   UNL     1      21.259  49.794  48.636  1.00  0.00     0.059 C 
HETATM    6  C   UNL     1      20.154  49.318  47.729  1.00  0.00     0.161 C 
ENDROOT
BRANCH   5   7
HETATM    7  C   UNL     1      22.633  49.705  48.096  1.00  0.00     0.193 C 
HETATM    8  O   UNL     1      22.893  50.251  47.024  1.00  0.00    -0.287 OA
BRANCH   7   9
HETATM    9  C   UNL     1      23.712  48.975  48.787  1.00  0.00     0.015 A 
HETATM   10  C   UNL     1      25.053  49.348  48.671  1.00  0.00     0.025 A 
HETATM   11  C   UNL     1      26.057  48.576  49.277  1.00  0.00    -0.028 A 
HETATM   12  C   UNL     1      27.498  48.992  49.162  1.00  0.00     0.051 C 
HETATM   13  C   UNL     1      25.705  47.385  49.937  1.00  0.00     0.075 A 
HETATM   14  C   UNL     1      24.364  47.019  50.057  1.00  0.00     0.038 A 
HETATM   15  C   UNL     1      23.369  47.806  49.473  1.00  0.00     0.018 A 
BRANCH  13  16
HETATM   16  O   UNL     1      26.731  46.649  50.467  1.00  0.00    -0.346 OA
BRANCH  16  17
HETATM   17  C   UNL     1      26.384  45.381  51.046  1.00  0.00     0.121 C 
HETATM   18  C   UNL     1      27.272  44.260  50.503  1.00  0.00     0.040 C 
HETATM   19  C   UNL     1      26.598  45.520  52.553  1.00  0.00     0.040 C 
ENDBRANCH  16  17
ENDBRANCH  13  16
ENDBRANCH   7   9
ENDBRANCH   5   7
BRANCH   4  20
HETATM   20  O   UNL     1      21.445  50.731  50.889  1.00  0.00    -0.355 OA
HETATM   21  H   UNL     1      20.842  50.638  51.655  1.00  0.00     0.218 HD
ENDBRANCH   4  20
BRANCH   6  22
HETATM   22  C   UNL     1      20.148  47.823  47.449  1.00  0.00    -0.028 A 
HETATM   23  C   UNL     1      20.551  46.930  48.464  1.00  0.00     0.049 A 
HETATM   24  C   UNL     1      20.629  45.558  48.217  1.00  0.00     0.102 A 
HETATM   25  C   UNL     1      20.286  45.083  46.948  1.00  0.00     0.099 A 
HETATM   26  C   UNL     1      19.861  45.938  45.941  1.00  0.00     0.040 A 
HETATM   27  C   UNL     1      19.790  47.306  46.189  1.00  0.00     0.012 A 
BRANCH  24  28
HETATM   28  O   UNL     1      21.038  44.598  49.103  1.00  0.00    -0.349 OA
BRANCH  28  29
HETATM   29  C   UNL     1      22.399  44.172  49.018  1.00  0.00     0.171 C 
HETATM   30  C   UNL     1      22.738  43.432  50.300  1.00  0.00     0.034 C 
ENDBRANCH  28  29
ENDBRANCH  24  28
BRANCH  25  31
HETATM   31  O   UNL     1      20.362  43.747  46.667  1.00  0.00    -0.358 OA
HETATM   32  H   UNL     1      19.633  43.334  47.171  1.00  0.00     0.218 HD
ENDBRANCH  25  31
ENDBRANCH   6  22
BRANCH   1  33
HETATM   33  C   UNL     1      17.613  49.396  48.085  1.00  0.00     0.155 C 
BRANCH  33  34
HETATM   34  C   UNL     1      17.122  50.249  46.905  1.00  0.00     0.254 C 
BRANCH  34  35
HETATM   35  N   UNL     1      16.597  51.623  47.317  1.00  0.00    -0.070 N 
HETATM   36  H   UNL     1      17.428  52.154  47.615  1.00  0.00     0.279 HD
BRANCH  35  37
HETATM   37  C   UNL     1      15.683  51.595  48.536  1.00  0.00     0.230 C 
HETATM   38  C   UNL     1      16.116  52.610  49.578  1.00  0.00     0.034 C 
ENDBRANCH  35  37
BRANCH  35  39
HETATM   39  C   UNL     1      15.970  52.438  46.197  1.00  0.00     0.230 C 
HETATM   40  C   UNL     1      16.963  52.706  45.081  1.00  0.00     0.034 C 
ENDBRANCH  35  39
ENDBRANCH  34  35
ENDBRANCH  33  34
ENDBRANCH   1  33
TORSDOF 14
ENDMDL
MODEL 5
REMARK VINA RESULT:      -7.4      3.391      8.762
REMARK  14 active torsions:
REMARK  status: ('A' for Active; 'I' for Inactive)
REMARK    1  A    between atoms: C_2  and  N_3 
REMARK    2  A    between atoms: N_3  and  C_5 
REMARK    3  A    between atoms: N_3  and  C_37 
REMARK    4  A    between atoms: C_5  and  C_6 
REMARK    5  A    between atoms: C_6  and  N_7 
REMARK    6  A    between atoms: C_10  and  O_11 
REMARK    7  A    between atoms: C_12  and  C_13 
REMARK    8  A    between atoms: C_13  and  C_14 
REMARK    9  A    between atoms: C_18  and  O_19 
REMARK   10  A    between atoms: O_19  and  C_20 
REMARK   11  A    between atoms: C_26  and  C_27 
REMARK   12  A    between atoms: C_29  and  O_30 
REMARK   13  A    between atoms: O_30  and  C_31 
REMARK   14  A    between atoms: C_33  and  O_34 
ROOT
HETATM    1  N   UNL     1      21.895  45.225  46.518  1.00  0.00    -0.332 N 
HETATM    2  C   UNL     1      22.985  44.462  46.175  1.00  0.00     0.278 C 
HETATM    3  O   UNL     1      23.407  44.247  45.052  1.00  0.00    -0.265 OA
HETATM    4  C   UNL     1      23.549  43.902  47.422  1.00  0.00     0.146 C 
HETATM    5  C   UNL     1      22.805  44.364  48.436  1.00  0.00     0.059 C 
HETATM    6  C   UNL     1      21.752  45.330  47.962  1.00  0.00     0.161 C 
ENDROOT
BRANCH   5   7
HETATM    7  C   UNL     1      22.825  44.077  49.887  1.00  0.00     0.193 C 
HETATM    8  O   UNL     1      21.790  43.705  50.440  1.00  0.00    -0.287 OA
BRANCH   7   9
HETATM    9  C   UNL     1      24.039  44.231  50.710  1.00  0.00     0.015 A 
HETATM   10  C   UNL     1      24.489  45.480  51.142  1.00  0.00     0.025 A 
HETATM   11  C   UNL     1      25.696  45.591  51.851  1.00  0.00    -0.028 A 
HETATM   12  C   UNL     1      26.168  46.937  52.327  1.00  0.00     0.051 C 
HETATM   13  C   UNL     1      26.481  44.442  52.057  1.00  0.00     0.075 A 
HETATM   14  C   UNL     1      26.024  43.194  51.632  1.00  0.00     0.038 A 
HETATM   15  C   UNL     1      24.811  43.089  50.948  1.00  0.00     0.018 A 
BRANCH  13  16
HETATM   16  O   UNL     1      27.669  44.619  52.715  1.00  0.00    -0.346 OA
BRANCH  16  17
HETATM   17  C   UNL     1      27.818  43.942  53.973  1.00  0.00     0.121 C 
HETATM   18  C   UNL     1      29.104  43.115  54.011  1.00  0.00     0.040 C 
HETATM   19  C   UNL     1      27.875  45.029  55.045  1.00  0.00     0.040 C 
ENDBRANCH  16  17
ENDBRANCH  13  16
ENDBRANCH   7   9
ENDBRANCH   5   7
BRANCH   4  20
HETATM   20  O   UNL     1      24.606  43.047  47.432  1.00  0.00    -0.355 OA
HETATM   21  H   UNL     1      24.688  42.704  48.346  1.00  0.00     0.218 HD
ENDBRANCH   4  20
BRANCH   6  22
HETATM   22  C   UNL     1      21.934  46.765  48.432  1.00  0.00    -0.028 A 
HETATM   23  C   UNL     1      23.238  47.265  48.633  1.00  0.00     0.049 A 
HETATM   24  C   UNL     1      23.439  48.551  49.135  1.00  0.00     0.102 A 
HETATM   25  C   UNL     1      22.324  49.342  49.424  1.00  0.00     0.099 A 
HETATM   26  C   UNL     1      21.031  48.885  49.211  1.00  0.00     0.040 A 
HETATM   27  C   UNL     1      20.834  47.598  48.714  1.00  0.00     0.012 A 
BRANCH  24  28
HETATM   28  O   UNL     1      24.648  49.135  49.406  1.00  0.00    -0.349 OA
BRANCH  28  29
HETATM   29  C   UNL     1      25.363  49.690  48.301  1.00  0.00     0.171 C 
HETATM   30  C   UNL     1      26.847  49.587  48.606  1.00  0.00     0.034 C 
ENDBRANCH  28  29
ENDBRANCH  24  28
BRANCH  25  31
HETATM   31  O   UNL     1      22.483  50.603  49.929  1.00  0.00    -0.358 OA
HETATM   32  H   UNL     1      21.626  50.829  50.340  1.00  0.00     0.218 HD
ENDBRANCH  25  31
ENDBRANCH   6  22
BRANCH   1  33
HETATM   33  C   UNL     1      21.166  46.050  45.569  1.00  0.00     0.155 C 
BRANCH  33  34
HETATM   34  C   UNL     1      20.084  45.263  44.812  1.00  0.00     0.254 C 
BRANCH  34  35
HETATM   35  N   UNL     1      19.383  44.208  45.665  1.00  0.00    -0.070 N 
HETATM   36  H   UNL     1      19.943  44.136  46.526  1.00  0.00     0.279 HD
BRANCH  35  37
HETATM   37  C   UNL     1      19.401  42.811  45.058  1.00  0.00     0.230 C 
HETATM   38  C   UNL     1      20.433  41.926  45.733  1.00  0.00     0.034 C 
ENDBRANCH  35  37
BRANCH  35  39
HETATM   39  C   UNL     1      17.979  44.574  46.121  1.00  0.00     0.230 C 
HETATM   40  C   UNL     1      18.007  45.427  47.376  1.00  0.00     0.034 C 
ENDBRANCH  35  39
ENDBRANCH  34  35
ENDBRANCH  33  34
ENDBRANCH   1  33
TORSDOF 14
ENDMDL
MODEL 6
REMARK VINA RESULT:      -7.4      5.932     10.894
REMARK  14 active torsions:
REMARK  status: ('A' for Active; 'I' for Inactive)
REMARK    1  A    between atoms: C_2  and  N_3 
REMARK    2  A    between atoms: N_3  and  C_5 
REMARK    3  A    between atoms: N_3  and  C_37 
REMARK    4  A    between atoms: C_5  and  C_6 
REMARK    5  A    between atoms: C_6  and  N_7 
REMARK    6  A    between atoms: C_10  and  O_11 
REMARK    7  A    between atoms: C_12  and  C_13 
REMARK    8  A    between atoms: C_13  and  C_14 
REMARK    9  A    between atoms: C_18  and  O_19 
REMARK   10  A    between atoms: O_19  and  C_20 
REMARK   11  A    between atoms: C_26  and  C_27 
REMARK   12  A    between atoms: C_29  and  O_30 
REMARK   13  A    between atoms: O_30  and  C_31 
REMARK   14  A    between atoms: C_33  and  O_34 
ROOT
HETATM    1  N   UNL     1      19.548  50.345  48.345  1.00  0.00    -0.332 N 
HETATM    2  C   UNL     1      19.964  50.887  49.537  1.00  0.00     0.278 C 
HETATM    3  O   UNL     1      19.303  51.558  50.309  1.00  0.00    -0.265 OA
HETATM    4  C   UNL     1      21.392  50.543  49.710  1.00  0.00     0.146 C 
HETATM    5  C   UNL     1      21.753  49.805  48.651  1.00  0.00     0.059 C 
HETATM    6  C   UNL     1      20.586  49.524  47.741  1.00  0.00     0.161 C 
ENDROOT
BRANCH   5   7
HETATM    7  C   UNL     1      23.061  49.260  48.226  1.00  0.00     0.193 C 
HETATM    8  O   UNL     1      23.643  49.774  47.271  1.00  0.00    -0.287 OA
BRANCH   7   9
HETATM    9  C   UNL     1      23.697  48.109  48.894  1.00  0.00     0.015 A 
HETATM   10  C   UNL     1      23.131  46.832  48.870  1.00  0.00     0.025 A 
HETATM   11  C   UNL     1      23.724  45.783  49.590  1.00  0.00    -0.028 A 
HETATM   12  C   UNL     1      23.119  44.406  49.548  1.00  0.00     0.051 C 
HETATM   13  C   UNL     1      24.848  46.047  50.393  1.00  0.00     0.075 A 
HETATM   14  C   UNL     1      25.415  47.323  50.409  1.00  0.00     0.038 A 
HETATM   15  C   UNL     1      24.833  48.356  49.670  1.00  0.00     0.018 A 
BRANCH  13  16
HETATM   16  O   UNL     1      25.354  44.995  51.109  1.00  0.00    -0.346 OA
BRANCH  16  17
HETATM   17  C   UNL     1      26.760  44.735  50.965  1.00  0.00     0.121 C 
HETATM   18  C   UNL     1      27.378  44.278  52.288  1.00  0.00     0.040 C 
HETATM   19  C   UNL     1      26.889  43.622  49.927  1.00  0.00     0.040 C 
ENDBRANCH  16  17
ENDBRANCH  13  16
ENDBRANCH   7   9
ENDBRANCH   5   7
BRANCH   4  20
HETATM   20  O   UNL     1      22.131  50.979  50.764  1.00  0.00    -0.355 OA
HETATM   21  H   UNL     1      21.884  50.427  51.535  1.00  0.00     0.218 HD
ENDBRANCH   4  20
BRANCH   6  22
HETATM   22  C   UNL     1      20.163  48.064  47.666  1.00  0.00    -0.028 A 
HETATM   23  C   UNL     1      20.099  47.430  46.407  1.00  0.00     0.049 A 
HETATM   24  C   UNL     1      19.643  46.116  46.294  1.00  0.00     0.102 A 
HETATM   25  C   UNL     1      19.263  45.434  47.453  1.00  0.00     0.099 A 
HETATM   26  C   UNL     1      19.341  46.026  48.706  1.00  0.00     0.040 A 
HETATM   27  C   UNL     1      19.792  47.340  48.815  1.00  0.00     0.012 A 
BRANCH  24  28
HETATM   28  O   UNL     1      19.502  45.405  45.132  1.00  0.00    -0.349 OA
BRANCH  28  29
HETATM   29  C   UNL     1      18.430  45.781  44.266  1.00  0.00     0.171 C 
HETATM   30  C   UNL     1      17.555  44.559  44.050  1.00  0.00     0.034 C 
ENDBRANCH  28  29
ENDBRANCH  24  28
BRANCH  25  31
HETATM   31  O   UNL     1      18.800  44.149  47.378  1.00  0.00    -0.358 OA
HETATM   32  H   UNL     1      17.932  44.159  47.828  1.00  0.00     0.218 HD
ENDBRANCH  25  31
ENDBRANCH   6  22
BRANCH   1  33
HETATM   33  C   UNL     1      18.162  50.354  47.904  1.00  0.00     0.155 C 
BRANCH  33  34
HETATM   34  C   UNL     1      17.814  51.606  47.084  1.00  0.00     0.254 C 
BRANCH  34  35
HETATM   35  N   UNL     1      16.598  52.365  47.610  1.00  0.00    -0.070 N 
HETATM   36  H   UNL     1      16.944  53.305  47.848  1.00  0.00     0.279 HD
BRANCH  35  37
HETATM   37  C   UNL     1      16.035  51.806  48.910  1.00  0.00     0.230 C 
HETATM   38  C   UNL     1      16.004  52.861  50.001  1.00  0.00     0.034 C 
ENDBRANCH  35  37
BRANCH  35  39
HETATM   39  C   UNL     1      15.485  52.585  46.597  1.00  0.00     0.230 C 
HETATM   40  C   UNL     1      15.092  51.289  45.912  1.00  0.00     0.034 C 
ENDBRANCH  35  39
ENDBRANCH  34  35
ENDBRANCH  33  34
ENDBRANCH   1  33
TORSDOF 14
ENDMDL
MODEL 7
REMARK VINA RESULT:      -7.4      4.315      7.243
REMARK  14 active torsions:
REMARK  status: ('A' for Active; 'I' for Inactive)
REMARK    1  A    between atoms: C_2  and  N_3 
REMARK    2  A    between atoms: N_3  and  C_5 
REMARK    3  A    between atoms: N_3  and  C_37 
REMARK    4  A    between atoms: C_5  and  C_6 
REMARK    5  A    between atoms: C_6  and  N_7 
REMARK    6  A    between atoms: C_10  and  O_11 
REMARK    7  A    between atoms: C_12  and  C_13 
REMARK    8  A    between atoms: C_13  and  C_14 
REMARK    9  A    between atoms: C_18  and  O_19 
REMARK   10  A    between atoms: O_19  and  C_20 
REMARK   11  A    between atoms: C_26  and  C_27 
REMARK   12  A    between atoms: C_29  and  O_30 
REMARK   13  A    between atoms: O_30  and  C_31 
REMARK   14  A    between atoms: C_33  and  O_34 
ROOT
HETATM    1  N   UNL     1      25.531  47.412  50.700  1.00  0.00    -0.332 N 
HETATM    2  C   UNL     1      26.196  48.274  49.862  1.00  0.00     0.278 C 
HETATM    3  O   UNL     1      27.345  48.665  49.972  1.00  0.00    -0.265 OA
HETATM    4  C   UNL     1      25.250  48.687  48.803  1.00  0.00     0.146 C 
HETATM    5  C   UNL     1      24.095  48.048  49.033  1.00  0.00     0.059 C 
HETATM    6  C   UNL     1      24.202  47.100  50.198  1.00  0.00     0.161 C 
ENDROOT
BRANCH   5   7
HETATM    7  C   UNL     1      22.771  48.132  48.376  1.00  0.00     0.193 C 
HETATM    8  O   UNL     1      22.611  47.597  47.280  1.00  0.00    -0.287 OA
BRANCH   7   9
HETATM    9  C   UNL     1      21.630  48.845  48.979  1.00  0.00     0.015 A 
HETATM   10  C   UNL     1      20.337  48.319  48.968  1.00  0.00     0.025 A 
HETATM   11  C   UNL     1      19.264  49.068  49.478  1.00  0.00    -0.028 A 
HETATM   12  C   UNL     1      17.876  48.489  49.477  1.00  0.00     0.051 C 
HETATM   13  C   UNL     1      19.493  50.379  49.930  1.00  0.00     0.075 A 
HETATM   14  C   UNL     1      20.788  50.899  49.947  1.00  0.00     0.038 A 
HETATM   15  C   UNL     1      21.854  50.138  49.461  1.00  0.00     0.018 A 
BRANCH  13  16
HETATM   16  O   UNL     1      18.402  51.078  50.372  1.00  0.00    -0.346 OA
BRANCH  16  17
HETATM   17  C   UNL     1      18.134  52.333  49.727  1.00  0.00     0.121 C 
HETATM   18  C   UNL     1      18.350  52.239  48.216  1.00  0.00     0.040 C 
HETATM   19  C   UNL     1      16.671  52.664  50.016  1.00  0.00     0.040 C 
ENDBRANCH  16  17
ENDBRANCH  13  16
ENDBRANCH   7   9
ENDBRANCH   5   7
BRANCH   4  20
HETATM   20  O   UNL     1      25.573  49.589  47.839  1.00  0.00    -0.355 OA
HETATM   21  H   UNL     1      26.501  49.861  48.002  1.00  0.00     0.218 HD
ENDBRANCH   4  20
BRANCH   6  22
HETATM   22  C   UNL     1      24.077  45.626  49.844  1.00  0.00    -0.028 A 
HETATM   23  C   UNL     1      25.247  44.868  49.625  1.00  0.00     0.049 A 
HETATM   24  C   UNL     1      25.166  43.533  49.225  1.00  0.00     0.102 A 
HETATM   25  C   UNL     1      23.905  42.956  49.059  1.00  0.00     0.099 A 
HETATM   26  C   UNL     1      22.739  43.671  49.293  1.00  0.00     0.040 A 
HETATM   27  C   UNL     1      22.823  45.005  49.686  1.00  0.00     0.012 A 
BRANCH  24  28
HETATM   28  O   UNL     1      26.222  42.706  48.948  1.00  0.00    -0.349 OA
BRANCH  28  29
HETATM   29  C   UNL     1      27.155  42.467  50.003  1.00  0.00     0.171 C 
HETATM   30  C   UNL     1      26.548  41.435  50.938  1.00  0.00     0.034 C 
ENDBRANCH  28  29
ENDBRANCH  24  28
BRANCH  25  31
HETATM   31  O   UNL     1      23.789  41.654  48.656  1.00  0.00    -0.358 OA
HETATM   32  H   UNL     1      23.818  41.680  47.679  1.00  0.00     0.218 HD
ENDBRANCH  25  31
ENDBRANCH   6  22
BRANCH   1  33
HETATM   33  C   UNL     1      26.181  46.687  51.780  1.00  0.00     0.155 C 
BRANCH  33  34
HETATM   34  C   UNL     1      25.548  46.978  53.150  1.00  0.00     0.254 C 
BRANCH  34  35
HETATM   35  N   UNL     1      26.038  46.053  54.261  1.00  0.00    -0.070 N 
HETATM   36  H   UNL     1      25.698  46.475  55.137  1.00  0.00     0.279 HD
BRANCH  35  37
HETATM   37  C   UNL     1      27.554  46.006  54.403  1.00  0.00     0.230 C 
HETATM   38  C   UNL     1      28.052  47.044  55.393  1.00  0.00     0.034 C 
ENDBRANCH  35  37
BRANCH  35  39
HETATM   39  C   UNL     1      25.460  44.647  54.234  1.00  0.00     0.230 C 
HETATM   40  C   UNL     1      26.508  43.608  54.589  1.00  0.00     0.034 C 
ENDBRANCH  35  39
ENDBRANCH  34  35
ENDBRANCH  33  34
ENDBRANCH   1  33
TORSDOF 14
ENDMDL
MODEL 8
REMARK VINA RESULT:      -7.3      3.945      8.815
REMARK  14 active torsions:
REMARK  status: ('A' for Active; 'I' for Inactive)
REMARK    1  A    between atoms: C_2  and  N_3 
REMARK    2  A    between atoms: N_3  and  C_5 
REMARK    3  A    between atoms: N_3  and  C_37 
REMARK    4  A    between atoms: C_5  and  C_6 
REMARK    5  A    between atoms: C_6  and  N_7 
REMARK    6  A    between atoms: C_10  and  O_11 
REMARK    7  A    between atoms: C_12  and  C_13 
REMARK    8  A    between atoms: C_13  and  C_14 
REMARK    9  A    between atoms: C_18  and  O_19 
REMARK   10  A    between atoms: O_19  and  C_20 
REMARK   11  A    between atoms: C_26  and  C_27 
REMARK   12  A    between atoms: C_29  and  O_30 
REMARK   13  A    between atoms: O_30  and  C_31 
REMARK   14  A    between atoms: C_33  and  O_34 
ROOT
HETATM    1  N   UNL     1      21.384  45.549  46.468  1.00  0.00    -0.332 N 
HETATM    2  C   UNL     1      22.429  44.832  45.934  1.00  0.00     0.278 C 
HETATM    3  O   UNL     1      22.706  44.706  44.755  1.00  0.00    -0.265 OA
HETATM    4  C   UNL     1      23.152  44.195  47.056  1.00  0.00     0.146 C 
HETATM    5  C   UNL     1      22.539  44.570  48.187  1.00  0.00     0.059 C 
HETATM    6  C   UNL     1      21.425  45.548  47.922  1.00  0.00     0.161 C 
ENDROOT
BRANCH   5   7
HETATM    7  C   UNL     1      22.747  44.182  49.600  1.00  0.00     0.193 C 
HETATM    8  O   UNL     1      21.775  43.856  50.281  1.00  0.00    -0.287 OA
BRANCH   7   9
HETATM    9  C   UNL     1      24.077  44.179  50.235  1.00  0.00     0.015 A 
HETATM   10  C   UNL     1      24.878  43.036  50.273  1.00  0.00     0.025 A 
HETATM   11  C   UNL     1      26.102  43.052  50.961  1.00  0.00    -0.028 A 
HETATM   12  C   UNL     1      26.968  41.822  50.986  1.00  0.00     0.051 C 
HETATM   13  C   UNL     1      26.477  44.206  51.672  1.00  0.00     0.075 A 
HETATM   14  C   UNL     1      25.678  45.350  51.624  1.00  0.00     0.038 A 
HETATM   15  C   UNL     1      24.473  45.333  50.917  1.00  0.00     0.018 A 
BRANCH  13  16
HETATM   16  O   UNL     1      27.658  44.148  52.362  1.00  0.00    -0.346 OA
BRANCH  16  17
HETATM   17  C   UNL     1      27.567  43.960  53.783  1.00  0.00     0.121 C 
HETATM   18  C   UNL     1      28.473  42.821  54.253  1.00  0.00     0.040 C 
HETATM   19  C   UNL     1      28.020  45.272  54.422  1.00  0.00     0.040 C 
ENDBRANCH  16  17
ENDBRANCH  13  16
ENDBRANCH   7   9
ENDBRANCH   5   7
BRANCH   4  20
HETATM   20  O   UNL     1      24.210  43.362  46.870  1.00  0.00    -0.355 OA
HETATM   21  H   UNL     1      25.010  43.924  46.813  1.00  0.00     0.218 HD
ENDBRANCH   4  20
BRANCH   6  22
HETATM   22  C   UNL     1      21.652  46.950  48.468  1.00  0.00    -0.028 A 
HETATM   23  C   UNL     1      22.970  47.442  48.578  1.00  0.00     0.049 A 
HETATM   24  C   UNL     1      23.219  48.692  49.145  1.00  0.00     0.102 A 
HETATM   25  C   UNL     1      22.137  49.456  49.590  1.00  0.00     0.099 A 
HETATM   26  C   UNL     1      20.830  49.007  49.471  1.00  0.00     0.040 A 
HETATM   27  C   UNL     1      20.585  47.756  48.909  1.00  0.00     0.012 A 
BRANCH  24  28
HETATM   28  O   UNL     1      24.449  49.264  49.338  1.00  0.00    -0.349 OA
BRANCH  28  29
HETATM   29  C   UNL     1      25.072  49.866  48.202  1.00  0.00     0.171 C 
HETATM   30  C   UNL     1      26.576  49.778  48.393  1.00  0.00     0.034 C 
ENDBRANCH  28  29
ENDBRANCH  24  28
BRANCH  25  31
HETATM   31  O   UNL     1      22.345  50.681  50.162  1.00  0.00    -0.358 OA
HETATM   32  H   UNL     1      23.061  51.094  49.640  1.00  0.00     0.218 HD
ENDBRANCH  25  31
ENDBRANCH   6  22
BRANCH   1  33
HETATM   33  C   UNL     1      20.533  46.426  45.680  1.00  0.00     0.155 C 
BRANCH  33  34
HETATM   34  C   UNL     1      19.056  46.003  45.718  1.00  0.00     0.254 C 
BRANCH  34  35
HETATM   35  N   UNL     1      18.087  47.169  45.899  1.00  0.00    -0.070 N 
HETATM   36  H   UNL     1      17.438  47.111  45.102  1.00  0.00     0.279 HD
BRANCH  35  37
HETATM   37  C   UNL     1      18.742  48.540  45.782  1.00  0.00     0.230 C 
HETATM   38  C   UNL     1      18.110  49.540  46.733  1.00  0.00     0.034 C 
ENDBRANCH  35  37
BRANCH  35  39
HETATM   39  C   UNL     1      17.216  47.099  47.143  1.00  0.00     0.230 C 
HETATM   40  C   UNL     1      17.544  45.878  47.984  1.00  0.00     0.034 C 
ENDBRANCH  35  39
ENDBRANCH  34  35
ENDBRANCH  33  34
ENDBRANCH   1  33
TORSDOF 14
ENDMDL
MODEL 9
REMARK VINA RESULT:      -7.1      5.778      9.623
REMARK  14 active torsions:
REMARK  status: ('A' for Active; 'I' for Inactive)
REMARK    1  A    between atoms: C_2  and  N_3 
REMARK    2  A    between atoms: N_3  and  C_5 
REMARK    3  A    between atoms: N_3  and  C_37 
REMARK    4  A    between atoms: C_5  and  C_6 
REMARK    5  A    between atoms: C_6  and  N_7 
REMARK    6  A    between atoms: C_10  and  O_11 
REMARK    7  A    between atoms: C_12  and  C_13 
REMARK    8  A    between atoms: C_13  and  C_14 
REMARK    9  A    between atoms: C_18  and  O_19 
REMARK   10  A    between atoms: O_19  and  C_20 
REMARK   11  A    between atoms: C_26  and  C_27 
REMARK   12  A    between atoms: C_29  and  O_30 
REMARK   13  A    between atoms: O_30  and  C_31 
REMARK   14  A    between atoms: C_33  and  O_34 
ROOT
HETATM    1  N   UNL     1      22.307  48.937  48.868  1.00  0.00    -0.332 N 
HETATM    2  C   UNL     1      22.238  50.267  48.529  1.00  0.00     0.278 C 
HETATM    3  O   UNL     1      23.148  50.971  48.130  1.00  0.00    -0.265 OA
HETATM    4  C   UNL     1      20.850  50.718  48.772  1.00  0.00     0.146 C 
HETATM    5  C   UNL     1      20.160  49.657  49.211  1.00  0.00     0.059 C 
HETATM    6  C   UNL     1      20.997  48.405  49.211  1.00  0.00     0.161 C 
ENDROOT
BRANCH   5   7
HETATM    7  C   UNL     1      18.771  49.515  49.703  1.00  0.00     0.193 C 
HETATM    8  O   UNL     1      18.560  49.532  50.915  1.00  0.00    -0.287 OA
BRANCH   7   9
HETATM    9  C   UNL     1      17.622  49.342  48.795  1.00  0.00     0.015 A 
HETATM   10  C   UNL     1      17.009  50.424  48.160  1.00  0.00     0.025 A 
HETATM   11  C   UNL     1      15.865  50.226  47.370  1.00  0.00    -0.028 A 
HETATM   12  C   UNL     1      15.219  51.393  46.676  1.00  0.00     0.051 C 
HETATM   13  C   UNL     1      15.302  48.940  47.286  1.00  0.00     0.075 A 
HETATM   14  C   UNL     1      15.922  47.860  47.916  1.00  0.00     0.038 A 
HETATM   15  C   UNL     1      17.073  48.062  48.679  1.00  0.00     0.018 A 
BRANCH  13  16
HETATM   16  O   UNL     1      14.160  48.816  46.540  1.00  0.00    -0.346 OA
BRANCH  16  17
HETATM   17  C   UNL     1      14.229  47.951  45.394  1.00  0.00     0.121 C 
HETATM   18  C   UNL     1      12.911  47.204  45.182  1.00  0.00     0.040 C 
HETATM   19  C   UNL     1      14.510  48.849  44.191  1.00  0.00     0.040 C 
ENDBRANCH  16  17
ENDBRANCH  13  16
ENDBRANCH   7   9
ENDBRANCH   5   7
BRANCH   4  20
HETATM   20  O   UNL     1      20.455  52.006  48.595  1.00  0.00    -0.355 OA
HETATM   21  H   UNL     1      20.958  52.357  47.831  1.00  0.00     0.218 HD
ENDBRANCH   4  20
BRANCH   6  22
HETATM   22  C   UNL     1      20.558  47.335  48.222  1.00  0.00    -0.028 A 
HETATM   23  C   UNL     1      20.305  47.697  46.882  1.00  0.00     0.049 A 
HETATM   24  C   UNL     1      19.829  46.757  45.968  1.00  0.00     0.102 A 
HETATM   25  C   UNL     1      19.620  45.444  46.400  1.00  0.00     0.099 A 
HETATM   26  C   UNL     1      19.887  45.056  47.706  1.00  0.00     0.040 A 
HETATM   27  C   UNL     1      20.357  45.999  48.617  1.00  0.00     0.012 A 
BRANCH  24  28
HETATM   28  O   UNL     1      19.512  46.990  44.656  1.00  0.00    -0.349 OA
BRANCH  28  29
HETATM   29  C   UNL     1      18.185  47.439  44.377  1.00  0.00     0.171 C 
HETATM   30  C   UNL     1      18.111  48.917  44.718  1.00  0.00     0.034 C 
ENDBRANCH  28  29
ENDBRANCH  24  28
BRANCH  25  31
HETATM   31  O   UNL     1      19.143  44.499  45.534  1.00  0.00    -0.358 OA
HETATM   32  H   UNL     1      19.900  44.265  44.962  1.00  0.00     0.218 HD
ENDBRANCH  25  31
ENDBRANCH   6  22
BRANCH   1  33
HETATM   33  C   UNL     1      23.480  48.111  48.628  1.00  0.00     0.155 C 
BRANCH  33  34
HETATM   34  C   UNL     1      24.142  47.636  49.930  1.00  0.00     0.254 C 
BRANCH  34  35
HETATM   35  N   UNL     1      25.651  47.863  49.971  1.00  0.00    -0.070 N 
HETATM   36  H   UNL     1      25.849  48.212  50.920  1.00  0.00     0.279 HD
BRANCH  35  37
HETATM   37  C   UNL     1      26.136  48.961  49.032  1.00  0.00     0.230 C 
HETATM   38  C   UNL     1      27.650  49.076  49.047  1.00  0.00     0.034 C 
ENDBRANCH  35  37
BRANCH  35  39
HETATM   39  C   UNL     1      26.499  46.611  49.811  1.00  0.00     0.230 C 
HETATM   40  C   UNL     1      25.640  45.361  49.758  1.00  0.00     0.034 C 
ENDBRANCH  35  39
ENDBRANCH  34  35
ENDBRANCH  33  34
ENDBRANCH   1  33
TORSDOF 14
ENDMDL
MODEL 10
REMARK VINA RESULT:      -7.1      2.087      2.804
REMARK  14 active torsions:
REMARK  status: ('A' for Active; 'I' for Inactive)
REMARK    1  A    between atoms: C_2  and  N_3 
REMARK    2  A    between atoms: N_3  and  C_5 
REMARK    3  A    between atoms: N_3  and  C_37 
REMARK    4  A    between atoms: C_5  and  C_6 
REMARK    5  A    between atoms: C_6  and  N_7 
REMARK    6  A    between atoms: C_10  and  O_11 
REMARK    7  A    between atoms: C_12  and  C_13 
REMARK    8  A    between atoms: C_13  and  C_14 
REMARK    9  A    between atoms: C_18  and  O_19 
REMARK   10  A    between atoms: O_19  and  C_20 
REMARK   11  A    between atoms: C_26  and  C_27 
REMARK   12  A    between atoms: C_29  and  O_30 
REMARK   13  A    between atoms: O_30  and  C_31 
REMARK   14  A    between atoms: C_33  and  O_34 
ROOT
HETATM    1  N   UNL     1      28.134  42.246  51.493  1.00  0.00    -0.332 N 
HETATM    2  C   UNL     1      28.401  40.932  51.795  1.00  0.00     0.278 C 
HETATM    3  O   UNL     1      28.778  40.485  52.863  1.00  0.00    -0.265 OA
HETATM    4  C   UNL     1      28.186  40.139  50.565  1.00  0.00     0.146 C 
HETATM    5  C   UNL     1      27.785  40.989  49.610  1.00  0.00     0.059 C 
HETATM    6  C   UNL     1      27.614  42.387  50.142  1.00  0.00     0.161 C 
ENDROOT
BRANCH   5   7
HETATM    7  C   UNL     1      27.514  40.799  48.168  1.00  0.00     0.193 C 
HETATM    8  O   UNL     1      28.266  41.319  47.343  1.00  0.00    -0.287 OA
BRANCH   7   9
HETATM    9  C   UNL     1      26.366  40.018  47.672  1.00  0.00     0.015 A 
HETATM   10  C   UNL     1      26.447  38.642  47.447  1.00  0.00     0.025 A 
HETATM   11  C   UNL     1      25.357  37.951  46.894  1.00  0.00    -0.028 A 
HETATM   12  C   UNL     1      25.445  36.466  46.669  1.00  0.00     0.051 C 
HETATM   13  C   UNL     1      24.214  38.669  46.502  1.00  0.00     0.075 A 
HETATM   14  C   UNL     1      24.133  40.043  46.735  1.00  0.00     0.038 A 
HETATM   15  C   UNL     1      25.213  40.719  47.308  1.00  0.00     0.018 A 
BRANCH  13  16
HETATM   16  O   UNL     1      23.202  37.948  45.926  1.00  0.00    -0.346 OA
BRANCH  16  17
HETATM   17  C   UNL     1      21.922  38.000  46.576  1.00  0.00     0.121 C 
HETATM   18  C   UNL     1      20.804  38.313  45.580  1.00  0.00     0.040 C 
HETATM   19  C   UNL     1      21.692  36.619  47.188  1.00  0.00     0.040 C 
ENDBRANCH  16  17
ENDBRANCH  13  16
ENDBRANCH   7   9
ENDBRANCH   5   7
BRANCH   4  20
HETATM   20  O   UNL     1      28.423  38.801  50.502  1.00  0.00    -0.355 OA
HETATM   21  H   UNL     1      28.680  38.600  49.578  1.00  0.00     0.218 HD
ENDBRANCH   4  20
BRANCH   6  22
HETATM   22  C   UNL     1      26.183  42.904  50.152  1.00  0.00    -0.028 A 
HETATM   23  C   UNL     1      25.928  44.233  49.754  1.00  0.00     0.049 A 
HETATM   24  C   UNL     1      24.638  44.762  49.823  1.00  0.00     0.102 A 
HETATM   25  C   UNL     1      23.600  43.946  50.281  1.00  0.00     0.099 A 
HETATM   26  C   UNL     1      23.820  42.628  50.654  1.00  0.00     0.040 A 
HETATM   27  C   UNL     1      25.109  42.105  50.589  1.00  0.00     0.012 A 
BRANCH  24  28
HETATM   28  O   UNL     1      24.269  46.042  49.501  1.00  0.00    -0.349 OA
BRANCH  28  29
HETATM   29  C   UNL     1      24.639  47.074  50.416  1.00  0.00     0.171 C 
HETATM   30  C   UNL     1      25.721  47.913  49.759  1.00  0.00     0.034 C 
ENDBRANCH  28  29
ENDBRANCH  24  28
BRANCH  25  31
HETATM   31  O   UNL     1      22.326  44.436  50.373  1.00  0.00    -0.358 OA
HETATM   32  H   UNL     1      22.127  44.809  49.492  1.00  0.00     0.218 HD
ENDBRANCH  25  31
ENDBRANCH   6  22
BRANCH   1  33
HETATM   33  C   UNL     1      28.100  43.303  52.491  1.00  0.00     0.155 C 
BRANCH  33  34
HETATM   34  C   UNL     1      29.462  43.517  53.169  1.00  0.00     0.254 C 
BRANCH  34  35
HETATM   35  N   UNL     1      29.361  43.871  54.651  1.00  0.00    -0.070 N 
HETATM   36  H   UNL     1      29.034  43.012  55.116  1.00  0.00     0.279 HD
BRANCH  35  37
HETATM   37  C   UNL     1      28.304  44.922  54.965  1.00  0.00     0.230 C 
HETATM   38  C   UNL     1      28.936  46.237  55.384  1.00  0.00     0.034 C 
ENDBRANCH  35  37
BRANCH  35  39
HETATM   39  C   UNL     1      30.679  44.223  55.323  1.00  0.00     0.230 C 
HETATM   40  C   UNL     1      31.059  43.195  56.374  1.00  0.00     0.034 C 
ENDBRANCH  35  39
ENDBRANCH  34  35
ENDBRANCH  33  34
ENDBRANCH   1  33
TORSDOF 14
ENDMDL
