MODEL 1
REMARK VINA RESULT:      -9.8      0.000      0.000
REMARK  6 active torsions:
REMARK  status: ('A' for Active; 'I' for Inactive)
REMARK    1  A    between atoms: C_4  and  C_5 
REMARK    2  A    between atoms: N_6  and  C_7 
REMARK    3  A    between atoms: C_14  and  S_15 
REMARK    4  A    between atoms: S_15  and  C_16 
REMARK    5  A    between atoms: C_16  and  C_17 
REMARK       I    between atoms: C_17  and  N_18 
REMARK    6  A    between atoms: N_18  and  C_19 
ROOT
HETATM    1  C   UNL     1      25.021  45.042  52.032  1.00  0.00     0.169 A 
HETATM    2  N   UNL     1      24.728  45.523  50.752  1.00  0.00    -0.271 N 
HETATM    3  C   UNL     1      23.832  44.591  50.245  1.00  0.00     0.197 A 
HETATM    4  N   UNL     1      23.575  43.669  51.139  1.00  0.00    -0.122 NA
HETATM    5  N   UNL     1      24.298  43.958  52.258  1.00  0.00    -0.128 NA
ENDROOT
BRANCH   3   6
HETATM    6  S   UNL     1      22.963  44.726  48.745  1.00  0.00    -0.080 SA
BRANCH   6   7
HETATM    7  C   UNL     1      23.957  43.648  47.666  1.00  0.00     0.185 C 
BRANCH   7   8
HETATM    8  C   UNL     1      24.624  42.467  48.366  1.00  0.00     0.231 C 
HETATM    9  N   UNL     1      25.907  42.703  48.824  1.00  0.00    -0.326 N 
HETATM   10  H   UNL     1      26.285  43.618  48.608  1.00  0.00     0.169 HD
HETATM   11  O   UNL     1      23.975  41.440  48.565  1.00  0.00    -0.272 OA
BRANCH   9  12
HETATM   12  C   UNL     1      26.772  41.808  49.485  1.00  0.00     0.037 A 
HETATM   13  C   UNL     1      27.559  40.859  48.821  1.00  0.00     0.061 A 
HETATM   14  C   UNL     1      28.368  40.062  49.597  1.00  0.00     0.065 A 
HETATM   15  C   UNL     1      28.418  40.170  50.984  1.00  0.00     0.063 A 
HETATM   16  N   UNL     1      29.251  39.055  49.216  1.00  0.00    -0.306 N 
HETATM   17  N   UNL     1      29.329  39.233  51.457  1.00  0.00    -0.307 N 
HETATM   18  C   UNL     1      27.662  41.087  51.670  1.00  0.00     0.034 A 
HETATM   19  C   UNL     1      29.860  38.529  50.364  1.00  0.00     0.325 A 
HETATM   20  H   UNL     1      29.595  39.063  52.412  1.00  0.00     0.170 HD
HETATM   21  O   UNL     1      30.688  37.638  50.410  1.00  0.00    -0.247 OA
HETATM   22  C   UNL     1      26.832  41.914  50.901  1.00  0.00     0.032 A 
HETATM   23  H   UNL     1      29.445  38.742  48.279  1.00  0.00     0.170 HD
ENDBRANCH   9  12
ENDBRANCH   7   8
ENDBRANCH   6   7
ENDBRANCH   3   6
BRANCH   2  24
HETATM   24  C   UNL     1      25.204  46.719  50.142  1.00  0.00     0.043 A 
HETATM   25  C   UNL     1      24.313  47.744  49.794  1.00  0.00     0.032 A 
HETATM   26  C   UNL     1      24.788  48.911  49.187  1.00  0.00     0.026 A 
HETATM   27  C   UNL     1      26.150  49.056  48.928  1.00  0.00     0.034 A 
HETATM   28 CL   UNL     1      26.729  50.492  48.181  1.00  0.00    -0.084 Cl
HETATM   29  C   UNL     1      27.042  48.043  49.268  1.00  0.00     0.026 A 
HETATM   30  C   UNL     1      26.572  46.873  49.874  1.00  0.00     0.032 A 
ENDBRANCH   2  24
BRANCH   1  31
HETATM   31  C   UNL     1      26.012  45.557  52.979  1.00  0.00     0.012 A 
HETATM   32  C   UNL     1      25.822  46.825  53.547  1.00  0.00     0.015 A 
HETATM   33  C   UNL     1      26.737  47.338  54.469  1.00  0.00     0.001 A 
HETATM   34  C   UNL     1      27.848  46.583  54.840  1.00  0.00     0.000 A 
HETATM   35  C   UNL     1      28.038  45.313  54.300  1.00  0.00     0.001 A 
HETATM   36  C   UNL     1      27.121  44.798  53.380  1.00  0.00     0.015 A 
ENDBRANCH   1  31
TORSDOF 6
ENDMDL
MODEL 2
REMARK VINA RESULT:      -9.7      4.124      8.108
REMARK  6 active torsions:
REMARK  status: ('A' for Active; 'I' for Inactive)
REMARK    1  A    between atoms: C_4  and  C_5 
REMARK    2  A    between atoms: N_6  and  C_7 
REMARK    3  A    between atoms: C_14  and  S_15 
REMARK    4  A    between atoms: S_15  and  C_16 
REMARK    5  A    between atoms: C_16  and  C_17 
REMARK       I    between atoms: C_17  and  N_18 
REMARK    6  A    between atoms: N_18  and  C_19 
ROOT
HETATM    1  C   UNL     1      25.059  45.130  51.964  1.00  0.00     0.169 A 
HETATM    2  N   UNL     1      24.883  45.579  50.651  1.00  0.00    -0.271 N 
HETATM    3  C   UNL     1      24.081  44.605  50.072  1.00  0.00     0.197 A 
HETATM    4  N   UNL     1      23.767  43.688  50.953  1.00  0.00    -0.122 NA
HETATM    5  N   UNL     1      24.357  44.022  52.135  1.00  0.00    -0.128 NA
ENDROOT
BRANCH   3   6
HETATM    6  S   UNL     1      23.369  44.682  48.488  1.00  0.00    -0.080 SA
BRANCH   6   7
HETATM    7  C   UNL     1      21.609  44.438  48.882  1.00  0.00     0.185 C 
BRANCH   7   8
HETATM    8  C   UNL     1      20.738  45.684  48.756  1.00  0.00     0.231 C 
HETATM    9  N   UNL     1      21.411  46.887  48.871  1.00  0.00    -0.326 N 
HETATM   10  H   UNL     1      22.402  46.813  49.071  1.00  0.00     0.169 HD
HETATM   11  O   UNL     1      19.546  45.561  48.474  1.00  0.00    -0.272 OA
BRANCH   9  12
HETATM   12  C   UNL     1      20.878  48.190  48.818  1.00  0.00     0.037 A 
HETATM   13  C   UNL     1      19.791  48.614  49.593  1.00  0.00     0.061 A 
HETATM   14  C   UNL     1      19.388  49.921  49.446  1.00  0.00     0.065 A 
HETATM   15  C   UNL     1      20.015  50.804  48.570  1.00  0.00     0.063 A 
HETATM   16  N   UNL     1      18.360  50.610  50.082  1.00  0.00    -0.306 N 
HETATM   17  N   UNL     1      19.374  52.033  48.666  1.00  0.00    -0.307 N 
HETATM   18  C   UNL     1      21.081  50.425  47.795  1.00  0.00     0.034 A 
HETATM   19  C   UNL     1      18.339  51.929  49.609  1.00  0.00     0.325 A 
HETATM   20  H   UNL     1      19.590  52.879  48.167  1.00  0.00     0.170 HD
HETATM   21  O   UNL     1      17.575  52.815  49.946  1.00  0.00    -0.247 OA
HETATM   22  C   UNL     1      21.512  49.098  47.929  1.00  0.00     0.032 A 
HETATM   23  H   UNL     1      17.727  50.248  50.777  1.00  0.00     0.170 HD
ENDBRANCH   9  12
ENDBRANCH   7   8
ENDBRANCH   6   7
ENDBRANCH   3   6
BRANCH   2  24
HETATM   24  C   UNL     1      25.375  46.784  50.071  1.00  0.00     0.043 A 
HETATM   25  C   UNL     1      24.503  47.842  49.780  1.00  0.00     0.032 A 
HETATM   26  C   UNL     1      24.993  49.017  49.201  1.00  0.00     0.026 A 
HETATM   27  C   UNL     1      26.351  49.138  48.915  1.00  0.00     0.034 A 
HETATM   28 CL   UNL     1      26.949  50.584  48.203  1.00  0.00    -0.084 Cl
HETATM   29  C   UNL     1      27.225  48.092  49.199  1.00  0.00     0.026 A 
HETATM   30  C   UNL     1      26.740  46.914  49.775  1.00  0.00     0.032 A 
ENDBRANCH   2  24
BRANCH   1  31
HETATM   31  C   UNL     1      25.925  45.699  52.999  1.00  0.00     0.012 A 
HETATM   32  C   UNL     1      27.007  44.944  53.477  1.00  0.00     0.015 A 
HETATM   33  C   UNL     1      27.865  45.464  54.448  1.00  0.00     0.001 A 
HETATM   34  C   UNL     1      27.656  46.749  54.944  1.00  0.00     0.000 A 
HETATM   35  C   UNL     1      26.599  47.518  54.463  1.00  0.00     0.001 A 
HETATM   36  C   UNL     1      25.742  47.000  53.488  1.00  0.00     0.015 A 
ENDBRANCH   1  31
TORSDOF 6
ENDMDL
MODEL 3
REMARK VINA RESULT:      -9.3      4.711      9.011
REMARK  6 active torsions:
REMARK  status: ('A' for Active; 'I' for Inactive)
REMARK    1  A    between atoms: C_4  and  C_5 
REMARK    2  A    between atoms: N_6  and  C_7 
REMARK    3  A    between atoms: C_14  and  S_15 
REMARK    4  A    between atoms: S_15  and  C_16 
REMARK    5  A    between atoms: C_16  and  C_17 
REMARK       I    between atoms: C_17  and  N_18 
REMARK    6  A    between atoms: N_18  and  C_19 
ROOT
HETATM    1  C   UNL     1      27.013  44.616  52.615  1.00  0.00     0.169 A 
HETATM    2  N   UNL     1      26.188  44.025  51.653  1.00  0.00    -0.271 N 
HETATM    3  C   UNL     1      25.102  44.886  51.572  1.00  0.00     0.197 A 
HETATM    4  N   UNL     1      25.273  45.912  52.368  1.00  0.00    -0.122 NA
HETATM    5  N   UNL     1      26.469  45.757  53.002  1.00  0.00    -0.128 NA
ENDROOT
BRANCH   3   6
HETATM    6  S   UNL     1      23.807  44.785  50.417  1.00  0.00    -0.080 SA
BRANCH   6   7
HETATM    7  C   UNL     1      24.262  46.119  49.263  1.00  0.00     0.185 C 
BRANCH   7   8
HETATM    8  C   UNL     1      23.597  47.465  49.534  1.00  0.00     0.231 C 
HETATM    9  N   UNL     1      22.354  47.634  48.953  1.00  0.00    -0.326 N 
HETATM   10  H   UNL     1      22.036  46.866  48.375  1.00  0.00     0.169 HD
HETATM   11  O   UNL     1      24.137  48.259  50.304  1.00  0.00    -0.272 OA
BRANCH   9  12
HETATM   12  C   UNL     1      21.515  48.766  49.009  1.00  0.00     0.037 A 
HETATM   13  C   UNL     1      20.250  48.763  49.609  1.00  0.00     0.061 A 
HETATM   14  C   UNL     1      19.550  49.948  49.602  1.00  0.00     0.065 A 
HETATM   15  C   UNL     1      20.053  51.111  49.026  1.00  0.00     0.063 A 
HETATM   16  N   UNL     1      18.293  50.239  50.124  1.00  0.00    -0.306 N 
HETATM   17  N   UNL     1      19.109  52.117  49.192  1.00  0.00    -0.307 N 
HETATM   18  C   UNL     1      21.288  51.152  48.429  1.00  0.00     0.034 A 
HETATM   19  C   UNL     1      18.004  51.589  49.878  1.00  0.00     0.325 A 
HETATM   20  H   UNL     1      19.173  53.075  48.893  1.00  0.00     0.170 HD
HETATM   21  O   UNL     1      16.994  52.190  50.197  1.00  0.00    -0.247 OA
HETATM   22  C   UNL     1      22.022  49.959  48.427  1.00  0.00     0.032 A 
HETATM   23  H   UNL     1      17.677  49.607  50.608  1.00  0.00     0.170 HD
ENDBRANCH   9  12
ENDBRANCH   7   8
ENDBRANCH   6   7
ENDBRANCH   3   6
BRANCH   2  24
HETATM   24  C   UNL     1      26.441  42.841  50.900  1.00  0.00     0.043 A 
HETATM   25  C   UNL     1      26.240  41.577  51.472  1.00  0.00     0.032 A 
HETATM   26  C   UNL     1      26.499  40.421  50.729  1.00  0.00     0.026 A 
HETATM   27  C   UNL     1      26.957  40.525  49.418  1.00  0.00     0.034 A 
HETATM   28 CL   UNL     1      27.276  39.101  48.509  1.00  0.00    -0.084 Cl
HETATM   29  C   UNL     1      27.162  41.776  48.841  1.00  0.00     0.026 A 
HETATM   30  C   UNL     1      26.906  42.935  49.580  1.00  0.00     0.032 A 
ENDBRANCH   2  24
BRANCH   1  31
HETATM   31  C   UNL     1      28.241  44.073  53.200  1.00  0.00     0.012 A 
HETATM   32  C   UNL     1      28.535  44.340  54.545  1.00  0.00     0.015 A 
HETATM   33  C   UNL     1      29.688  43.822  55.139  1.00  0.00     0.001 A 
HETATM   34  C   UNL     1      30.554  43.022  54.397  1.00  0.00     0.000 A 
HETATM   35  C   UNL     1      30.263  42.731  53.066  1.00  0.00     0.001 A 
HETATM   36  C   UNL     1      29.108  43.246  52.471  1.00  0.00     0.015 A 
ENDBRANCH   1  31
TORSDOF 6
ENDMDL
MODEL 4
REMARK VINA RESULT:      -9.2      4.493      7.153
REMARK  6 active torsions:
REMARK  status: ('A' for Active; 'I' for Inactive)
REMARK    1  A    between atoms: C_4  and  C_5 
REMARK    2  A    between atoms: N_6  and  C_7 
REMARK    3  A    between atoms: C_14  and  S_15 
REMARK    4  A    between atoms: S_15  and  C_16 
REMARK    5  A    between atoms: C_16  and  C_17 
REMARK       I    between atoms: C_17  and  N_18 
REMARK    6  A    between atoms: N_18  and  C_19 
ROOT
HETATM    1  C   UNL     1      22.211  48.981  49.212  1.00  0.00     0.169 A 
HETATM    2  N   UNL     1      22.299  47.640  48.824  1.00  0.00    -0.271 N 
HETATM    3  C   UNL     1      23.555  47.248  49.266  1.00  0.00     0.197 A 
HETATM    4  N   UNL     1      24.146  48.234  49.896  1.00  0.00    -0.122 NA
HETATM    5  N   UNL     1      23.304  49.306  49.881  1.00  0.00    -0.128 NA
ENDROOT
BRANCH   3   6
HETATM    6  S   UNL     1      24.187  45.629  49.233  1.00  0.00    -0.080 SA
BRANCH   6   7
HETATM    7  C   UNL     1      24.300  45.261  51.013  1.00  0.00     0.185 C 
BRANCH   7   8
HETATM    8  C   UNL     1      25.706  45.331  51.601  1.00  0.00     0.231 C 
HETATM    9  N   UNL     1      25.769  45.299  52.982  1.00  0.00    -0.326 N 
HETATM   10  H   UNL     1      24.875  45.277  53.457  1.00  0.00     0.169 HD
HETATM   11  O   UNL     1      26.677  45.314  50.845  1.00  0.00    -0.272 OA
BRANCH   9  12
HETATM   12  C   UNL     1      26.914  45.366  53.802  1.00  0.00     0.037 A 
HETATM   13  C   UNL     1      27.772  44.283  54.023  1.00  0.00     0.061 A 
HETATM   14  C   UNL     1      28.861  44.501  54.836  1.00  0.00     0.065 A 
HETATM   15  C   UNL     1      29.117  45.735  55.429  1.00  0.00     0.063 A 
HETATM   16  N   UNL     1      29.872  43.626  55.220  1.00  0.00    -0.306 N 
HETATM   17  N   UNL     1      30.283  45.619  56.176  1.00  0.00    -0.307 N 
HETATM   18  C   UNL     1      28.298  46.819  55.237  1.00  0.00     0.034 A 
HETATM   19  C   UNL     1      30.769  44.308  56.054  1.00  0.00     0.325 A 
HETATM   20  H   UNL     1      30.738  46.334  56.719  1.00  0.00     0.170 HD
HETATM   21  O   UNL     1      31.774  43.857  56.572  1.00  0.00    -0.247 OA
HETATM   22  C   UNL     1      27.185  46.622  54.409  1.00  0.00     0.032 A 
HETATM   23  H   UNL     1      29.972  42.660  54.950  1.00  0.00     0.170 HD
ENDBRANCH   9  12
ENDBRANCH   7   8
ENDBRANCH   6   7
ENDBRANCH   3   6
BRANCH   2  24
HETATM   24  C   UNL     1      21.303  46.856  48.172  1.00  0.00     0.043 A 
HETATM   25  C   UNL     1      21.413  46.558  46.806  1.00  0.00     0.032 A 
HETATM   26  C   UNL     1      20.426  45.796  46.173  1.00  0.00     0.026 A 
HETATM   27  C   UNL     1      19.332  45.332  46.899  1.00  0.00     0.034 A 
HETATM   28 CL   UNL     1      18.121  44.396  46.115  1.00  0.00    -0.084 Cl
HETATM   29  C   UNL     1      19.213  45.624  48.255  1.00  0.00     0.026 A 
HETATM   30  C   UNL     1      20.196  46.387  48.893  1.00  0.00     0.032 A 
ENDBRANCH   2  24
BRANCH   1  31
HETATM   31  C   UNL     1      21.152  49.940  48.891  1.00  0.00     0.012 A 
HETATM   32  C   UNL     1      20.618  50.738  49.914  1.00  0.00     0.015 A 
HETATM   33  C   UNL     1      19.621  51.677  49.640  1.00  0.00     0.001 A 
HETATM   34  C   UNL     1      19.155  51.835  48.336  1.00  0.00     0.000 A 
HETATM   35  C   UNL     1      19.691  51.065  47.307  1.00  0.00     0.001 A 
HETATM   36  C   UNL     1      20.691  50.127  47.580  1.00  0.00     0.015 A 
ENDBRANCH   1  31
TORSDOF 6
ENDMDL
MODEL 5
REMARK VINA RESULT:      -9.1      3.780      6.359
REMARK  6 active torsions:
REMARK  status: ('A' for Active; 'I' for Inactive)
REMARK    1  A    between atoms: C_4  and  C_5 
REMARK    2  A    between atoms: N_6  and  C_7 
REMARK    3  A    between atoms: C_14  and  S_15 
REMARK    4  A    between atoms: S_15  and  C_16 
REMARK    5  A    between atoms: C_16  and  C_17 
REMARK       I    between atoms: C_17  and  N_18 
REMARK    6  A    between atoms: N_18  and  C_19 
ROOT
HETATM    1  C   UNL     1      23.895  47.341  49.846  1.00  0.00     0.169 A 
HETATM    2  N   UNL     1      23.692  45.985  49.570  1.00  0.00    -0.271 N 
HETATM    3  C   UNL     1      24.503  45.335  50.492  1.00  0.00     0.197 A 
HETATM    4  N   UNL     1      25.097  46.204  51.271  1.00  0.00    -0.122 NA
HETATM    5  N   UNL     1      24.706  47.451  50.885  1.00  0.00    -0.128 NA
ENDROOT
BRANCH   3   6
HETATM    6  S   UNL     1      24.556  43.619  50.768  1.00  0.00    -0.080 SA
BRANCH   6   7
HETATM    7  C   UNL     1      26.335  43.288  50.572  1.00  0.00     0.185 C 
BRANCH   7   8
HETATM    8  C   UNL     1      27.115  43.145  51.876  1.00  0.00     0.231 C 
HETATM    9  N   UNL     1      27.505  44.336  52.462  1.00  0.00    -0.326 N 
HETATM   10  H   UNL     1      27.270  45.173  51.942  1.00  0.00     0.169 HD
HETATM   11  O   UNL     1      27.266  42.028  52.369  1.00  0.00    -0.272 OA
BRANCH   9  12
HETATM   12  C   UNL     1      28.246  44.520  53.647  1.00  0.00     0.037 A 
HETATM   13  C   UNL     1      29.287  43.674  54.047  1.00  0.00     0.061 A 
HETATM   14  C   UNL     1      29.932  43.987  55.222  1.00  0.00     0.065 A 
HETATM   15  C   UNL     1      29.581  45.088  55.998  1.00  0.00     0.063 A 
HETATM   16  N   UNL     1      30.992  43.342  55.852  1.00  0.00    -0.306 N 
HETATM   17  N   UNL     1      30.423  45.121  57.104  1.00  0.00    -0.307 N 
HETATM   18  C   UNL     1      28.567  45.939  55.639  1.00  0.00     0.034 A 
HETATM   19  C   UNL     1      31.312  44.038  57.026  1.00  0.00     0.325 A 
HETATM   20  H   UNL     1      30.430  45.795  57.850  1.00  0.00     0.170 HD
HETATM   21  O   UNL     1      32.189  43.761  57.824  1.00  0.00    -0.247 OA
HETATM   22  C   UNL     1      27.897  45.643  54.444  1.00  0.00     0.032 A 
HETATM   23  H   UNL     1      31.473  42.516  55.534  1.00  0.00     0.170 HD
ENDBRANCH   9  12
ENDBRANCH   7   8
ENDBRANCH   6   7
ENDBRANCH   3   6
BRANCH   2  24
HETATM   24  C   UNL     1      22.816  45.416  48.602  1.00  0.00     0.043 A 
HETATM   25  C   UNL     1      23.320  44.913  47.394  1.00  0.00     0.032 A 
HETATM   26  C   UNL     1      22.451  44.365  46.445  1.00  0.00     0.026 A 
HETATM   27  C   UNL     1      21.082  44.317  46.700  1.00  0.00     0.034 A 
HETATM   28 CL   UNL     1      20.018  43.644  45.529  1.00  0.00    -0.084 Cl
HETATM   29  C   UNL     1      20.572  44.816  47.896  1.00  0.00     0.026 A 
HETATM   30  C   UNL     1      21.436  45.367  48.847  1.00  0.00     0.032 A 
ENDBRANCH   2  24
BRANCH   1  31
HETATM   31  C   UNL     1      23.391  48.494  49.096  1.00  0.00     0.012 A 
HETATM   32  C   UNL     1      22.010  48.737  49.061  1.00  0.00     0.015 A 
HETATM   33  C   UNL     1      21.497  49.839  48.373  1.00  0.00     0.001 A 
HETATM   34  C   UNL     1      22.361  50.716  47.721  1.00  0.00     0.000 A 
HETATM   35  C   UNL     1      23.736  50.499  47.765  1.00  0.00     0.001 A 
HETATM   36  C   UNL     1      24.251  49.398  48.457  1.00  0.00     0.015 A 
ENDBRANCH   1  31
TORSDOF 6
ENDMDL
MODEL 6
REMARK VINA RESULT:      -8.9      4.156      6.198
REMARK  6 active torsions:
REMARK  status: ('A' for Active; 'I' for Inactive)
REMARK    1  A    between atoms: C_4  and  C_5 
REMARK    2  A    between atoms: N_6  and  C_7 
REMARK    3  A    between atoms: C_14  and  S_15 
REMARK    4  A    between atoms: S_15  and  C_16 
REMARK    5  A    between atoms: C_16  and  C_17 
REMARK       I    between atoms: C_17  and  N_18 
REMARK    6  A    between atoms: N_18  and  C_19 
ROOT
HETATM    1  C   UNL     1      21.882  49.475  49.195  1.00  0.00     0.169 A 
HETATM    2  N   UNL     1      21.968  48.131  48.820  1.00  0.00    -0.271 N 
HETATM    3  C   UNL     1      23.250  47.761  49.205  1.00  0.00     0.197 A 
HETATM    4  N   UNL     1      23.858  48.761  49.792  1.00  0.00    -0.122 NA
HETATM    5  N   UNL     1      23.003  49.822  49.805  1.00  0.00    -0.128 NA
ENDROOT
BRANCH   3   6
HETATM    6  S   UNL     1      23.900  46.148  49.161  1.00  0.00    -0.080 SA
BRANCH   6   7
HETATM    7  C   UNL     1      25.247  46.281  50.378  1.00  0.00     0.185 C 
BRANCH   7   8
HETATM    8  C   UNL     1      26.316  45.196  50.283  1.00  0.00     0.231 C 
HETATM    9  N   UNL     1      26.025  44.023  50.956  1.00  0.00    -0.326 N 
HETATM   10  H   UNL     1      25.156  44.025  51.477  1.00  0.00     0.169 HD
HETATM   11  O   UNL     1      27.296  45.377  49.561  1.00  0.00    -0.272 OA
BRANCH   9  12
HETATM   12  C   UNL     1      26.819  42.864  51.065  1.00  0.00     0.037 A 
HETATM   13  C   UNL     1      26.883  41.875  50.076  1.00  0.00     0.061 A 
HETATM   14  C   UNL     1      27.715  40.804  50.313  1.00  0.00     0.065 A 
HETATM   15  C   UNL     1      28.467  40.684  51.479  1.00  0.00     0.063 A 
HETATM   16  N   UNL     1      27.982  39.694  49.518  1.00  0.00    -0.306 N 
HETATM   17  N   UNL     1      29.194  39.503  51.402  1.00  0.00    -0.307 N 
HETATM   18  C   UNL     1      28.429  41.632  52.470  1.00  0.00     0.034 A 
HETATM   19  C   UNL     1      28.904  38.873  50.181  1.00  0.00     0.325 A 
HETATM   20  H   UNL     1      29.836  39.132  52.082  1.00  0.00     0.170 HD
HETATM   21  O   UNL     1      29.367  37.820  49.781  1.00  0.00    -0.247 OA
HETATM   22  C   UNL     1      27.592  42.734  52.250  1.00  0.00     0.032 A 
HETATM   23  H   UNL     1      27.596  39.493  48.609  1.00  0.00     0.170 HD
ENDBRANCH   9  12
ENDBRANCH   7   8
ENDBRANCH   6   7
ENDBRANCH   3   6
BRANCH   2  24
HETATM   24  C   UNL     1      20.952  47.326  48.228  1.00  0.00     0.043 A 
HETATM   25  C   UNL     1      19.832  46.932  48.973  1.00  0.00     0.032 A 
HETATM   26  C   UNL     1      18.844  46.134  48.387  1.00  0.00     0.026 A 
HETATM   27  C   UNL     1      18.972  45.731  47.060  1.00  0.00     0.034 A 
HETATM   28 CL   UNL     1      17.755  44.750  46.344  1.00  0.00    -0.084 Cl
HETATM   29  C   UNL     1      20.082  46.116  46.312  1.00  0.00     0.026 A 
HETATM   30  C   UNL     1      21.073  46.912  46.893  1.00  0.00     0.032 A 
ENDBRANCH   2  24
BRANCH   1  31
HETATM   31  C   UNL     1      20.796  50.417  48.915  1.00  0.00     0.012 A 
HETATM   32  C   UNL     1      20.371  50.598  47.590  1.00  0.00     0.015 A 
HETATM   33  C   UNL     1      19.324  51.473  47.291  1.00  0.00     0.001 A 
HETATM   34  C   UNL     1      18.685  52.169  48.315  1.00  0.00     0.000 A 
HETATM   35  C   UNL     1      19.083  51.984  49.636  1.00  0.00     0.001 A 
HETATM   36  C   UNL     1      20.128  51.105  49.938  1.00  0.00     0.015 A 
ENDBRANCH   1  31
TORSDOF 6
ENDMDL
MODEL 7
REMARK VINA RESULT:      -8.9      3.040      6.609
REMARK  6 active torsions:
REMARK  status: ('A' for Active; 'I' for Inactive)
REMARK    1  A    between atoms: C_4  and  C_5 
REMARK    2  A    between atoms: N_6  and  C_7 
REMARK    3  A    between atoms: C_14  and  S_15 
REMARK    4  A    between atoms: S_15  and  C_16 
REMARK    5  A    between atoms: C_16  and  C_17 
REMARK       I    between atoms: C_17  and  N_18 
REMARK    6  A    between atoms: N_18  and  C_19 
ROOT
HETATM    1  C   UNL     1      28.206  42.077  51.722  1.00  0.00     0.169 A 
HETATM    2  N   UNL     1      27.385  42.557  50.696  1.00  0.00    -0.271 N 
HETATM    3  C   UNL     1      27.379  41.526  49.767  1.00  0.00     0.197 A 
HETATM    4  N   UNL     1      28.084  40.512  50.204  1.00  0.00    -0.122 NA
HETATM    5  N   UNL     1      28.583  40.845  51.428  1.00  0.00    -0.128 NA
ENDROOT
BRANCH   3   6
HETATM    6  S   UNL     1      26.393  41.449  48.337  1.00  0.00    -0.080 SA
BRANCH   6   7
HETATM    7  C   UNL     1      24.791  40.950  49.044  1.00  0.00     0.185 C 
BRANCH   7   8
HETATM    8  C   UNL     1      23.611  41.841  48.666  1.00  0.00     0.231 C 
HETATM    9  N   UNL     1      23.948  43.110  48.231  1.00  0.00    -0.326 N 
HETATM   10  H   UNL     1      24.936  43.328  48.250  1.00  0.00     0.169 HD
HETATM   11  O   UNL     1      22.473  41.372  48.676  1.00  0.00    -0.272 OA
BRANCH   9  12
HETATM   12  C   UNL     1      23.083  44.152  47.836  1.00  0.00     0.037 A 
HETATM   13  C   UNL     1      22.413  44.985  48.740  1.00  0.00     0.061 A 
HETATM   14  C   UNL     1      21.612  45.970  48.209  1.00  0.00     0.065 A 
HETATM   15  C   UNL     1      21.456  46.149  46.837  1.00  0.00     0.063 A 
HETATM   16  N   UNL     1      20.845  46.935  48.855  1.00  0.00    -0.306 N 
HETATM   17  N   UNL     1      20.594  47.221  46.638  1.00  0.00    -0.307 N 
HETATM   18  C   UNL     1      22.096  45.352  45.921  1.00  0.00     0.034 A 
HETATM   19  C   UNL     1      20.205  47.725  47.889  1.00  0.00     0.325 A 
HETATM   20  H   UNL     1      20.285  47.606  45.762  1.00  0.00     0.170 HD
HETATM   21  O   UNL     1      19.459  48.665  48.091  1.00  0.00    -0.247 OA
HETATM   22  C   UNL     1      22.920  44.343  46.438  1.00  0.00     0.032 A 
HETATM   23  H   UNL     1      20.753  47.070  49.849  1.00  0.00     0.170 HD
ENDBRANCH   9  12
ENDBRANCH   7   8
ENDBRANCH   6   7
ENDBRANCH   3   6
BRANCH   2  24
HETATM   24  C   UNL     1      26.682  43.796  50.652  1.00  0.00     0.043 A 
HETATM   25  C   UNL     1      25.466  43.949  51.331  1.00  0.00     0.032 A 
HETATM   26  C   UNL     1      24.778  45.166  51.274  1.00  0.00     0.026 A 
HETATM   27  C   UNL     1      25.303  46.228  50.542  1.00  0.00     0.034 A 
HETATM   28 CL   UNL     1      24.454  47.721  50.474  1.00  0.00    -0.084 Cl
HETATM   29  C   UNL     1      26.510  46.085  49.862  1.00  0.00     0.026 A 
HETATM   30  C   UNL     1      27.201  44.870  49.914  1.00  0.00     0.032 A 
ENDBRANCH   2  24
BRANCH   1  31
HETATM   31  C   UNL     1      28.674  42.798  52.908  1.00  0.00     0.012 A 
HETATM   32  C   UNL     1      29.999  42.625  53.335  1.00  0.00     0.015 A 
HETATM   33  C   UNL     1      30.484  43.313  54.449  1.00  0.00     0.001 A 
HETATM   34  C   UNL     1      29.652  44.190  55.142  1.00  0.00     0.000 A 
HETATM   35  C   UNL     1      28.341  44.388  54.716  1.00  0.00     0.001 A 
HETATM   36  C   UNL     1      27.855  43.702  53.599  1.00  0.00     0.015 A 
ENDBRANCH   1  31
TORSDOF 6
ENDMDL
MODEL 8
REMARK VINA RESULT:      -8.9      4.418      6.826
REMARK  6 active torsions:
REMARK  status: ('A' for Active; 'I' for Inactive)
REMARK    1  A    between atoms: C_4  and  C_5 
REMARK    2  A    between atoms: N_6  and  C_7 
REMARK    3  A    between atoms: C_14  and  S_15 
REMARK    4  A    between atoms: S_15  and  C_16 
REMARK    5  A    between atoms: C_16  and  C_17 
REMARK       I    between atoms: C_17  and  N_18 
REMARK    6  A    between atoms: N_18  and  C_19 
ROOT
HETATM    1  C   UNL     1      21.931  48.849  49.251  1.00  0.00     0.169 A 
HETATM    2  N   UNL     1      21.909  47.599  48.624  1.00  0.00    -0.271 N 
HETATM    3  C   UNL     1      23.188  47.101  48.833  1.00  0.00     0.197 A 
HETATM    4  N   UNL     1      23.895  47.940  49.548  1.00  0.00    -0.122 NA
HETATM    5  N   UNL     1      23.109  49.019  49.827  1.00  0.00    -0.128 NA
ENDROOT
BRANCH   3   6
HETATM    6  S   UNL     1      23.733  45.498  48.437  1.00  0.00    -0.080 SA
BRANCH   6   7
HETATM    7  C   UNL     1      23.035  44.540  49.818  1.00  0.00     0.185 C 
BRANCH   7   8
HETATM    8  C   UNL     1      24.024  44.182  50.923  1.00  0.00     0.231 C 
HETATM    9  N   UNL     1      24.804  45.230  51.376  1.00  0.00    -0.326 N 
HETATM   10  H   UNL     1      24.668  46.112  50.897  1.00  0.00     0.169 HD
HETATM   11  O   UNL     1      24.008  43.049  51.403  1.00  0.00    -0.272 OA
BRANCH   9  12
HETATM   12  C   UNL     1      25.809  45.202  52.365  1.00  0.00     0.037 A 
HETATM   13  C   UNL     1      26.901  44.327  52.334  1.00  0.00     0.061 A 
HETATM   14  C   UNL     1      27.812  44.424  53.361  1.00  0.00     0.065 A 
HETATM   15  C   UNL     1      27.674  45.341  54.399  1.00  0.00     0.063 A 
HETATM   16  N   UNL     1      28.980  43.701  53.582  1.00  0.00    -0.306 N 
HETATM   17  N   UNL     1      28.754  45.183  55.259  1.00  0.00    -0.307 N 
HETATM   18  C   UNL     1      26.617  46.213  54.464  1.00  0.00     0.034 A 
HETATM   19  C   UNL     1      29.581  44.164  54.761  1.00  0.00     0.325 A 
HETATM   20  H   UNL     1      28.950  45.698  56.100  1.00  0.00     0.170 HD
HETATM   21  O   UNL     1      30.618  43.764  55.259  1.00  0.00    -0.247 OA
HETATM   22  C   UNL     1      25.678  46.136  53.427  1.00  0.00     0.032 A 
HETATM   23  H   UNL     1      29.358  42.968  53.004  1.00  0.00     0.170 HD
ENDBRANCH   9  12
ENDBRANCH   7   8
ENDBRANCH   6   7
ENDBRANCH   3   6
BRANCH   2  24
HETATM   24  C   UNL     1      20.808  46.973  47.972  1.00  0.00     0.043 A 
HETATM   25  C   UNL     1      20.592  47.162  46.600  1.00  0.00     0.032 A 
HETATM   26  C   UNL     1      19.502  46.551  45.970  1.00  0.00     0.026 A 
HETATM   27  C   UNL     1      18.630  45.752  46.707  1.00  0.00     0.034 A 
HETATM   28 CL   UNL     1      17.293  45.004  45.929  1.00  0.00    -0.084 Cl
HETATM   29  C   UNL     1      18.836  45.560  48.071  1.00  0.00     0.026 A 
HETATM   30  C   UNL     1      19.922  46.171  48.706  1.00  0.00     0.032 A 
ENDBRANCH   2  24
BRANCH   1  31
HETATM   31  C   UNL     1      20.889  49.878  49.238  1.00  0.00     0.012 A 
HETATM   32  C   UNL     1      19.811  49.773  50.129  1.00  0.00     0.015 A 
HETATM   33  C   UNL     1      18.811  50.747  50.157  1.00  0.00     0.001 A 
HETATM   34  C   UNL     1      18.884  51.843  49.301  1.00  0.00     0.000 A 
HETATM   35  C   UNL     1      19.959  51.972  48.425  1.00  0.00     0.001 A 
HETATM   36  C   UNL     1      20.963  50.999  48.399  1.00  0.00     0.015 A 
ENDBRANCH   1  31
TORSDOF 6
ENDMDL
MODEL 9
REMARK VINA RESULT:      -8.8      4.897      7.114
REMARK  6 active torsions:
REMARK  status: ('A' for Active; 'I' for Inactive)
REMARK    1  A    between atoms: C_4  and  C_5 
REMARK    2  A    between atoms: N_6  and  C_7 
REMARK    3  A    between atoms: C_14  and  S_15 
REMARK    4  A    between atoms: S_15  and  C_16 
REMARK    5  A    between atoms: C_16  and  C_17 
REMARK       I    between atoms: C_17  and  N_18 
REMARK    6  A    between atoms: N_18  and  C_19 
ROOT
HETATM    1  C   UNL     1      21.047  50.323  49.435  1.00  0.00     0.169 A 
HETATM    2  N   UNL     1      21.315  49.033  48.966  1.00  0.00    -0.271 N 
HETATM    3  C   UNL     1      22.654  48.839  49.277  1.00  0.00     0.197 A 
HETATM    4  N   UNL     1      23.133  49.883  49.908  1.00  0.00    -0.122 NA
HETATM    5  N   UNL     1      22.130  50.798  50.025  1.00  0.00    -0.128 NA
ENDROOT
BRANCH   3   6
HETATM    6  S   UNL     1      23.535  47.351  49.099  1.00  0.00    -0.080 SA
BRANCH   6   7
HETATM    7  C   UNL     1      25.245  47.923  49.352  1.00  0.00     0.185 C 
BRANCH   7   8
HETATM    8  C   UNL     1      26.190  46.891  49.959  1.00  0.00     0.231 C 
HETATM    9  N   UNL     1      25.728  46.273  51.107  1.00  0.00    -0.326 N 
HETATM   10  H   UNL     1      24.832  46.602  51.446  1.00  0.00     0.169 HD
HETATM   11  O   UNL     1      27.230  46.604  49.367  1.00  0.00    -0.272 OA
BRANCH   9  12
HETATM   12  C   UNL     1      26.380  45.302  51.894  1.00  0.00     0.037 A 
HETATM   13  C   UNL     1      26.598  43.984  51.474  1.00  0.00     0.061 A 
HETATM   14  C   UNL     1      27.262  43.151  52.344  1.00  0.00     0.065 A 
HETATM   15  C   UNL     1      27.705  43.574  53.595  1.00  0.00     0.063 A 
HETATM   16  N   UNL     1      27.621  41.815  52.194  1.00  0.00    -0.306 N 
HETATM   17  N   UNL     1      28.335  42.501  54.214  1.00  0.00    -0.307 N 
HETATM   18  C   UNL     1      27.510  44.856  54.041  1.00  0.00     0.034 A 
HETATM   19  C   UNL     1      28.293  41.395  53.351  1.00  0.00     0.325 A 
HETATM   20  H   UNL     1      28.767  42.483  55.122  1.00  0.00     0.170 HD
HETATM   21  O   UNL     1      28.753  40.288  53.568  1.00  0.00    -0.247 OA
HETATM   22  C   UNL     1      26.838  45.726  53.170  1.00  0.00     0.032 A 
HETATM   23  H   UNL     1      27.446  41.227  51.395  1.00  0.00     0.170 HD
ENDBRANCH   9  12
ENDBRANCH   7   8
ENDBRANCH   6   7
ENDBRANCH   3   6
BRANCH   2  24
HETATM   24  C   UNL     1      20.403  48.122  48.359  1.00  0.00     0.043 A 
HETATM   25  C   UNL     1      19.500  47.391  49.143  1.00  0.00     0.032 A 
HETATM   26  C   UNL     1      18.615  46.491  48.539  1.00  0.00     0.026 A 
HETATM   27  C   UNL     1      18.631  46.321  47.156  1.00  0.00     0.034 A 
HETATM   28 CL   UNL     1      17.543  45.213  46.419  1.00  0.00    -0.084 Cl
HETATM   29  C   UNL     1      19.527  47.041  46.370  1.00  0.00     0.026 A 
HETATM   30  C   UNL     1      20.414  47.940  46.968  1.00  0.00     0.032 A 
ENDBRANCH   2  24
BRANCH   1  31
HETATM   31  C   UNL     1      19.820  51.105  49.260  1.00  0.00     0.012 A 
HETATM   32  C   UNL     1      18.725  50.855  50.100  1.00  0.00     0.015 A 
HETATM   33  C   UNL     1      17.547  51.596  49.974  1.00  0.00     0.001 A 
HETATM   34  C   UNL     1      17.457  52.601  49.014  1.00  0.00     0.000 A 
HETATM   35  C   UNL     1      18.544  52.874  48.187  1.00  0.00     0.001 A 
HETATM   36  C   UNL     1      19.725  52.136  48.315  1.00  0.00     0.015 A 
ENDBRANCH   1  31
TORSDOF 6
ENDMDL
MODEL 10
REMARK VINA RESULT:      -8.7      5.505      9.779
REMARK  6 active torsions:
REMARK  status: ('A' for Active; 'I' for Inactive)
REMARK    1  A    between atoms: C_4  and  C_5 
REMARK    2  A    between atoms: N_6  and  C_7 
REMARK    3  A    between atoms: C_14  and  S_15 
REMARK    4  A    between atoms: S_15  and  C_16 
REMARK    5  A    between atoms: C_16  and  C_17 
REMARK       I    between atoms: C_17  and  N_18 
REMARK    6  A    between atoms: N_18  and  C_19 
ROOT
HETATM    1  C   UNL     1      25.930  45.817  51.752  1.00  0.00     0.169 A 
HETATM    2  N   UNL     1      25.005  45.638  50.718  1.00  0.00    -0.271 N 
HETATM    3  C   UNL     1      24.577  46.927  50.429  1.00  0.00     0.197 A 
HETATM    4  N   UNL     1      25.209  47.797  51.177  1.00  0.00    -0.122 NA
HETATM    5  N   UNL     1      26.066  47.111  51.986  1.00  0.00    -0.128 NA
ENDROOT
BRANCH   3   6
HETATM    6  S   UNL     1      23.544  47.384  49.107  1.00  0.00    -0.080 SA
BRANCH   6   7
HETATM    7  C   UNL     1      24.087  49.098  48.816  1.00  0.00     0.185 C 
BRANCH   7   8
HETATM    8  C   UNL     1      23.059  49.995  48.133  1.00  0.00     0.231 C 
HETATM    9  N   UNL     1      21.754  49.827  48.562  1.00  0.00    -0.326 N 
HETATM   10  H   UNL     1      21.614  49.098  49.250  1.00  0.00     0.169 HD
HETATM   11  O   UNL     1      23.441  50.854  47.339  1.00  0.00    -0.272 OA
BRANCH   9  12
HETATM   12  C   UNL     1      20.598  50.493  48.107  1.00  0.00     0.037 A 
HETATM   13  C   UNL     1      19.800  50.027  47.055  1.00  0.00     0.061 A 
HETATM   14  C   UNL     1      18.691  50.774  46.730  1.00  0.00     0.065 A 
HETATM   15  C   UNL     1      18.357  51.948  47.400  1.00  0.00     0.063 A 
HETATM   16  N   UNL     1      17.727  50.553  45.751  1.00  0.00    -0.306 N 
HETATM   17  N   UNL     1      17.191  52.449  46.835  1.00  0.00    -0.307 N 
HETATM   18  C   UNL     1      19.115  52.436  48.434  1.00  0.00     0.034 A 
HETATM   19  C   UNL     1      16.783  51.587  45.805  1.00  0.00     0.325 A 
HETATM   20  H   UNL     1      16.690  53.281  47.097  1.00  0.00     0.170 HD
HETATM   21  O   UNL     1      15.799  51.717  45.099  1.00  0.00    -0.247 OA
HETATM   22  C   UNL     1      20.248  51.690  48.786  1.00  0.00     0.032 A 
HETATM   23  H   UNL     1      17.686  49.782  45.105  1.00  0.00     0.170 HD
ENDBRANCH   9  12
ENDBRANCH   7   8
ENDBRANCH   6   7
ENDBRANCH   3   6
BRANCH   2  24
HETATM   24  C   UNL     1      24.636  44.417  50.083  1.00  0.00     0.043 A 
HETATM   25  C   UNL     1      25.524  43.771  49.211  1.00  0.00     0.032 A 
HETATM   26  C   UNL     1      25.149  42.578  48.585  1.00  0.00     0.026 A 
HETATM   27  C   UNL     1      23.892  42.029  48.828  1.00  0.00     0.034 A 
HETATM   28 CL   UNL     1      23.436  40.563  48.055  1.00  0.00    -0.084 Cl
HETATM   29  C   UNL     1      23.003  42.665  49.691  1.00  0.00     0.026 A 
HETATM   30  C   UNL     1      23.371  43.859  50.318  1.00  0.00     0.032 A 
ENDBRANCH   2  24
BRANCH   1  31
HETATM   31  C   UNL     1      26.606  44.784  52.539  1.00  0.00     0.012 A 
HETATM   32  C   UNL     1      26.062  44.397  53.773  1.00  0.00     0.015 A 
HETATM   33  C   UNL     1      26.670  43.401  54.539  1.00  0.00     0.001 A 
HETATM   34  C   UNL     1      27.825  42.774  54.076  1.00  0.00     0.000 A 
HETATM   35  C   UNL     1      28.364  43.133  52.843  1.00  0.00     0.001 A 
HETATM   36  C   UNL     1      27.754  44.128  52.073  1.00  0.00     0.015 A 
ENDBRANCH   1  31
TORSDOF 6
ENDMDL
