MODEL 1
REMARK VINA RESULT:      -8.6      0.000      0.000
REMARK  3 active torsions:
REMARK  status: ('A' for Active; 'I' for Inactive)
REMARK    1  A    between atoms: C_6  and  C_7 
REMARK       I    between atoms: C_7  and  N_8 
REMARK    2  A    between atoms: N_8  and  C_9 
REMARK    3  A    between atoms: C_12  and  C_13 
REMARK       I    between atoms: C_13  and  N_14 
ROOT
HETATM    1  C   UNL     1      27.101  44.701  53.948  1.00  0.00     0.257 C 
HETATM    2  N   UNL     1      27.280  45.338  52.734  1.00  0.00    -0.322 N 
HETATM    3  O   UNL     1      26.039  44.409  54.478  1.00  0.00    -0.267 OA
HETATM    4  H   UNL     1      28.236  45.512  52.446  1.00  0.00     0.169 HD
ENDROOT
BRANCH   2   5
HETATM    5  C   UNL     1      26.262  45.771  51.862  1.00  0.00     0.052 A 
HETATM    6  C   UNL     1      25.808  47.087  51.754  1.00  0.00     0.147 A 
HETATM    7  N   UNL     1      24.832  47.493  50.900  1.00  0.00    -0.253 NA
HETATM    8  C   UNL     1      24.274  46.531  50.117  1.00  0.00     0.124 A 
HETATM    9  C   UNL     1      24.649  45.195  50.154  1.00  0.00     0.039 A 
HETATM   10  C   UNL     1      25.660  44.817  51.037  1.00  0.00     0.033 A 
BRANCH   8  11
HETATM   11  C   UNL     1      23.202  46.981  49.175  1.00  0.00     0.268 C 
HETATM   12  N   UNL     1      22.625  48.184  49.480  1.00  0.00    -0.365 N 
HETATM   13  H   UNL     1      22.941  48.691  50.301  1.00  0.00     0.159 HD
HETATM   14  H   UNL     1      21.897  48.559  48.892  1.00  0.00     0.159 HD
HETATM   15  O   UNL     1      22.864  46.327  48.196  1.00  0.00    -0.266 OA
ENDBRANCH   8  11
ENDBRANCH   2   5
BRANCH   1  16
HETATM   16  C   UNL     1      28.370  44.380  54.653  1.00  0.00     0.044 A 
HETATM   17  C   UNL     1      28.931  45.346  55.514  1.00  0.00    -0.045 A 
HETATM   18  C   UNL     1      30.116  45.038  56.198  1.00  0.00     0.014 A 
HETATM   19  C   UNL     1      28.275  46.682  55.746  1.00  0.00     0.049 C 
HETATM   20  C   UNL     1      30.744  43.799  56.031  1.00  0.00    -0.061 A 
HETATM   21  C   UNL     1      32.027  43.499  56.753  1.00  0.00     0.048 C 
HETATM   22  C   UNL     1      30.187  42.860  55.156  1.00  0.00     0.014 A 
HETATM   23  C   UNL     1      28.986  43.123  54.477  1.00  0.00    -0.045 A 
HETATM   24  C   UNL     1      28.411  42.058  53.583  1.00  0.00     0.049 C 
ENDBRANCH   1  16
TORSDOF 3
ENDMDL
MODEL 2
REMARK VINA RESULT:      -8.5      0.075      1.902
REMARK  3 active torsions:
REMARK  status: ('A' for Active; 'I' for Inactive)
REMARK    1  A    between atoms: C_6  and  C_7 
REMARK       I    between atoms: C_7  and  N_8 
REMARK    2  A    between atoms: N_8  and  C_9 
REMARK    3  A    between atoms: C_12  and  C_13 
REMARK       I    between atoms: C_13  and  N_14 
ROOT
HETATM    1  C   UNL     1      27.051  44.705  53.941  1.00  0.00     0.257 C 
HETATM    2  N   UNL     1      27.234  45.362  52.739  1.00  0.00    -0.322 N 
HETATM    3  O   UNL     1      25.988  44.383  54.451  1.00  0.00    -0.267 OA
HETATM    4  H   UNL     1      28.189  45.561  52.468  1.00  0.00     0.169 HD
ENDROOT
BRANCH   2   5
HETATM    5  C   UNL     1      26.220  45.784  51.857  1.00  0.00     0.052 A 
HETATM    6  C   UNL     1      25.685  47.073  51.811  1.00  0.00     0.147 A 
HETATM    7  N   UNL     1      24.715  47.470  50.947  1.00  0.00    -0.253 NA
HETATM    8  C   UNL     1      24.246  46.525  50.088  1.00  0.00     0.124 A 
HETATM    9  C   UNL     1      24.705  45.216  50.058  1.00  0.00     0.039 A 
HETATM   10  C   UNL     1      25.709  44.847  50.954  1.00  0.00     0.033 A 
BRANCH   8  11
HETATM   11  C   UNL     1      23.179  46.965  49.134  1.00  0.00     0.268 C 
HETATM   12  N   UNL     1      22.587  48.161  49.435  1.00  0.00    -0.365 N 
HETATM   13  H   UNL     1      22.888  48.670  50.260  1.00  0.00     0.159 HD
HETATM   14  H   UNL     1      21.861  48.529  48.839  1.00  0.00     0.159 HD
HETATM   15  O   UNL     1      22.860  46.309  48.151  1.00  0.00    -0.266 OA
ENDBRANCH   8  11
ENDBRANCH   2   5
BRANCH   1  16
HETATM   16  C   UNL     1      28.316  44.403  54.662  1.00  0.00     0.044 A 
HETATM   17  C   UNL     1      28.937  43.155  54.447  1.00  0.00    -0.045 A 
HETATM   18  C   UNL     1      30.142  42.875  55.110  1.00  0.00     0.014 A 
HETATM   19  C   UNL     1      28.364  42.132  53.503  1.00  0.00     0.049 C 
HETATM   20  C   UNL     1      30.722  43.808  55.976  1.00  0.00    -0.061 A 
HETATM   21  C   UNL     1      31.998  43.477  56.696  1.00  0.00     0.048 C 
HETATM   22  C   UNL     1      30.081  45.032  56.196  1.00  0.00     0.014 A 
HETATM   23  C   UNL     1      28.889  45.358  55.528  1.00  0.00    -0.045 A 
HETATM   24  C   UNL     1      28.269  46.706  55.770  1.00  0.00     0.049 C 
ENDBRANCH   1  16
TORSDOF 3
ENDMDL
MODEL 3
REMARK VINA RESULT:      -7.8      4.468      9.670
REMARK  3 active torsions:
REMARK  status: ('A' for Active; 'I' for Inactive)
REMARK    1  A    between atoms: C_6  and  C_7 
REMARK       I    between atoms: C_7  and  N_8 
REMARK    2  A    between atoms: N_8  and  C_9 
REMARK    3  A    between atoms: C_12  and  C_13 
REMARK       I    between atoms: C_13  and  N_14 
ROOT
HETATM    1  C   UNL     1      22.192  48.204  48.400  1.00  0.00     0.257 C 
HETATM    2  N   UNL     1      22.888  47.877  49.547  1.00  0.00    -0.322 N 
HETATM    3  O   UNL     1      22.319  47.703  47.292  1.00  0.00    -0.267 OA
HETATM    4  H   UNL     1      22.662  48.401  50.384  1.00  0.00     0.169 HD
ENDROOT
BRANCH   2   5
HETATM    5  C   UNL     1      23.884  46.887  49.665  1.00  0.00     0.052 A 
HETATM    6  C   UNL     1      23.679  45.519  49.478  1.00  0.00     0.147 A 
HETATM    7  N   UNL     1      24.652  44.577  49.584  1.00  0.00    -0.253 NA
HETATM    8  C   UNL     1      25.896  45.024  49.901  1.00  0.00     0.124 A 
HETATM    9  C   UNL     1      26.203  46.361  50.114  1.00  0.00     0.039 A 
HETATM   10  C   UNL     1      25.180  47.301  49.988  1.00  0.00     0.033 A 
BRANCH   8  11
HETATM   11  C   UNL     1      26.968  43.985  50.014  1.00  0.00     0.268 C 
HETATM   12  N   UNL     1      27.762  44.087  51.124  1.00  0.00    -0.365 N 
HETATM   13  H   UNL     1      27.592  44.835  51.789  1.00  0.00     0.159 HD
HETATM   14  H   UNL     1      28.505  43.422  51.276  1.00  0.00     0.159 HD
HETATM   15  O   UNL     1      27.124  43.102  49.180  1.00  0.00    -0.266 OA
ENDBRANCH   8  11
ENDBRANCH   2   5
BRANCH   1  16
HETATM   16  C   UNL     1      21.211  49.307  48.582  1.00  0.00     0.044 A 
HETATM   17  C   UNL     1      19.878  48.982  48.905  1.00  0.00    -0.045 A 
HETATM   18  C   UNL     1      18.955  50.021  49.099  1.00  0.00     0.014 A 
HETATM   19  C   UNL     1      19.426  47.556  49.081  1.00  0.00     0.049 C 
HETATM   20  C   UNL     1      19.339  51.360  48.971  1.00  0.00    -0.061 A 
HETATM   21  C   UNL     1      18.329  52.456  49.157  1.00  0.00     0.048 C 
HETATM   22  C   UNL     1      20.661  51.665  48.628  1.00  0.00     0.014 A 
HETATM   23  C   UNL     1      21.618  50.652  48.454  1.00  0.00    -0.045 A 
HETATM   24  C   UNL     1      23.034  51.042  48.130  1.00  0.00     0.049 C 
ENDBRANCH   1  16
TORSDOF 3
ENDMDL
MODEL 4
REMARK VINA RESULT:      -7.7      2.417      3.145
REMARK  3 active torsions:
REMARK  status: ('A' for Active; 'I' for Inactive)
REMARK    1  A    between atoms: C_6  and  C_7 
REMARK       I    between atoms: C_7  and  N_8 
REMARK    2  A    between atoms: N_8  and  C_9 
REMARK    3  A    between atoms: C_12  and  C_13 
REMARK       I    between atoms: C_13  and  N_14 
ROOT
HETATM    1  C   UNL     1      27.953  44.120  52.671  1.00  0.00     0.257 C 
HETATM    2  N   UNL     1      26.704  43.567  52.880  1.00  0.00    -0.322 N 
HETATM    3  O   UNL     1      28.391  44.577  51.625  1.00  0.00    -0.267 OA
HETATM    4  H   UNL     1      26.507  43.226  53.814  1.00  0.00     0.169 HD
ENDROOT
BRANCH   2   5
HETATM    5  C   UNL     1      25.682  43.429  51.921  1.00  0.00     0.052 A 
HETATM    6  C   UNL     1      24.582  44.279  51.796  1.00  0.00     0.147 A 
HETATM    7  N   UNL     1      23.609  44.139  50.858  1.00  0.00    -0.253 NA
HETATM    8  C   UNL     1      23.737  43.089  50.004  1.00  0.00     0.124 A 
HETATM    9  C   UNL     1      24.788  42.183  50.049  1.00  0.00     0.039 A 
HETATM   10  C   UNL     1      25.773  42.363  51.020  1.00  0.00     0.033 A 
BRANCH   8  11
HETATM   11  C   UNL     1      22.666  42.938  48.969  1.00  0.00     0.268 C 
HETATM   12  N   UNL     1      22.106  44.110  48.537  1.00  0.00    -0.365 N 
HETATM   13  H   UNL     1      22.432  44.989  48.927  1.00  0.00     0.159 HD
HETATM   14  H   UNL     1      21.380  44.095  47.837  1.00  0.00     0.159 HD
HETATM   15  O   UNL     1      22.316  41.850  48.531  1.00  0.00    -0.266 OA
ENDBRANCH   8  11
ENDBRANCH   2   5
BRANCH   1  16
HETATM   16  C   UNL     1      28.827  44.112  53.875  1.00  0.00     0.044 A 
HETATM   17  C   UNL     1      29.748  43.056  54.037  1.00  0.00    -0.045 A 
HETATM   18  C   UNL     1      30.588  43.057  55.160  1.00  0.00     0.014 A 
HETATM   19  C   UNL     1      29.878  41.950  53.023  1.00  0.00     0.049 C 
HETATM   20  C   UNL     1      30.518  44.079  56.113  1.00  0.00    -0.061 A 
HETATM   21  C   UNL     1      31.408  44.047  57.322  1.00  0.00     0.048 C 
HETATM   22  C   UNL     1      29.582  45.107  55.949  1.00  0.00     0.014 A 
HETATM   23  C   UNL     1      28.745  45.154  54.822  1.00  0.00    -0.045 A 
HETATM   24  C   UNL     1      27.790  46.307  54.677  1.00  0.00     0.049 C 
ENDBRANCH   1  16
TORSDOF 3
ENDMDL
MODEL 5
REMARK VINA RESULT:      -7.2     12.663     13.909
REMARK  3 active torsions:
REMARK  status: ('A' for Active; 'I' for Inactive)
REMARK    1  A    between atoms: C_6  and  C_7 
REMARK       I    between atoms: C_7  and  N_8 
REMARK    2  A    between atoms: N_8  and  C_9 
REMARK    3  A    between atoms: C_12  and  C_13 
REMARK       I    between atoms: C_13  and  N_14 
ROOT
HETATM    1  C   UNL     1      32.499  50.621  42.201  1.00  0.00     0.257 C 
HETATM    2  N   UNL     1      31.808  51.473  41.360  1.00  0.00    -0.322 N 
HETATM    3  O   UNL     1      32.185  49.483  42.516  1.00  0.00    -0.267 OA
HETATM    4  H   UNL     1      32.207  52.393  41.213  1.00  0.00     0.169 HD
ENDROOT
BRANCH   2   5
HETATM    5  C   UNL     1      30.600  51.188  40.693  1.00  0.00     0.052 A 
HETATM    6  C   UNL     1      30.488  50.413  39.537  1.00  0.00     0.147 A 
HETATM    7  N   UNL     1      29.315  50.137  38.910  1.00  0.00    -0.253 NA
HETATM    8  C   UNL     1      28.193  50.671  39.463  1.00  0.00     0.124 A 
HETATM    9  C   UNL     1      28.197  51.460  40.606  1.00  0.00     0.039 A 
HETATM   10  C   UNL     1      29.420  51.714  41.227  1.00  0.00     0.033 A 
BRANCH   8  11
HETATM   11  C   UNL     1      26.901  50.363  38.774  1.00  0.00     0.268 C 
HETATM   12  N   UNL     1      25.820  50.220  39.601  1.00  0.00    -0.365 N 
HETATM   13  H   UNL     1      25.944  50.324  40.603  1.00  0.00     0.159 HD
HETATM   14  H   UNL     1      24.911  50.016  39.213  1.00  0.00     0.159 HD
HETATM   15  O   UNL     1      26.809  50.253  37.558  1.00  0.00    -0.266 OA
ENDBRANCH   8  11
ENDBRANCH   2   5
BRANCH   1  16
HETATM   16  C   UNL     1      33.738  51.212  42.774  1.00  0.00     0.044 A 
HETATM   17  C   UNL     1      33.660  51.878  44.015  1.00  0.00    -0.045 A 
HETATM   18  C   UNL     1      34.831  52.417  44.568  1.00  0.00     0.014 A 
HETATM   19  C   UNL     1      32.367  51.994  44.776  1.00  0.00     0.049 C 
HETATM   20  C   UNL     1      36.059  52.308  43.905  1.00  0.00    -0.061 A 
HETATM   21  C   UNL     1      37.295  52.917  44.503  1.00  0.00     0.048 C 
HETATM   22  C   UNL     1      36.114  51.665  42.664  1.00  0.00     0.014 A 
HETATM   23  C   UNL     1      34.967  51.088  42.094  1.00  0.00    -0.045 A 
HETATM   24  C   UNL     1      35.096  50.370  40.778  1.00  0.00     0.049 C 
ENDBRANCH   1  16
TORSDOF 3
ENDMDL
MODEL 6
REMARK VINA RESULT:      -7.2      4.087      5.487
REMARK  3 active torsions:
REMARK  status: ('A' for Active; 'I' for Inactive)
REMARK    1  A    between atoms: C_6  and  C_7 
REMARK       I    between atoms: C_7  and  N_8 
REMARK    2  A    between atoms: N_8  and  C_9 
REMARK    3  A    between atoms: C_12  and  C_13 
REMARK       I    between atoms: C_13  and  N_14 
ROOT
HETATM    1  C   UNL     1      28.089  43.463  52.399  1.00  0.00     0.257 C 
HETATM    2  N   UNL     1      27.808  42.114  52.507  1.00  0.00    -0.322 N 
HETATM    3  O   UNL     1      28.105  44.134  51.378  1.00  0.00    -0.267 OA
HETATM    4  H   UNL     1      27.848  41.712  53.436  1.00  0.00     0.169 HD
ENDROOT
BRANCH   2   5
HETATM    5  C   UNL     1      27.475  41.245  51.449  1.00  0.00     0.052 A 
HETATM    6  C   UNL     1      28.315  40.258  50.930  1.00  0.00     0.147 A 
HETATM    7  N   UNL     1      27.978  39.419  49.917  1.00  0.00    -0.253 NA
HETATM    8  C   UNL     1      26.735  39.580  49.387  1.00  0.00     0.124 A 
HETATM    9  C   UNL     1      25.828  40.535  49.825  1.00  0.00     0.039 A 
HETATM   10  C   UNL     1      26.208  41.373  50.874  1.00  0.00     0.033 A 
BRANCH   8  11
HETATM   11  C   UNL     1      26.363  38.652  48.272  1.00  0.00     0.268 C 
HETATM   12  N   UNL     1      25.936  37.413  48.665  1.00  0.00    -0.365 N 
HETATM   13  H   UNL     1      25.896  37.193  49.656  1.00  0.00     0.159 HD
HETATM   14  H   UNL     1      25.662  36.731  47.975  1.00  0.00     0.159 HD
HETATM   15  O   UNL     1      26.428  38.975  47.093  1.00  0.00    -0.266 OA
ENDBRANCH   8  11
ENDBRANCH   2   5
BRANCH   1  16
HETATM   16  C   UNL     1      28.424  44.115  53.693  1.00  0.00     0.044 A 
HETATM   17  C   UNL     1      29.628  43.763  54.338  1.00  0.00    -0.045 A 
HETATM   18  C   UNL     1      29.958  44.392  55.548  1.00  0.00     0.014 A 
HETATM   19  C   UNL     1      30.584  42.761  53.747  1.00  0.00     0.049 C 
HETATM   20  C   UNL     1      29.110  45.348  56.118  1.00  0.00    -0.061 A 
HETATM   21  C   UNL     1      29.469  45.990  57.427  1.00  0.00     0.048 C 
HETATM   22  C   UNL     1      27.908  45.669  55.477  1.00  0.00     0.014 A 
HETATM   23  C   UNL     1      27.560  45.081  54.250  1.00  0.00    -0.045 A 
HETATM   24  C   UNL     1      26.276  45.497  53.586  1.00  0.00     0.049 C 
ENDBRANCH   1  16
TORSDOF 3
ENDMDL
MODEL 7
REMARK VINA RESULT:      -7.0      4.079      6.186
REMARK  3 active torsions:
REMARK  status: ('A' for Active; 'I' for Inactive)
REMARK    1  A    between atoms: C_6  and  C_7 
REMARK       I    between atoms: C_7  and  N_8 
REMARK    2  A    between atoms: N_8  and  C_9 
REMARK    3  A    between atoms: C_12  and  C_13 
REMARK       I    between atoms: C_13  and  N_14 
ROOT
HETATM    1  C   UNL     1      27.254  44.089  51.689  1.00  0.00     0.257 C 
HETATM    2  N   UNL     1      26.853  42.829  52.088  1.00  0.00    -0.322 N 
HETATM    3  O   UNL     1      27.763  44.397  50.621  1.00  0.00    -0.267 OA
HETATM    4  H   UNL     1      26.455  42.749  53.016  1.00  0.00     0.169 HD
ENDROOT
BRANCH   2   5
HETATM    5  C   UNL     1      26.948  41.645  51.331  1.00  0.00     0.052 A 
HETATM    6  C   UNL     1      25.911  41.091  50.578  1.00  0.00     0.147 A 
HETATM    7  N   UNL     1      26.021  39.954  49.843  1.00  0.00    -0.253 NA
HETATM    8  C   UNL     1      27.229  39.330  49.868  1.00  0.00     0.124 A 
HETATM    9  C   UNL     1      28.320  39.795  50.590  1.00  0.00     0.039 A 
HETATM   10  C   UNL     1      28.173  40.971  51.325  1.00  0.00     0.033 A 
BRANCH   8  11
HETATM   11  C   UNL     1      27.350  38.079  49.056  1.00  0.00     0.268 C 
HETATM   12  N   UNL     1      28.569  37.460  49.118  1.00  0.00    -0.365 N 
HETATM   13  H   UNL     1      29.303  37.866  49.689  1.00  0.00     0.159 HD
HETATM   14  H   UNL     1      28.729  36.609  48.601  1.00  0.00     0.159 HD
HETATM   15  O   UNL     1      26.426  37.633  48.386  1.00  0.00    -0.266 OA
ENDBRANCH   8  11
ENDBRANCH   2   5
BRANCH   1  16
HETATM   16  C   UNL     1      27.042  45.144  52.716  1.00  0.00     0.044 A 
HETATM   17  C   UNL     1      26.014  46.089  52.515  1.00  0.00    -0.045 A 
HETATM   18  C   UNL     1      25.798  47.072  53.492  1.00  0.00     0.014 A 
HETATM   19  C   UNL     1      25.124  46.051  51.302  1.00  0.00     0.049 C 
HETATM   20  C   UNL     1      26.586  47.127  54.647  1.00  0.00    -0.061 A 
HETATM   21  C   UNL     1      26.354  48.204  55.668  1.00  0.00     0.048 C 
HETATM   22  C   UNL     1      27.616  46.196  54.820  1.00  0.00     0.014 A 
HETATM   23  C   UNL     1      27.843  45.181  53.877  1.00  0.00    -0.045 A 
HETATM   24  C   UNL     1      28.936  44.181  54.137  1.00  0.00     0.049 C 
ENDBRANCH   1  16
TORSDOF 3
ENDMDL
MODEL 8
REMARK VINA RESULT:      -6.9     16.252     17.816
REMARK  3 active torsions:
REMARK  status: ('A' for Active; 'I' for Inactive)
REMARK    1  A    between atoms: C_6  and  C_7 
REMARK       I    between atoms: C_7  and  N_8 
REMARK    2  A    between atoms: N_8  and  C_9 
REMARK    3  A    between atoms: C_12  and  C_13 
REMARK       I    between atoms: C_13  and  N_14 
ROOT
HETATM    1  C   UNL     1      38.909  45.810  65.696  1.00  0.00     0.257 C 
HETATM    2  N   UNL     1      38.889  45.317  64.406  1.00  0.00    -0.322 N 
HETATM    3  O   UNL     1      39.088  45.175  66.725  1.00  0.00    -0.267 OA
HETATM    4  H   UNL     1      38.717  45.985  63.664  1.00  0.00     0.169 HD
ENDROOT
BRANCH   2   5
HETATM    5  C   UNL     1      39.080  43.974  64.023  1.00  0.00     0.052 A 
HETATM    6  C   UNL     1      40.272  43.263  64.167  1.00  0.00     0.147 A 
HETATM    7  N   UNL     1      40.439  41.965  63.804  1.00  0.00    -0.253 NA
HETATM    8  C   UNL     1      39.358  41.345  63.258  1.00  0.00     0.124 A 
HETATM    9  C   UNL     1      38.131  41.965  63.065  1.00  0.00     0.039 A 
HETATM   10  C   UNL     1      37.995  43.297  63.459  1.00  0.00     0.033 A 
BRANCH   8  11
HETATM   11  C   UNL     1      39.542  39.914  62.861  1.00  0.00     0.268 C 
HETATM   12  N   UNL     1      39.510  39.675  61.514  1.00  0.00    -0.365 N 
HETATM   13  H   UNL     1      39.367  40.452  60.876  1.00  0.00     0.159 HD
HETATM   14  H   UNL     1      39.631  38.737  61.164  1.00  0.00     0.159 HD
HETATM   15  O   UNL     1      39.715  39.018  63.677  1.00  0.00    -0.266 OA
ENDBRANCH   8  11
ENDBRANCH   2   5
BRANCH   1  16
HETATM   16  C   UNL     1      38.657  47.273  65.788  1.00  0.00     0.044 A 
HETATM   17  C   UNL     1      37.336  47.722  65.991  1.00  0.00    -0.045 A 
HETATM   18  C   UNL     1      37.097  49.100  66.099  1.00  0.00     0.014 A 
HETATM   19  C   UNL     1      36.182  46.765  66.130  1.00  0.00     0.049 C 
HETATM   20  C   UNL     1      38.145  50.023  66.002  1.00  0.00    -0.061 A 
HETATM   21  C   UNL     1      37.865  51.495  66.093  1.00  0.00     0.048 C 
HETATM   22  C   UNL     1      39.447  49.562  65.777  1.00  0.00     0.014 A 
HETATM   23  C   UNL     1      39.727  48.188  65.692  1.00  0.00    -0.045 A 
HETATM   24  C   UNL     1      41.152  47.750  65.494  1.00  0.00     0.049 C 
ENDBRANCH   1  16
TORSDOF 3
ENDMDL
MODEL 9
REMARK VINA RESULT:      -6.9      4.907      8.031
REMARK  3 active torsions:
REMARK  status: ('A' for Active; 'I' for Inactive)
REMARK    1  A    between atoms: C_6  and  C_7 
REMARK       I    between atoms: C_7  and  N_8 
REMARK    2  A    between atoms: N_8  and  C_9 
REMARK    3  A    between atoms: C_12  and  C_13 
REMARK       I    between atoms: C_13  and  N_14 
ROOT
HETATM    1  C   UNL     1      22.589  48.145  48.577  1.00  0.00     0.257 C 
HETATM    2  N   UNL     1      21.952  48.807  49.609  1.00  0.00    -0.322 N 
HETATM    3  O   UNL     1      22.283  48.156  47.394  1.00  0.00    -0.267 OA
HETATM    4  H   UNL     1      22.336  48.681  50.538  1.00  0.00     0.169 HD
ENDROOT
BRANCH   2   5
HETATM    5  C   UNL     1      20.819  49.636  49.494  1.00  0.00     0.052 A 
HETATM    6  C   UNL     1      19.526  49.281  49.881  1.00  0.00     0.147 A 
HETATM    7  N   UNL     1      18.443  50.095  49.775  1.00  0.00    -0.253 NA
HETATM    8  C   UNL     1      18.663  51.328  49.244  1.00  0.00     0.124 A 
HETATM    9  C   UNL     1      19.908  51.774  48.822  1.00  0.00     0.039 A 
HETATM   10  C   UNL     1      20.997  50.914  48.955  1.00  0.00     0.033 A 
BRANCH   8  11
HETATM   11  C   UNL     1      17.470  52.225  49.131  1.00  0.00     0.268 C 
HETATM   12  N   UNL     1      17.124  52.574  47.854  1.00  0.00    -0.365 N 
HETATM   13  H   UNL     1      17.675  52.222  47.077  1.00  0.00     0.159 HD
HETATM   14  H   UNL     1      16.329  53.173  47.692  1.00  0.00     0.159 HD
HETATM   15  O   UNL     1      16.841  52.617  50.106  1.00  0.00    -0.266 OA
ENDBRANCH   8  11
ENDBRANCH   2   5
BRANCH   1  16
HETATM   16  C   UNL     1      23.753  47.327  49.011  1.00  0.00     0.044 A 
HETATM   17  C   UNL     1      23.574  45.942  49.204  1.00  0.00    -0.045 A 
HETATM   18  C   UNL     1      24.675  45.164  49.593  1.00  0.00     0.014 A 
HETATM   19  C   UNL     1      22.247  45.270  48.971  1.00  0.00     0.049 C 
HETATM   20  C   UNL     1      25.933  45.744  49.796  1.00  0.00    -0.061 A 
HETATM   21  C   UNL     1      27.092  44.898  50.238  1.00  0.00     0.048 C 
HETATM   22  C   UNL     1      26.088  47.124  49.622  1.00  0.00     0.014 A 
HETATM   23  C   UNL     1      25.015  47.929  49.205  1.00  0.00    -0.045 A 
HETATM   24  C   UNL     1      25.252  49.399  48.993  1.00  0.00     0.049 C 
ENDBRANCH   1  16
TORSDOF 3
ENDMDL
MODEL 10
REMARK VINA RESULT:      -6.8     14.355     16.099
REMARK  3 active torsions:
REMARK  status: ('A' for Active; 'I' for Inactive)
REMARK    1  A    between atoms: C_6  and  C_7 
REMARK       I    between atoms: C_7  and  N_8 
REMARK    2  A    between atoms: N_8  and  C_9 
REMARK    3  A    between atoms: C_12  and  C_13 
REMARK       I    between atoms: C_13  and  N_14 
ROOT
HETATM    1  C   UNL     1      30.223  49.947  38.997  1.00  0.00     0.257 C 
HETATM    2  N   UNL     1      30.455  50.111  40.349  1.00  0.00    -0.322 N 
HETATM    3  O   UNL     1      31.028  50.090  38.088  1.00  0.00    -0.267 OA
HETATM    4  H   UNL     1      29.668  49.960  40.969  1.00  0.00     0.169 HD
ENDROOT
BRANCH   2   5
HETATM    5  C   UNL     1      31.678  50.473  40.947  1.00  0.00     0.052 A 
HETATM    6  C   UNL     1      31.939  51.704  41.553  1.00  0.00     0.147 A 
HETATM    7  N   UNL     1      33.120  52.035  42.137  1.00  0.00    -0.253 NA
HETATM    8  C   UNL     1      34.097  51.089  42.106  1.00  0.00     0.124 A 
HETATM    9  C   UNL     1      33.941  49.840  41.523  1.00  0.00     0.039 A 
HETATM   10  C   UNL     1      32.711  49.532  40.941  1.00  0.00     0.033 A 
BRANCH   8  11
HETATM   11  C   UNL     1      35.396  51.455  42.752  1.00  0.00     0.268 C 
HETATM   12  N   UNL     1      36.362  50.486  42.705  1.00  0.00    -0.365 N 
HETATM   13  H   UNL     1      36.155  49.601  42.253  1.00  0.00     0.159 HD
HETATM   14  H   UNL     1      37.268  50.656  43.114  1.00  0.00     0.159 HD
HETATM   15  O   UNL     1      35.590  52.542  43.281  1.00  0.00    -0.266 OA
ENDBRANCH   8  11
ENDBRANCH   2   5
BRANCH   1  16
HETATM   16  C   UNL     1      28.821  49.578  38.665  1.00  0.00     0.044 A 
HETATM   17  C   UNL     1      27.884  50.608  38.440  1.00  0.00    -0.045 A 
HETATM   18  C   UNL     1      26.565  50.264  38.106  1.00  0.00     0.014 A 
HETATM   19  C   UNL     1      28.266  52.062  38.514  1.00  0.00     0.049 C 
HETATM   20  C   UNL     1      26.174  48.924  38.001  1.00  0.00    -0.061 A 
HETATM   21  C   UNL     1      24.752  48.577  37.668  1.00  0.00     0.048 C 
HETATM   22  C   UNL     1      27.111  47.914  38.250  1.00  0.00     0.014 A 
HETATM   23  C   UNL     1      28.446  48.222  38.558  1.00  0.00    -0.045 A 
HETATM   24  C   UNL     1      29.418  47.095  38.772  1.00  0.00     0.049 C 
ENDBRANCH   1  16
TORSDOF 3
ENDMDL
