MODEL 1
REMARK VINA RESULT:     -12.0      0.000      0.000
REMARK  6 active torsions:
REMARK  status: ('A' for Active; 'I' for Inactive)
REMARK    1  A    between atoms: C_11  and  N_12 
REMARK       I    between atoms: N_12  and  C_13 
REMARK    2  A    between atoms: C_13  and  C_14 
REMARK    3  A    between atoms: N_15  and  C_17 
REMARK    4  A    between atoms: C_17  and  C_18 
REMARK    5  A    between atoms: C_26  and  S_27 
REMARK    6  A    between atoms: S_27  and  C_28 
ROOT
HETATM    1  C   UNL     1      27.349  44.133  50.838  1.00  0.00     0.281 C 
HETATM    2  N   UNL     1      27.882  43.556  52.190  1.00  0.00    -0.053 N 
HETATM    3  H   UNL     1      28.910  43.591  52.128  1.00  0.00     0.281 HD
HETATM    4  C   UNL     1      27.480  42.095  52.238  1.00  0.00     0.252 C 
HETATM    5  C   UNL     1      27.366  41.704  50.775  1.00  0.00     0.083 C 
HETATM    6  C   UNL     1      26.680  42.922  50.174  1.00  0.00     0.060 C 
ENDROOT
BRANCH   1   7
HETATM    7  C   UNL     1      26.418  45.372  50.911  1.00  0.00     0.253 C 
HETATM    8  N   UNL     1      26.586  46.292  49.888  1.00  0.00    -0.325 N 
HETATM    9  H   UNL     1      27.331  46.158  49.215  1.00  0.00     0.169 HD
HETATM   10  O   UNL     1      25.638  45.502  51.851  1.00  0.00    -0.271 OA
BRANCH   8  11
HETATM   11  C   UNL     1      25.769  47.420  49.621  1.00  0.00     0.036 A 
HETATM   12  C   UNL     1      24.382  47.443  49.783  1.00  0.00     0.059 A 
HETATM   13  C   UNL     1      23.599  48.566  49.435  1.00  0.00     0.041 A 
HETATM   14  N   UNL     1      22.207  48.444  49.588  1.00  0.00    -0.355 N 
HETATM   15  C   UNL     1      24.242  49.680  48.890  1.00  0.00    -0.031 A 
HETATM   16  C   UNL     1      21.088  49.075  49.014  1.00  0.00     0.039 A 
HETATM   17  H   UNL     1      21.949  47.737  50.268  1.00  0.00     0.166 HD
HETATM   18  C   UNL     1      21.136  50.042  47.999  1.00  0.00    -0.031 A 
HETATM   19  C   UNL     1      19.820  48.663  49.480  1.00  0.00     0.030 A 
HETATM   20  C   UNL     1      19.929  50.527  47.448  1.00  0.00     0.009 A 
HETATM   21  C   UNL     1      22.421  50.571  47.416  1.00  0.00     0.045 C 
HETATM   22  C   UNL     1      18.690  50.094  47.916  1.00  0.00     0.001 A 
HETATM   23  C   UNL     1      18.635  49.166  48.942  1.00  0.00     0.002 A 
HETATM   24  C   UNL     1      23.475  50.904  48.466  1.00  0.00     0.045 C 
HETATM   25  C   UNL     1      25.642  49.678  48.761  1.00  0.00     0.012 A 
HETATM   26  C   UNL     1      26.397  48.560  49.124  1.00  0.00     0.030 A 
ENDBRANCH   8  11
ENDBRANCH   1   7
BRANCH   2  27
HETATM   27  C   UNL     1      27.573  44.301  53.472  1.00  0.00     0.277 C 
BRANCH  27  28
HETATM   28  C   UNL     1      28.736  44.339  54.426  1.00  0.00     0.006 A 
HETATM   29  C   UNL     1      28.958  45.482  55.199  1.00  0.00     0.124 A 
HETATM   30  F   UNL     1      28.146  46.538  55.041  1.00  0.00    -0.206 F 
HETATM   31  C   UNL     1      30.021  45.565  56.090  1.00  0.00     0.043 A 
HETATM   32  C   UNL     1      30.892  44.485  56.215  1.00  0.00     0.003 A 
HETATM   33  C   UNL     1      30.692  43.334  55.449  1.00  0.00     0.001 A 
HETATM   34  C   UNL     1      29.617  43.257  54.559  1.00  0.00     0.012 A 
ENDBRANCH  27  28
ENDBRANCH   2  27
BRANCH   5  35
HETATM   35  S   UNL     1      26.364  40.217  50.486  1.00  0.00    -0.084 SA
BRANCH  35  36
HETATM   36  C   UNL     1      27.465  39.285  49.451  1.00  0.00     0.188 A 
HETATM   37  N   UNL     1      28.690  38.997  49.922  1.00  0.00    -0.235 NA
HETATM   38  C   UNL     1      29.481  38.274  49.100  1.00  0.00     0.121 A 
HETATM   39  C   UNL     1      29.078  37.808  47.871  1.00  0.00     0.038 A 
HETATM   40  C   UNL     1      27.794  38.134  47.507  1.00  0.00     0.121 A 
HETATM   41  N   UNL     1      26.969  38.860  48.282  1.00  0.00    -0.235 NA
ENDBRANCH  35  36
ENDBRANCH   5  35
TORSDOF 6
ENDMDL
MODEL 2
REMARK VINA RESULT:     -11.4      1.493      1.894
REMARK  6 active torsions:
REMARK  status: ('A' for Active; 'I' for Inactive)
REMARK    1  A    between atoms: C_11  and  N_12 
REMARK       I    between atoms: N_12  and  C_13 
REMARK    2  A    between atoms: C_13  and  C_14 
REMARK    3  A    between atoms: N_15  and  C_17 
REMARK    4  A    between atoms: C_17  and  C_18 
REMARK    5  A    between atoms: C_26  and  S_27 
REMARK    6  A    between atoms: S_27  and  C_28 
ROOT
HETATM    1  C   UNL     1      27.098  43.929  50.393  1.00  0.00     0.281 C 
HETATM    2  N   UNL     1      27.254  43.324  51.827  1.00  0.00    -0.053 N 
HETATM    3  H   UNL     1      28.217  43.541  52.123  1.00  0.00     0.281 HD
HETATM    4  C   UNL     1      27.150  41.818  51.687  1.00  0.00     0.252 C 
HETATM    5  C   UNL     1      27.605  41.556  50.261  1.00  0.00     0.083 C 
HETATM    6  C   UNL     1      26.934  42.691  49.501  1.00  0.00     0.060 C 
ENDROOT
BRANCH   1   7
HETATM    7  C   UNL     1      25.974  44.978  50.183  1.00  0.00     0.253 C 
HETATM    8  N   UNL     1      26.407  46.292  50.101  1.00  0.00    -0.325 N 
HETATM    9  H   UNL     1      27.385  46.505  50.256  1.00  0.00     0.169 HD
HETATM   10  O   UNL     1      24.799  44.623  50.142  1.00  0.00    -0.271 OA
BRANCH   8  11
HETATM   11  C   UNL     1      25.623  47.422  49.754  1.00  0.00     0.036 A 
HETATM   12  C   UNL     1      24.238  47.499  49.916  1.00  0.00     0.059 A 
HETATM   13  C   UNL     1      23.488  48.616  49.488  1.00  0.00     0.041 A 
HETATM   14  N   UNL     1      22.094  48.548  49.652  1.00  0.00    -0.355 N 
HETATM   15  C   UNL     1      24.162  49.668  48.861  1.00  0.00    -0.031 A 
HETATM   16  C   UNL     1      20.992  49.170  49.036  1.00  0.00     0.039 A 
HETATM   17  H   UNL     1      21.817  47.902  50.383  1.00  0.00     0.166 HD
HETATM   18  C   UNL     1      21.065  50.057  47.953  1.00  0.00    -0.031 A 
HETATM   19  C   UNL     1      19.714  48.831  49.534  1.00  0.00     0.030 A 
HETATM   20  C   UNL     1      19.870  50.537  47.370  1.00  0.00     0.009 A 
HETATM   21  C   UNL     1      22.363  50.503  47.329  1.00  0.00     0.045 C 
HETATM   22  C   UNL     1      18.622  50.178  47.871  1.00  0.00     0.001 A 
HETATM   23  C   UNL     1      18.543  49.330  48.962  1.00  0.00     0.002 A 
HETATM   24  C   UNL     1      23.431  50.880  48.350  1.00  0.00     0.045 C 
HETATM   25  C   UNL     1      25.561  49.613  48.730  1.00  0.00     0.012 A 
HETATM   26  C   UNL     1      26.283  48.503  49.173  1.00  0.00     0.030 A 
ENDBRANCH   8  11
ENDBRANCH   1   7
BRANCH   2  27
HETATM   27  C   UNL     1      26.400  43.878  52.948  1.00  0.00     0.277 C 
BRANCH  27  28
HETATM   28  C   UNL     1      27.125  44.887  53.797  1.00  0.00     0.006 A 
HETATM   29  C   UNL     1      26.639  46.195  53.879  1.00  0.00     0.124 A 
HETATM   30  F   UNL     1      25.554  46.529  53.164  1.00  0.00    -0.206 F 
HETATM   31  C   UNL     1      27.276  47.163  54.646  1.00  0.00     0.043 A 
HETATM   32  C   UNL     1      28.431  46.825  55.348  1.00  0.00     0.003 A 
HETATM   33  C   UNL     1      28.936  45.525  55.276  1.00  0.00     0.001 A 
HETATM   34  C   UNL     1      28.287  44.557  54.507  1.00  0.00     0.012 A 
ENDBRANCH  27  28
ENDBRANCH   2  27
BRANCH   5  35
HETATM   35  S   UNL     1      27.063  39.955  49.597  1.00  0.00    -0.084 SA
BRANCH  35  36
HETATM   36  C   UNL     1      27.051  40.317  47.859  1.00  0.00     0.188 A 
HETATM   37  N   UNL     1      28.215  40.631  47.266  1.00  0.00    -0.235 NA
HETATM   38  C   UNL     1      28.151  40.882  45.941  1.00  0.00     0.121 A 
HETATM   39  C   UNL     1      26.994  40.792  45.203  1.00  0.00     0.038 A 
HETATM   40  C   UNL     1      25.871  40.431  45.907  1.00  0.00     0.121 A 
HETATM   41  N   UNL     1      25.877  40.179  47.229  1.00  0.00    -0.235 NA
ENDBRANCH  35  36
ENDBRANCH   5  35
TORSDOF 6
ENDMDL
MODEL 3
REMARK VINA RESULT:     -11.4      4.251     11.367
REMARK  6 active torsions:
REMARK  status: ('A' for Active; 'I' for Inactive)
REMARK    1  A    between atoms: C_11  and  N_12 
REMARK       I    between atoms: N_12  and  C_13 
REMARK    2  A    between atoms: C_13  and  C_14 
REMARK    3  A    between atoms: N_15  and  C_17 
REMARK    4  A    between atoms: C_17  and  C_18 
REMARK    5  A    between atoms: C_26  and  S_27 
REMARK    6  A    between atoms: S_27  and  C_28 
ROOT
HETATM    1  C   UNL     1      23.711  48.666  48.848  1.00  0.00     0.281 C 
HETATM    2  N   UNL     1      22.427  48.013  48.240  1.00  0.00    -0.053 N 
HETATM    3  H   UNL     1      22.437  48.249  47.237  1.00  0.00     0.281 HD
HETATM    4  C   UNL     1      21.236  48.718  48.859  1.00  0.00     0.252 C 
HETATM    5  C   UNL     1      21.778  50.088  49.227  1.00  0.00     0.083 C 
HETATM    6  C   UNL     1      23.152  49.746  49.784  1.00  0.00     0.060 C 
ENDROOT
BRANCH   1   7
HETATM    7  C   UNL     1      24.722  47.722  49.552  1.00  0.00     0.253 C 
HETATM    8  N   UNL     1      24.306  47.229  50.779  1.00  0.00    -0.325 N 
HETATM    9  H   UNL     1      23.435  47.557  51.178  1.00  0.00     0.169 HD
HETATM   10  O   UNL     1      25.814  47.494  49.038  1.00  0.00    -0.271 OA
BRANCH   8  11
HETATM   11  C   UNL     1      24.952  46.232  51.553  1.00  0.00     0.036 A 
HETATM   12  C   UNL     1      25.862  46.498  52.579  1.00  0.00     0.059 A 
HETATM   13  C   UNL     1      26.538  45.472  53.276  1.00  0.00     0.041 A 
HETATM   14  N   UNL     1      27.474  45.870  54.245  1.00  0.00    -0.355 N 
HETATM   15  C   UNL     1      26.297  44.147  52.904  1.00  0.00    -0.031 A 
HETATM   16  C   UNL     1      28.605  45.275  54.834  1.00  0.00     0.039 A 
HETATM   17  H   UNL     1      27.294  46.802  54.604  1.00  0.00     0.166 HD
HETATM   18  C   UNL     1      29.133  44.023  54.489  1.00  0.00    -0.031 A 
HETATM   19  C   UNL     1      29.276  46.030  55.822  1.00  0.00     0.030 A 
HETATM   20  C   UNL     1      30.331  43.585  55.096  1.00  0.00     0.009 A 
HETATM   21  C   UNL     1      28.514  43.117  53.455  1.00  0.00     0.045 C 
HETATM   22  C   UNL     1      30.981  44.354  56.058  1.00  0.00     0.001 A 
HETATM   23  C   UNL     1      30.447  45.576  56.429  1.00  0.00     0.002 A 
HETATM   24  C   UNL     1      26.999  42.998  53.577  1.00  0.00     0.045 C 
HETATM   25  C   UNL     1      25.352  43.871  51.899  1.00  0.00     0.012 A 
HETATM   26  C   UNL     1      24.687  44.902  51.233  1.00  0.00     0.030 A 
ENDBRANCH   8  11
ENDBRANCH   1   7
BRANCH   2  27
HETATM   27  C   UNL     1      22.300  46.504  48.253  1.00  0.00     0.277 C 
BRANCH  27  28
HETATM   28  C   UNL     1      21.157  46.002  47.413  1.00  0.00     0.006 A 
HETATM   29  C   UNL     1      20.145  45.243  48.007  1.00  0.00     0.124 A 
HETATM   30  F   UNL     1      20.241  44.945  49.312  1.00  0.00    -0.206 F 
HETATM   31  C   UNL     1      19.073  44.754  47.271  1.00  0.00     0.043 A 
HETATM   32  C   UNL     1      19.003  45.022  45.907  1.00  0.00     0.003 A 
HETATM   33  C   UNL     1      20.006  45.776  45.291  1.00  0.00     0.001 A 
HETATM   34  C   UNL     1      21.078  46.268  46.039  1.00  0.00     0.012 A 
ENDBRANCH  27  28
ENDBRANCH   2  27
BRANCH   5  35
HETATM   35  S   UNL     1      20.795  50.957  50.483  1.00  0.00    -0.084 SA
BRANCH  35  36
HETATM   36  C   UNL     1      19.319  51.297  49.556  1.00  0.00     0.188 A 
HETATM   37  N   UNL     1      18.133  51.019  50.124  1.00  0.00    -0.235 NA
HETATM   38  C   UNL     1      17.043  51.311  49.382  1.00  0.00     0.121 A 
HETATM   39  C   UNL     1      17.102  51.893  48.138  1.00  0.00     0.038 A 
HETATM   40  C   UNL     1      18.366  52.164  47.671  1.00  0.00     0.121 A 
HETATM   41  N   UNL     1      19.485  51.885  48.365  1.00  0.00    -0.235 NA
ENDBRANCH  35  36
ENDBRANCH   5  35
TORSDOF 6
ENDMDL
MODEL 4
REMARK VINA RESULT:     -11.0      3.246     10.167
REMARK  6 active torsions:
REMARK  status: ('A' for Active; 'I' for Inactive)
REMARK    1  A    between atoms: C_11  and  N_12 
REMARK       I    between atoms: N_12  and  C_13 
REMARK    2  A    between atoms: C_13  and  C_14 
REMARK    3  A    between atoms: N_15  and  C_17 
REMARK    4  A    between atoms: C_17  and  C_18 
REMARK    5  A    between atoms: C_26  and  S_27 
REMARK    6  A    between atoms: S_27  and  C_28 
ROOT
HETATM    1  C   UNL     1      23.842  44.951  48.499  1.00  0.00     0.281 C 
HETATM    2  N   UNL     1      22.949  44.081  47.555  1.00  0.00    -0.053 N 
HETATM    3  H   UNL     1      23.420  44.083  46.638  1.00  0.00     0.281 HD
HETATM    4  C   UNL     1      21.632  44.815  47.390  1.00  0.00     0.252 C 
HETATM    5  C   UNL     1      21.998  46.270  47.625  1.00  0.00     0.083 C 
HETATM    6  C   UNL     1      22.959  46.169  48.800  1.00  0.00     0.060 C 
ENDROOT
BRANCH   1   7
HETATM    7  C   UNL     1      24.391  44.272  49.781  1.00  0.00     0.253 C 
HETATM    8  N   UNL     1      25.753  44.015  49.770  1.00  0.00    -0.325 N 
HETATM    9  H   UNL     1      26.289  44.201  48.930  1.00  0.00     0.169 HD
HETATM   10  O   UNL     1      23.627  43.965  50.693  1.00  0.00    -0.271 OA
BRANCH   8  11
HETATM   11  C   UNL     1      26.538  43.557  50.859  1.00  0.00     0.036 A 
HETATM   12  C   UNL     1      26.731  44.269  52.045  1.00  0.00     0.059 A 
HETATM   13  C   UNL     1      27.581  43.807  53.074  1.00  0.00     0.041 A 
HETATM   14  N   UNL     1      27.740  44.644  54.192  1.00  0.00    -0.355 N 
HETATM   15  C   UNL     1      28.264  42.604  52.881  1.00  0.00    -0.031 A 
HETATM   16  C   UNL     1      28.731  44.801  55.179  1.00  0.00     0.039 A 
HETATM   17  H   UNL     1      26.963  45.283  54.316  1.00  0.00     0.166 HD
HETATM   18  C   UNL     1      29.946  44.104  55.224  1.00  0.00    -0.031 A 
HETATM   19  C   UNL     1      28.484  45.772  56.175  1.00  0.00     0.030 A 
HETATM   20  C   UNL     1      30.893  44.427  56.221  1.00  0.00     0.009 A 
HETATM   21  C   UNL     1      30.333  43.042  54.226  1.00  0.00     0.045 C 
HETATM   22  C   UNL     1      30.632  45.398  57.185  1.00  0.00     0.001 A 
HETATM   23  C   UNL     1      29.419  46.067  57.168  1.00  0.00     0.002 A 
HETATM   24  C   UNL     1      29.209  42.058  53.918  1.00  0.00     0.045 C 
HETATM   25  C   UNL     1      28.042  41.862  51.707  1.00  0.00     0.012 A 
HETATM   26  C   UNL     1      27.188  42.333  50.708  1.00  0.00     0.030 A 
ENDBRANCH   8  11
ENDBRANCH   1   7
BRANCH   2  27
HETATM   27  C   UNL     1      22.776  42.609  47.867  1.00  0.00     0.277 C 
BRANCH  27  28
HETATM   28  C   UNL     1      23.846  41.748  47.254  1.00  0.00     0.006 A 
HETATM   29  C   UNL     1      24.640  40.945  48.077  1.00  0.00     0.124 A 
HETATM   30  F   UNL     1      24.454  40.994  49.405  1.00  0.00    -0.206 F 
HETATM   31  C   UNL     1      25.644  40.136  47.558  1.00  0.00     0.043 A 
HETATM   32  C   UNL     1      25.869  40.126  46.183  1.00  0.00     0.003 A 
HETATM   33  C   UNL     1      25.089  40.924  45.343  1.00  0.00     0.001 A 
HETATM   34  C   UNL     1      24.079  41.731  45.872  1.00  0.00     0.012 A 
ENDBRANCH  27  28
ENDBRANCH   2  27
BRANCH   5  35
HETATM   35  S   UNL     1      20.585  47.324  48.063  1.00  0.00    -0.084 SA
BRANCH  35  36
HETATM   36  C   UNL     1      21.415  48.864  48.366  1.00  0.00     0.188 A 
HETATM   37  N   UNL     1      21.033  49.594  49.428  1.00  0.00    -0.235 NA
HETATM   38  C   UNL     1      21.707  50.748  49.621  1.00  0.00     0.121 A 
HETATM   39  C   UNL     1      22.750  51.162  48.828  1.00  0.00     0.038 A 
HETATM   40  C   UNL     1      23.076  50.321  47.792  1.00  0.00     0.121 A 
HETATM   41  N   UNL     1      22.432  49.165  47.549  1.00  0.00    -0.235 NA
ENDBRANCH  35  36
ENDBRANCH   5  35
TORSDOF 6
ENDMDL
MODEL 5
REMARK VINA RESULT:     -10.9      2.023      3.127
REMARK  6 active torsions:
REMARK  status: ('A' for Active; 'I' for Inactive)
REMARK    1  A    between atoms: C_11  and  N_12 
REMARK       I    between atoms: N_12  and  C_13 
REMARK    2  A    between atoms: C_13  and  C_14 
REMARK    3  A    between atoms: N_15  and  C_17 
REMARK    4  A    between atoms: C_17  and  C_18 
REMARK    5  A    between atoms: C_26  and  S_27 
REMARK    6  A    between atoms: S_27  and  C_28 
ROOT
HETATM    1  C   UNL     1      26.123  44.428  49.816  1.00  0.00     0.281 C 
HETATM    2  N   UNL     1      26.455  43.988  51.279  1.00  0.00    -0.053 N 
HETATM    3  H   UNL     1      27.436  44.257  51.441  1.00  0.00     0.281 HD
HETATM    4  C   UNL     1      26.390  42.473  51.312  1.00  0.00     0.252 C 
HETATM    5  C   UNL     1      26.696  42.068  49.880  1.00  0.00     0.083 C 
HETATM    6  C   UNL     1      25.907  43.098  49.084  1.00  0.00     0.060 C 
ENDROOT
BRANCH   1   7
HETATM    7  C   UNL     1      24.947  45.422  49.623  1.00  0.00     0.253 C 
HETATM    8  N   UNL     1      23.846  44.903  48.959  1.00  0.00    -0.325 N 
HETATM    9  H   UNL     1      23.891  43.966  48.576  1.00  0.00     0.169 HD
HETATM   10  O   UNL     1      25.050  46.583  50.010  1.00  0.00    -0.271 OA
BRANCH   8  11
HETATM   11  C   UNL     1      22.585  45.531  48.791  1.00  0.00     0.036 A 
HETATM   12  C   UNL     1      22.409  46.902  48.592  1.00  0.00     0.059 A 
HETATM   13  C   UNL     1      21.130  47.494  48.503  1.00  0.00     0.041 A 
HETATM   14  N   UNL     1      21.084  48.892  48.363  1.00  0.00    -0.355 N 
HETATM   15  C   UNL     1      20.007  46.674  48.642  1.00  0.00    -0.031 A 
HETATM   16  C   UNL     1      20.129  49.885  48.648  1.00  0.00     0.039 A 
HETATM   17  H   UNL     1      21.935  49.274  47.966  1.00  0.00     0.166 HD
HETATM   18  C   UNL     1      18.887  49.663  49.261  1.00  0.00    -0.031 A 
HETATM   19  C   UNL     1      20.480  51.214  48.320  1.00  0.00     0.030 A 
HETATM   20  C   UNL     1      18.062  50.766  49.573  1.00  0.00     0.009 A 
HETATM   21  C   UNL     1      18.390  48.296  49.659  1.00  0.00     0.045 C 
HETATM   22  C   UNL     1      18.437  52.068  49.252  1.00  0.00     0.001 A 
HETATM   23  C   UNL     1      19.645  52.293  48.615  1.00  0.00     0.002 A 
HETATM   24  C   UNL     1      18.610  47.233  48.588  1.00  0.00     0.045 C 
HETATM   25  C   UNL     1      20.178  45.288  48.802  1.00  0.00     0.012 A 
HETATM   26  C   UNL     1      21.453  44.723  48.875  1.00  0.00     0.030 A 
ENDBRANCH   8  11
ENDBRANCH   1   7
BRANCH   2  27
HETATM   27  C   UNL     1      25.709  44.640  52.424  1.00  0.00     0.277 C 
BRANCH  27  28
HETATM   28  C   UNL     1      26.616  45.370  53.378  1.00  0.00     0.006 A 
HETATM   29  C   UNL     1      26.386  46.721  53.652  1.00  0.00     0.124 A 
HETATM   30  F   UNL     1      25.379  47.347  53.024  1.00  0.00    -0.206 F 
HETATM   31  C   UNL     1      27.199  47.437  54.522  1.00  0.00     0.043 A 
HETATM   32  C   UNL     1      28.273  46.797  55.134  1.00  0.00     0.003 A 
HETATM   33  C   UNL     1      28.525  45.449  54.871  1.00  0.00     0.001 A 
HETATM   34  C   UNL     1      27.700  44.734  53.999  1.00  0.00     0.012 A 
ENDBRANCH  27  28
ENDBRANCH   2  27
BRANCH   5  35
HETATM   35  S   UNL     1      26.142  40.392  49.454  1.00  0.00    -0.084 SA
BRANCH  35  36
HETATM   36  C   UNL     1      27.687  39.519  49.512  1.00  0.00     0.188 A 
HETATM   37  N   UNL     1      28.397  39.557  50.653  1.00  0.00    -0.235 NA
HETATM   38  C   UNL     1      29.556  38.864  50.648  1.00  0.00     0.121 A 
HETATM   39  C   UNL     1      29.995  38.122  49.577  1.00  0.00     0.038 A 
HETATM   40  C   UNL     1      29.172  38.129  48.476  1.00  0.00     0.121 A 
HETATM   41  N   UNL     1      28.013  38.809  48.425  1.00  0.00    -0.235 NA
ENDBRANCH  35  36
ENDBRANCH   5  35
TORSDOF 6
ENDMDL
MODEL 6
REMARK VINA RESULT:     -10.7      3.875      9.199
REMARK  6 active torsions:
REMARK  status: ('A' for Active; 'I' for Inactive)
REMARK    1  A    between atoms: C_11  and  N_12 
REMARK       I    between atoms: N_12  and  C_13 
REMARK    2  A    between atoms: C_13  and  C_14 
REMARK    3  A    between atoms: N_15  and  C_17 
REMARK    4  A    between atoms: C_17  and  C_18 
REMARK    5  A    between atoms: C_26  and  S_27 
REMARK    6  A    between atoms: S_27  and  C_28 
ROOT
HETATM    1  C   UNL     1      23.309  43.630  49.437  1.00  0.00     0.281 C 
HETATM    2  N   UNL     1      22.406  44.370  48.398  1.00  0.00    -0.053 N 
HETATM    3  H   UNL     1      21.456  44.371  48.797  1.00  0.00     0.281 HD
HETATM    4  C   UNL     1      22.372  43.512  47.149  1.00  0.00     0.252 C 
HETATM    5  C   UNL     1      22.632  42.108  47.668  1.00  0.00     0.083 C 
HETATM    6  C   UNL     1      23.724  42.350  48.700  1.00  0.00     0.060 C 
ENDROOT
BRANCH   1   7
HETATM    7  C   UNL     1      24.519  44.414  50.013  1.00  0.00     0.253 C 
HETATM    8  N   UNL     1      24.388  44.803  51.337  1.00  0.00    -0.325 N 
HETATM    9  H   UNL     1      23.514  44.636  51.821  1.00  0.00     0.169 HD
HETATM   10  O   UNL     1      25.479  44.682  49.295  1.00  0.00    -0.271 OA
BRANCH   8  11
HETATM   11  C   UNL     1      25.393  45.382  52.153  1.00  0.00     0.036 A 
HETATM   12  C   UNL     1      26.515  44.698  52.625  1.00  0.00     0.059 A 
HETATM   13  C   UNL     1      27.453  45.294  53.496  1.00  0.00     0.041 A 
HETATM   14  N   UNL     1      28.506  44.482  53.950  1.00  0.00    -0.355 N 
HETATM   15  C   UNL     1      27.231  46.609  53.911  1.00  0.00    -0.031 A 
HETATM   16  C   UNL     1      29.359  44.498  55.069  1.00  0.00     0.039 A 
HETATM   17  H   UNL     1      28.696  43.704  53.328  1.00  0.00     0.166 HD
HETATM   18  C   UNL     1      29.287  45.415  56.128  1.00  0.00    -0.031 A 
HETATM   19  C   UNL     1      30.335  43.480  55.137  1.00  0.00     0.030 A 
HETATM   20  C   UNL     1      30.148  45.259  57.237  1.00  0.00     0.009 A 
HETATM   21  C   UNL     1      28.296  46.550  56.179  1.00  0.00     0.045 C 
HETATM   22  C   UNL     1      31.093  44.238  57.287  1.00  0.00     0.001 A 
HETATM   23  C   UNL     1      31.194  43.351  56.229  1.00  0.00     0.002 A 
HETATM   24  C   UNL     1      28.168  47.306  54.861  1.00  0.00     0.045 C 
HETATM   25  C   UNL     1      26.125  47.317  53.408  1.00  0.00     0.012 A 
HETATM   26  C   UNL     1      25.217  46.710  52.537  1.00  0.00     0.030 A 
ENDBRANCH   8  11
ENDBRANCH   1   7
BRANCH   2  27
HETATM   27  C   UNL     1      22.675  45.832  48.108  1.00  0.00     0.277 C 
BRANCH  27  28
HETATM   28  C   UNL     1      21.527  46.728  48.484  1.00  0.00     0.006 A 
HETATM   29  C   UNL     1      21.774  48.062  48.820  1.00  0.00     0.124 A 
HETATM   30  F   UNL     1      23.042  48.501  48.837  1.00  0.00    -0.206 F 
HETATM   31  C   UNL     1      20.746  48.927  49.178  1.00  0.00     0.043 A 
HETATM   32  C   UNL     1      19.437  48.454  49.208  1.00  0.00     0.003 A 
HETATM   33  C   UNL     1      19.168  47.123  48.879  1.00  0.00     0.001 A 
HETATM   34  C   UNL     1      20.206  46.262  48.516  1.00  0.00     0.012 A 
ENDBRANCH  27  28
ENDBRANCH   2  27
BRANCH   5  35
HETATM   35  S   UNL     1      23.218  40.949  46.400  1.00  0.00    -0.084 SA
BRANCH  35  36
HETATM   36  C   UNL     1      21.853  39.813  46.348  1.00  0.00     0.188 A 
HETATM   37  N   UNL     1      21.755  38.985  45.294  1.00  0.00    -0.235 NA
HETATM   38  C   UNL     1      20.708  38.132  45.312  1.00  0.00     0.121 A 
HETATM   39  C   UNL     1      19.803  38.059  46.345  1.00  0.00     0.038 A 
HETATM   40  C   UNL     1      20.021  38.930  47.385  1.00  0.00     0.121 A 
HETATM   41  N   UNL     1      21.042  39.806  47.413  1.00  0.00    -0.235 NA
ENDBRANCH  35  36
ENDBRANCH   5  35
TORSDOF 6
ENDMDL
MODEL 7
REMARK VINA RESULT:     -10.6      2.698      5.948
REMARK  6 active torsions:
REMARK  status: ('A' for Active; 'I' for Inactive)
REMARK    1  A    between atoms: C_11  and  N_12 
REMARK       I    between atoms: N_12  and  C_13 
REMARK    2  A    between atoms: C_13  and  C_14 
REMARK    3  A    between atoms: N_15  and  C_17 
REMARK    4  A    between atoms: C_17  and  C_18 
REMARK    5  A    between atoms: C_26  and  S_27 
REMARK    6  A    between atoms: S_27  and  C_28 
ROOT
HETATM    1  C   UNL     1      26.035  43.446  52.677  1.00  0.00     0.281 C 
HETATM    2  N   UNL     1      27.420  43.062  52.061  1.00  0.00    -0.053 N 
HETATM    3  H   UNL     1      27.619  42.105  52.385  1.00  0.00     0.281 HD
HETATM    4  C   UNL     1      28.453  43.977  52.688  1.00  0.00     0.252 C 
HETATM    5  C   UNL     1      27.842  44.346  54.029  1.00  0.00     0.083 C 
HETATM    6  C   UNL     1      26.383  44.571  53.661  1.00  0.00     0.060 C 
ENDROOT
BRANCH   1   7
HETATM    7  C   UNL     1      24.902  43.835  51.691  1.00  0.00     0.253 C 
HETATM    8  N   UNL     1      25.017  45.100  51.137  1.00  0.00    -0.325 N 
HETATM    9  H   UNL     1      25.759  45.715  51.449  1.00  0.00     0.169 HD
HETATM   10  O   UNL     1      23.971  43.060  51.484  1.00  0.00    -0.271 OA
BRANCH   8  11
HETATM   11  C   UNL     1      24.222  45.644  50.096  1.00  0.00     0.036 A 
HETATM   12  C   UNL     1      23.817  46.979  50.031  1.00  0.00     0.059 A 
HETATM   13  C   UNL     1      22.963  47.461  49.014  1.00  0.00     0.041 A 
HETATM   14  N   UNL     1      22.578  48.811  49.093  1.00  0.00    -0.355 N 
HETATM   15  C   UNL     1      22.495  46.558  48.056  1.00  0.00    -0.031 A 
HETATM   16  C   UNL     1      21.493  49.562  48.604  1.00  0.00     0.039 A 
HETATM   17  H   UNL     1      23.233  49.374  49.624  1.00  0.00     0.166 HD
HETATM   18  C   UNL     1      20.402  49.040  47.895  1.00  0.00    -0.031 A 
HETATM   19  C   UNL     1      21.498  50.944  48.894  1.00  0.00     0.030 A 
HETATM   20  C   UNL     1      19.333  49.894  47.544  1.00  0.00     0.009 A 
HETATM   21  C   UNL     1      20.274  47.586  47.518  1.00  0.00     0.045 C 
HETATM   22  C   UNL     1      19.354  51.252  47.853  1.00  0.00     0.001 A 
HETATM   23  C   UNL     1      20.445  51.781  48.523  1.00  0.00     0.002 A 
HETATM   24  C   UNL     1      21.559  46.987  46.958  1.00  0.00     0.045 C 
HETATM   25  C   UNL     1      22.932  45.222  48.093  1.00  0.00     0.012 A 
HETATM   26  C   UNL     1      23.786  44.771  49.102  1.00  0.00     0.030 A 
ENDBRANCH   8  11
ENDBRANCH   1   7
BRANCH   2  27
HETATM   27  C   UNL     1      27.546  42.966  50.555  1.00  0.00     0.277 C 
BRANCH  27  28
HETATM   28  C   UNL     1      27.393  41.560  50.040  1.00  0.00     0.006 A 
HETATM   29  C   UNL     1      26.362  41.262  49.145  1.00  0.00     0.124 A 
HETATM   30  F   UNL     1      25.505  42.233  48.797  1.00  0.00    -0.206 F 
HETATM   31  C   UNL     1      26.178  39.978  48.646  1.00  0.00     0.043 A 
HETATM   32  C   UNL     1      27.039  38.960  49.049  1.00  0.00     0.003 A 
HETATM   33  C   UNL     1      28.074  39.235  49.946  1.00  0.00     0.001 A 
HETATM   34  C   UNL     1      28.255  40.530  50.439  1.00  0.00     0.012 A 
ENDBRANCH  27  28
ENDBRANCH   2  27
BRANCH   5  35
HETATM   35  S   UNL     1      28.538  45.852  54.767  1.00  0.00    -0.084 SA
BRANCH  35  36
HETATM   36  C   UNL     1      29.698  45.143  55.910  1.00  0.00     0.188 A 
HETATM   37  N   UNL     1      29.803  45.693  57.132  1.00  0.00    -0.235 NA
HETATM   38  C   UNL     1      30.688  45.106  57.966  1.00  0.00     0.121 A 
HETATM   39  C   UNL     1      31.422  43.991  57.636  1.00  0.00     0.038 A 
HETATM   40  C   UNL     1      31.208  43.495  56.373  1.00  0.00     0.121 A 
HETATM   41  N   UNL     1      30.346  44.047  55.499  1.00  0.00    -0.235 NA
ENDBRANCH  35  36
ENDBRANCH   5  35
TORSDOF 6
ENDMDL
MODEL 8
REMARK VINA RESULT:     -10.5      2.858      5.759
REMARK  6 active torsions:
REMARK  status: ('A' for Active; 'I' for Inactive)
REMARK    1  A    between atoms: C_11  and  N_12 
REMARK       I    between atoms: N_12  and  C_13 
REMARK    2  A    between atoms: C_13  and  C_14 
REMARK    3  A    between atoms: N_15  and  C_17 
REMARK    4  A    between atoms: C_17  and  C_18 
REMARK    5  A    between atoms: C_26  and  S_27 
REMARK    6  A    between atoms: S_27  and  C_28 
ROOT
HETATM    1  C   UNL     1      25.169  44.436  49.203  1.00  0.00     0.281 C 
HETATM    2  N   UNL     1      26.231  45.317  49.939  1.00  0.00    -0.053 N 
HETATM    3  H   UNL     1      26.858  45.677  49.205  1.00  0.00     0.281 HD
HETATM    4  C   UNL     1      27.046  44.388  50.817  1.00  0.00     0.252 C 
HETATM    5  C   UNL     1      26.937  43.043  50.119  1.00  0.00     0.083 C 
HETATM    6  C   UNL     1      25.472  43.019  49.707  1.00  0.00     0.060 C 
ENDROOT
BRANCH   1   7
HETATM    7  C   UNL     1      23.678  44.831  49.374  1.00  0.00     0.253 C 
HETATM    8  N   UNL     1      23.138  45.548  48.317  1.00  0.00    -0.325 N 
HETATM    9  H   UNL     1      23.737  45.837  47.554  1.00  0.00     0.169 HD
HETATM   10  O   UNL     1      23.078  44.543  50.406  1.00  0.00    -0.271 OA
BRANCH   8  11
HETATM   11  C   UNL     1      21.774  45.892  48.138  1.00  0.00     0.036 A 
HETATM   12  C   UNL     1      21.325  47.159  47.757  1.00  0.00     0.059 A 
HETATM   13  C   UNL     1      19.953  47.478  47.661  1.00  0.00     0.041 A 
HETATM   14  N   UNL     1      19.629  48.804  47.328  1.00  0.00    -0.355 N 
HETATM   15  C   UNL     1      19.018  46.491  47.982  1.00  0.00    -0.031 A 
HETATM   16  C   UNL     1      18.507  49.630  47.525  1.00  0.00     0.039 A 
HETATM   17  H   UNL     1      20.376  49.276  46.830  1.00  0.00     0.166 HD
HETATM   18  C   UNL     1      17.353  49.271  48.237  1.00  0.00    -0.031 A 
HETATM   19  C   UNL     1      18.580  50.936  46.991  1.00  0.00     0.030 A 
HETATM   20  C   UNL     1      16.337  50.232  48.438  1.00  0.00     0.009 A 
HETATM   21  C   UNL     1      17.146  47.911  48.853  1.00  0.00     0.045 C 
HETATM   22  C   UNL     1      16.438  51.518  47.913  1.00  0.00     0.001 A 
HETATM   23  C   UNL     1      17.559  51.869  47.179  1.00  0.00     0.002 A 
HETATM   24  C   UNL     1      17.538  46.760  47.934  1.00  0.00     0.045 C 
HETATM   25  C   UNL     1      19.463  45.202  48.327  1.00  0.00     0.012 A 
HETATM   26  C   UNL     1      20.825  44.906  48.403  1.00  0.00     0.030 A 
ENDBRANCH   8  11
ENDBRANCH   1   7
BRANCH   2  27
HETATM   27  C   UNL     1      25.769  46.565  50.661  1.00  0.00     0.277 C 
BRANCH  27  28
HETATM   28  C   UNL     1      25.891  47.809  49.824  1.00  0.00     0.006 A 
HETATM   29  C   UNL     1      24.745  48.545  49.510  1.00  0.00     0.124 A 
HETATM   30  F   UNL     1      23.553  48.097  49.932  1.00  0.00    -0.206 F 
HETATM   31  C   UNL     1      24.808  49.697  48.736  1.00  0.00     0.043 A 
HETATM   32  C   UNL     1      26.041  50.131  48.257  1.00  0.00     0.003 A 
HETATM   33  C   UNL     1      27.199  49.409  48.556  1.00  0.00     0.001 A 
HETATM   34  C   UNL     1      27.128  48.253  49.338  1.00  0.00     0.012 A 
ENDBRANCH  27  28
ENDBRANCH   2  27
BRANCH   5  35
HETATM   35  S   UNL     1      27.308  41.624  51.190  1.00  0.00    -0.084 SA
BRANCH  35  36
HETATM   36  C   UNL     1      28.164  42.438  52.516  1.00  0.00     0.188 A 
HETATM   37  N   UNL     1      27.436  42.963  53.516  1.00  0.00    -0.235 NA
HETATM   38  C   UNL     1      28.137  43.557  54.505  1.00  0.00     0.121 A 
HETATM   39  C   UNL     1      29.511  43.605  54.542  1.00  0.00     0.038 A 
HETATM   40  C   UNL     1      30.152  43.007  53.484  1.00  0.00     0.121 A 
HETATM   41  N   UNL     1      29.502  42.410  52.468  1.00  0.00    -0.235 NA
ENDBRANCH  35  36
ENDBRANCH   5  35
TORSDOF 6
ENDMDL
MODEL 9
REMARK VINA RESULT:     -10.2      2.322      9.596
REMARK  6 active torsions:
REMARK  status: ('A' for Active; 'I' for Inactive)
REMARK    1  A    between atoms: C_11  and  N_12 
REMARK       I    between atoms: N_12  and  C_13 
REMARK    2  A    between atoms: C_13  and  C_14 
REMARK    3  A    between atoms: N_15  and  C_17 
REMARK    4  A    between atoms: C_17  and  C_18 
REMARK    5  A    between atoms: C_26  and  S_27 
REMARK    6  A    between atoms: S_27  and  C_28 
ROOT
HETATM    1  C   UNL     1      24.713  45.008  51.178  1.00  0.00     0.281 C 
HETATM    2  N   UNL     1      25.653  45.788  52.154  1.00  0.00    -0.053 N 
HETATM    3  H   UNL     1      25.077  46.022  52.975  1.00  0.00     0.281 HD
HETATM    4  C   UNL     1      26.019  47.091  51.470  1.00  0.00     0.252 C 
HETATM    5  C   UNL     1      24.853  47.346  50.531  1.00  0.00     0.083 C 
HETATM    6  C   UNL     1      24.583  45.954  49.977  1.00  0.00     0.060 C 
ENDROOT
BRANCH   1   7
HETATM    7  C   UNL     1      25.144  43.574  50.771  1.00  0.00     0.253 C 
HETATM    8  N   UNL     1      26.389  43.485  50.168  1.00  0.00    -0.325 N 
HETATM    9  H   UNL     1      26.902  44.333  49.956  1.00  0.00     0.169 HD
HETATM   10  O   UNL     1      24.384  42.626  50.954  1.00  0.00    -0.271 OA
BRANCH   8  11
HETATM   11  C   UNL     1      27.092  42.296  49.847  1.00  0.00     0.036 A 
HETATM   12  C   UNL     1      27.233  41.789  48.553  1.00  0.00     0.059 A 
HETATM   13  C   UNL     1      27.879  40.562  48.288  1.00  0.00     0.041 A 
HETATM   14  N   UNL     1      27.902  40.130  46.951  1.00  0.00    -0.355 N 
HETATM   15  C   UNL     1      28.373  39.825  49.367  1.00  0.00    -0.031 A 
HETATM   16  C   UNL     1      28.031  38.882  46.314  1.00  0.00     0.039 A 
HETATM   17  H   UNL     1      27.801  40.894  46.291  1.00  0.00     0.166 HD
HETATM   18  C   UNL     1      28.119  37.645  46.969  1.00  0.00    -0.031 A 
HETATM   19  C   UNL     1      28.032  38.888  44.902  1.00  0.00     0.030 A 
HETATM   20  C   UNL     1      28.151  36.458  46.204  1.00  0.00     0.009 A 
HETATM   21  C   UNL     1      28.132  37.498  48.470  1.00  0.00     0.045 C 
HETATM   22  C   UNL     1      28.137  36.489  44.812  1.00  0.00     0.001 A 
HETATM   23  C   UNL     1      28.086  37.708  44.158  1.00  0.00     0.002 A 
HETATM   24  C   UNL     1      29.048  38.494  49.171  1.00  0.00     0.045 C 
HETATM   25  C   UNL     1      28.270  40.349  50.668  1.00  0.00     0.012 A 
HETATM   26  C   UNL     1      27.638  41.571  50.905  1.00  0.00     0.030 A 
ENDBRANCH   8  11
ENDBRANCH   1   7
BRANCH   2  27
HETATM   27  C   UNL     1      26.848  45.070  52.746  1.00  0.00     0.277 C 
BRANCH  27  28
HETATM   28  C   UNL     1      27.328  45.687  54.031  1.00  0.00     0.006 A 
HETATM   29  C   UNL     1      28.371  45.082  54.739  1.00  0.00     0.124 A 
HETATM   30  F   UNL     1      28.893  43.938  54.271  1.00  0.00    -0.206 F 
HETATM   31  C   UNL     1      28.845  45.612  55.933  1.00  0.00     0.043 A 
HETATM   32  C   UNL     1      28.266  46.772  56.441  1.00  0.00     0.003 A 
HETATM   33  C   UNL     1      27.220  47.391  55.752  1.00  0.00     0.001 A 
HETATM   34  C   UNL     1      26.752  46.854  54.550  1.00  0.00     0.012 A 
ENDBRANCH  27  28
ENDBRANCH   2  27
BRANCH   5  35
HETATM   35  S   UNL     1      25.235  48.493  49.176  1.00  0.00    -0.084 SA
BRANCH  35  36
HETATM   36  C   UNL     1      23.629  49.193  48.886  1.00  0.00     0.188 A 
HETATM   37  N   UNL     1      23.297  50.317  49.545  1.00  0.00    -0.235 NA
HETATM   38  C   UNL     1      22.071  50.815  49.276  1.00  0.00     0.121 A 
HETATM   39  C   UNL     1      21.206  50.259  48.363  1.00  0.00     0.038 A 
HETATM   40  C   UNL     1      21.664  49.132  47.725  1.00  0.00     0.121 A 
HETATM   41  N   UNL     1      22.873  48.589  47.962  1.00  0.00    -0.235 NA
ENDBRANCH  35  36
ENDBRANCH   5  35
TORSDOF 6
ENDMDL
MODEL 10
REMARK VINA RESULT:     -10.1      2.094      2.937
REMARK  6 active torsions:
REMARK  status: ('A' for Active; 'I' for Inactive)
REMARK    1  A    between atoms: C_11  and  N_12 
REMARK       I    between atoms: N_12  and  C_13 
REMARK    2  A    between atoms: C_13  and  C_14 
REMARK    3  A    between atoms: N_15  and  C_17 
REMARK    4  A    between atoms: C_17  and  C_18 
REMARK    5  A    between atoms: C_26  and  S_27 
REMARK    6  A    between atoms: S_27  and  C_28 
ROOT
HETATM    1  C   UNL     1      25.033  44.743  49.366  1.00  0.00     0.281 C 
HETATM    2  N   UNL     1      25.550  44.212  50.743  1.00  0.00    -0.053 N 
HETATM    3  H   UNL     1      26.525  44.536  50.824  1.00  0.00     0.281 HD
HETATM    4  C   UNL     1      25.581  42.699  50.652  1.00  0.00     0.252 C 
HETATM    5  C   UNL     1      25.752  42.430  49.167  1.00  0.00     0.083 C 
HETATM    6  C   UNL     1      24.819  43.462  48.549  1.00  0.00     0.060 C 
ENDROOT
BRANCH   1   7
HETATM    7  C   UNL     1      23.784  45.663  49.383  1.00  0.00     0.253 C 
HETATM    8  N   UNL     1      24.058  47.022  49.349  1.00  0.00    -0.325 N 
HETATM    9  H   UNL     1      25.019  47.338  49.394  1.00  0.00     0.169 HD
HETATM   10  O   UNL     1      22.660  45.176  49.465  1.00  0.00    -0.271 OA
BRANCH   8  11
HETATM   11  C   UNL     1      23.117  48.071  49.193  1.00  0.00     0.036 A 
HETATM   12  C   UNL     1      21.731  47.894  49.199  1.00  0.00     0.059 A 
HETATM   13  C   UNL     1      20.832  48.958  48.967  1.00  0.00     0.041 A 
HETATM   14  N   UNL     1      19.464  48.640  48.938  1.00  0.00    -0.355 N 
HETATM   15  C   UNL     1      21.357  50.225  48.701  1.00  0.00    -0.031 A 
HETATM   16  C   UNL     1      18.322  49.226  48.361  1.00  0.00     0.039 A 
HETATM   17  H   UNL     1      19.248  47.792  49.450  1.00  0.00     0.166 HD
HETATM   18  C   UNL     1      18.322  50.365  47.543  1.00  0.00    -0.031 A 
HETATM   19  C   UNL     1      17.088  48.581  48.602  1.00  0.00     0.030 A 
HETATM   20  C   UNL     1      17.113  50.794  46.953  1.00  0.00     0.009 A 
HETATM   21  C   UNL     1      19.567  51.148  47.210  1.00  0.00     0.045 C 
HETATM   22  C   UNL     1      15.911  50.133  47.194  1.00  0.00     0.001 A 
HETATM   23  C   UNL     1      15.897  49.028  48.029  1.00  0.00     0.002 A 
HETATM   24  C   UNL     1      20.466  51.404  48.414  1.00  0.00     0.045 C 
HETATM   25  C   UNL     1      22.749  50.418  48.733  1.00  0.00     0.012 A 
HETATM   26  C   UNL     1      23.619  49.353  48.977  1.00  0.00     0.030 A 
ENDBRANCH   8  11
ENDBRANCH   1   7
BRANCH   2  27
HETATM   27  C   UNL     1      24.896  44.719  52.012  1.00  0.00     0.277 C 
BRANCH  27  28
HETATM   28  C   UNL     1      25.873  45.350  52.967  1.00  0.00     0.006 A 
HETATM   29  C   UNL     1      25.860  46.735  53.152  1.00  0.00     0.124 A 
HETATM   30  F   UNL     1      24.998  47.475  52.440  1.00  0.00    -0.206 F 
HETATM   31  C   UNL     1      26.746  47.363  54.020  1.00  0.00     0.043 A 
HETATM   32  C   UNL     1      27.674  46.595  54.719  1.00  0.00     0.003 A 
HETATM   33  C   UNL     1      27.708  45.210  54.546  1.00  0.00     0.001 A 
HETATM   34  C   UNL     1      26.810  44.586  53.675  1.00  0.00     0.012 A 
ENDBRANCH  27  28
ENDBRANCH   2  27
BRANCH   5  35
HETATM   35  S   UNL     1      25.258  40.758  48.659  1.00  0.00    -0.084 SA
BRANCH  35  36
HETATM   36  C   UNL     1      26.791  39.890  48.878  1.00  0.00     0.188 A 
HETATM   37  N   UNL     1      26.745  38.615  49.301  1.00  0.00    -0.235 NA
HETATM   38  C   UNL     1      27.938  37.997  49.437  1.00  0.00     0.121 A 
HETATM   39  C   UNL     1      29.141  38.589  49.132  1.00  0.00     0.038 A 
HETATM   40  C   UNL     1      29.065  39.883  48.677  1.00  0.00     0.121 A 
HETATM   41  N   UNL     1      27.904  40.548  48.533  1.00  0.00    -0.235 NA
ENDBRANCH  35  36
ENDBRANCH   5  35
TORSDOF 6
ENDMDL
