MODEL 1
REMARK VINA RESULT:      -8.9      0.000      0.000
REMARK  4 active torsions:
REMARK  status: ('A' for Active; 'I' for Inactive)
REMARK    1  A    between atoms: O_2  and  C_3 
REMARK    2  A    between atoms: C_6  and  C_7 
REMARK    3  A    between atoms: C_9  and  N_10 
REMARK       I    between atoms: N_10  and  C_11 
REMARK    4  A    between atoms: C_11  and  C_12 
ROOT
HETATM    1  C   UNL     1      27.311  44.210  53.298  1.00  0.00     0.173 A 
HETATM    2  N   UNL     1      26.766  45.271  52.728  1.00  0.00    -0.041 NA
HETATM    3  C   UNL     1      25.701  44.766  52.030  1.00  0.00     0.748 A 
HETATM    4  N   UNL     1      25.554  43.448  52.136  1.00  0.00     0.021 NA
HETATM    5  N   UNL     1      26.573  43.118  52.932  1.00  0.00    -0.244 N 
HETATM    6  H   UNL     1      26.688  42.150  53.204  1.00  0.00     0.191 HD
ENDROOT
BRANCH   3   7
HETATM    7  N   UNL     1      24.925  45.650  51.334  1.00  0.00    -0.150 N 
HETATM    8  C   UNL     1      24.785  45.668  49.966  1.00  0.00     0.270 C 
HETATM    9  O   UNL     1      25.352  44.933  49.165  1.00  0.00    -0.267 OA
HETATM   10  H   UNL     1      24.476  46.324  51.930  1.00  0.00     0.188 HD
BRANCH   8  11
HETATM   11  C   UNL     1      23.862  46.711  49.415  1.00  0.00     0.035 A 
HETATM   12  C   UNL     1      23.961  48.069  49.746  1.00  0.00     0.056 A 
HETATM   13  C   UNL     1      23.064  48.986  49.194  1.00  0.00     0.103 A 
HETATM   14  C   UNL     1      22.036  48.553  48.349  1.00  0.00     0.102 A 
HETATM   15  O   UNL     1      23.244  50.302  49.540  1.00  0.00    -0.346 OA
HETATM   16  O   UNL     1      21.100  49.396  47.810  1.00  0.00    -0.346 OA
HETATM   17  C   UNL     1      21.931  47.207  48.018  1.00  0.00     0.040 A 
HETATM   18  C   UNL     1      21.087  50.661  48.482  1.00  0.00     0.202 C 
HETATM   19  C   UNL     1      22.504  51.175  48.677  1.00  0.00     0.202 C 
HETATM   20  C   UNL     1      22.838  46.289  48.551  1.00  0.00     0.020 A 
ENDBRANCH   8  11
ENDBRANCH   3   7
BRANCH   1  21
HETATM   21  C   UNL     1      28.459  44.176  54.202  1.00  0.00     0.012 A 
HETATM   22  C   UNL     1      28.658  45.229  55.104  1.00  0.00     0.018 A 
HETATM   23  C   UNL     1      29.726  45.206  56.008  1.00  0.00     0.037 A 
HETATM   24  C   UNL     1      30.616  44.133  56.029  1.00  0.00     0.068 A 
HETATM   25  C   UNL     1      30.445  43.092  55.118  1.00  0.00     0.037 A 
HETATM   26  C   UNL     1      29.375  43.114  54.212  1.00  0.00     0.018 A 
BRANCH  24  27
HETATM   27  O   UNL     1      31.604  44.223  56.969  1.00  0.00    -0.356 OA
HETATM   28  C   UNL     1      31.248  44.792  58.223  1.00  0.00     0.210 C 
ENDBRANCH  24  27
ENDBRANCH   1  21
TORSDOF 4
ENDMDL
MODEL 2
REMARK VINA RESULT:      -8.8      1.024      1.561
REMARK  4 active torsions:
REMARK  status: ('A' for Active; 'I' for Inactive)
REMARK    1  A    between atoms: O_2  and  C_3 
REMARK    2  A    between atoms: C_6  and  C_7 
REMARK    3  A    between atoms: C_9  and  N_10 
REMARK       I    between atoms: N_10  and  C_11 
REMARK    4  A    between atoms: C_11  and  C_12 
ROOT
HETATM    1  C   UNL     1      26.879  44.438  53.111  1.00  0.00     0.173 A 
HETATM    2  N   UNL     1      26.459  45.536  52.508  1.00  0.00    -0.041 NA
HETATM    3  C   UNL     1      25.257  45.177  51.957  1.00  0.00     0.748 A 
HETATM    4  N   UNL     1      24.908  43.914  52.186  1.00  0.00     0.021 NA
HETATM    5  N   UNL     1      25.937  43.467  52.909  1.00  0.00    -0.244 N 
HETATM    6  H   UNL     1      25.919  42.514  53.249  1.00  0.00     0.191 HD
ENDROOT
BRANCH   3   7
HETATM    7  N   UNL     1      24.567  46.133  51.265  1.00  0.00    -0.150 N 
HETATM    8  C   UNL     1      24.891  46.582  50.008  1.00  0.00     0.270 C 
HETATM    9  O   UNL     1      25.853  46.232  49.332  1.00  0.00    -0.267 OA
HETATM   10  H   UNL     1      23.796  46.509  51.790  1.00  0.00     0.188 HD
BRANCH   8  11
HETATM   11  C   UNL     1      23.981  47.620  49.427  1.00  0.00     0.035 A 
HETATM   12  C   UNL     1      22.609  47.411  49.238  1.00  0.00     0.056 A 
HETATM   13  C   UNL     1      21.821  48.426  48.689  1.00  0.00     0.103 A 
HETATM   14  C   UNL     1      22.399  49.634  48.283  1.00  0.00     0.102 A 
HETATM   15  O   UNL     1      20.480  48.159  48.564  1.00  0.00    -0.346 OA
HETATM   16  O   UNL     1      21.688  50.650  47.700  1.00  0.00    -0.346 OA
HETATM   17  C   UNL     1      23.761  49.847  48.467  1.00  0.00     0.040 A 
HETATM   18  C   UNL     1      20.408  50.198  47.246  1.00  0.00     0.202 C 
HETATM   19  C   UNL     1      19.730  49.354  48.314  1.00  0.00     0.202 C 
HETATM   20  C   UNL     1      24.549  48.843  49.034  1.00  0.00     0.020 A 
ENDBRANCH   8  11
ENDBRANCH   3   7
BRANCH   1  21
HETATM   21  C   UNL     1      28.096  44.267  53.904  1.00  0.00     0.012 A 
HETATM   22  C   UNL     1      28.436  45.231  54.861  1.00  0.00     0.018 A 
HETATM   23  C   UNL     1      29.573  45.075  55.662  1.00  0.00     0.037 A 
HETATM   24  C   UNL     1      30.393  43.956  55.521  1.00  0.00     0.068 A 
HETATM   25  C   UNL     1      30.079  43.003  54.554  1.00  0.00     0.037 A 
HETATM   26  C   UNL     1      28.940  43.158  53.752  1.00  0.00     0.018 A 
BRANCH  24  27
HETATM   27  O   UNL     1      31.461  43.915  56.373  1.00  0.00    -0.356 OA
HETATM   28  C   UNL     1      31.214  44.259  57.731  1.00  0.00     0.210 C 
ENDBRANCH  24  27
ENDBRANCH   1  21
TORSDOF 4
ENDMDL
MODEL 3
REMARK VINA RESULT:      -8.8      1.995      3.559
REMARK  4 active torsions:
REMARK  status: ('A' for Active; 'I' for Inactive)
REMARK    1  A    between atoms: O_2  and  C_3 
REMARK    2  A    between atoms: C_6  and  C_7 
REMARK    3  A    between atoms: C_9  and  N_10 
REMARK       I    between atoms: N_10  and  C_11 
REMARK    4  A    between atoms: C_11  and  C_12 
ROOT
HETATM    1  C   UNL     1      26.026  46.493  52.040  1.00  0.00     0.173 A 
HETATM    2  N   UNL     1      25.003  47.287  51.774  1.00  0.00    -0.041 NA
HETATM    3  C   UNL     1      24.659  46.969  50.487  1.00  0.00     0.748 A 
HETATM    4  N   UNL     1      25.413  46.020  49.939  1.00  0.00     0.021 NA
HETATM    5  N   UNL     1      26.265  45.736  50.926  1.00  0.00    -0.244 N 
HETATM    6  H   UNL     1      26.955  45.009  50.785  1.00  0.00     0.191 HD
ENDROOT
BRANCH   3   7
HETATM    7  N   UNL     1      23.602  47.634  49.932  1.00  0.00    -0.150 N 
HETATM    8  C   UNL     1      23.680  48.858  49.311  1.00  0.00     0.270 C 
HETATM    9  O   UNL     1      24.684  49.553  49.191  1.00  0.00    -0.267 OA
HETATM   10  H   UNL     1      22.731  47.145  50.049  1.00  0.00     0.188 HD
BRANCH   8  11
HETATM   11  C   UNL     1      22.398  49.393  48.751  1.00  0.00     0.035 A 
HETATM   12  C   UNL     1      21.488  48.601  48.039  1.00  0.00     0.056 A 
HETATM   13  C   UNL     1      20.312  49.169  47.544  1.00  0.00     0.103 A 
HETATM   14  C   UNL     1      20.056  50.534  47.714  1.00  0.00     0.102 A 
HETATM   15  O   UNL     1      19.454  48.324  46.885  1.00  0.00    -0.346 OA
HETATM   16  O   UNL     1      18.942  51.159  47.217  1.00  0.00    -0.346 OA
HETATM   17  C   UNL     1      20.956  51.327  48.419  1.00  0.00     0.040 A 
HETATM   18  C   UNL     1      18.285  50.351  46.234  1.00  0.00     0.202 C 
HETATM   19  C   UNL     1      18.160  48.916  46.721  1.00  0.00     0.202 C 
HETATM   20  C   UNL     1      22.124  50.759  48.933  1.00  0.00     0.020 A 
ENDBRANCH   8  11
ENDBRANCH   3   7
BRANCH   1  21
HETATM   21  C   UNL     1      26.760  46.379  53.300  1.00  0.00     0.012 A 
HETATM   22  C   UNL     1      27.319  45.148  53.663  1.00  0.00     0.018 A 
HETATM   23  C   UNL     1      28.060  45.017  54.843  1.00  0.00     0.037 A 
HETATM   24  C   UNL     1      28.255  46.113  55.684  1.00  0.00     0.068 A 
HETATM   25  C   UNL     1      27.680  47.337  55.347  1.00  0.00     0.037 A 
HETATM   26  C   UNL     1      26.939  47.469  54.164  1.00  0.00     0.018 A 
BRANCH  24  27
HETATM   27  O   UNL     1      29.009  45.858  56.795  1.00  0.00    -0.356 OA
HETATM   28  C   UNL     1      30.305  45.313  56.581  1.00  0.00     0.210 C 
ENDBRANCH  24  27
ENDBRANCH   1  21
TORSDOF 4
ENDMDL
MODEL 4
REMARK VINA RESULT:      -8.8      1.843     10.063
REMARK  4 active torsions:
REMARK  status: ('A' for Active; 'I' for Inactive)
REMARK    1  A    between atoms: O_2  and  C_3 
REMARK    2  A    between atoms: C_6  and  C_7 
REMARK    3  A    between atoms: C_9  and  N_10 
REMARK       I    between atoms: N_10  and  C_11 
REMARK    4  A    between atoms: C_11  and  C_12 
ROOT
HETATM    1  C   UNL     1      23.648  47.660  49.659  1.00  0.00     0.173 A 
HETATM    2  N   UNL     1      24.439  47.806  50.708  1.00  0.00    -0.041 NA
HETATM    3  C   UNL     1      25.158  46.641  50.751  1.00  0.00     0.748 A 
HETATM    4  N   UNL     1      24.856  45.778  49.784  1.00  0.00     0.021 NA
HETATM    5  N   UNL     1      23.907  46.434  49.112  1.00  0.00    -0.244 N 
HETATM    6  H   UNL     1      23.506  46.005  48.287  1.00  0.00     0.191 HD
ENDROOT
BRANCH   3   7
HETATM    7  N   UNL     1      26.085  46.505  51.745  1.00  0.00    -0.150 N 
HETATM    8  C   UNL     1      26.054  45.542  52.726  1.00  0.00     0.270 C 
HETATM    9  O   UNL     1      25.186  44.690  52.884  1.00  0.00    -0.267 OA
HETATM   10  H   UNL     1      26.797  47.215  51.710  1.00  0.00     0.188 HD
BRANCH   8  11
HETATM   11  C   UNL     1      27.188  45.565  53.703  1.00  0.00     0.035 A 
HETATM   12  C   UNL     1      27.988  44.446  53.969  1.00  0.00     0.056 A 
HETATM   13  C   UNL     1      29.029  44.540  54.896  1.00  0.00     0.103 A 
HETATM   14  C   UNL     1      29.250  45.731  55.597  1.00  0.00     0.102 A 
HETATM   15  O   UNL     1      29.789  43.412  55.079  1.00  0.00    -0.346 OA
HETATM   16  O   UNL     1      30.227  45.875  56.548  1.00  0.00    -0.346 OA
HETATM   17  C   UNL     1      28.459  46.845  55.339  1.00  0.00     0.040 A 
HETATM   18  C   UNL     1      30.729  44.603  56.975  1.00  0.00     0.202 C 
HETATM   19  C   UNL     1      31.005  43.709  55.778  1.00  0.00     0.202 C 
HETATM   20  C   UNL     1      27.430  46.761  54.399  1.00  0.00     0.020 A 
ENDBRANCH   8  11
ENDBRANCH   3   7
BRANCH   1  21
HETATM   21  C   UNL     1      22.696  48.630  49.120  1.00  0.00     0.012 A 
HETATM   22  C   UNL     1      21.425  48.199  48.720  1.00  0.00     0.018 A 
HETATM   23  C   UNL     1      20.479  49.111  48.237  1.00  0.00     0.037 A 
HETATM   24  C   UNL     1      20.784  50.468  48.142  1.00  0.00     0.068 A 
HETATM   25  C   UNL     1      22.055  50.905  48.512  1.00  0.00     0.037 A 
HETATM   26  C   UNL     1      23.003  49.993  48.997  1.00  0.00     0.018 A 
BRANCH  24  27
HETATM   27  O   UNL     1      19.770  51.255  47.671  1.00  0.00    -0.356 OA
HETATM   28  C   UNL     1      19.335  52.315  48.513  1.00  0.00     0.210 C 
ENDBRANCH  24  27
ENDBRANCH   1  21
TORSDOF 4
ENDMDL
MODEL 5
REMARK VINA RESULT:      -8.6      1.787      2.896
REMARK  4 active torsions:
REMARK  status: ('A' for Active; 'I' for Inactive)
REMARK    1  A    between atoms: O_2  and  C_3 
REMARK    2  A    between atoms: C_6  and  C_7 
REMARK    3  A    between atoms: C_9  and  N_10 
REMARK       I    between atoms: N_10  and  C_11 
REMARK    4  A    between atoms: C_11  and  C_12 
ROOT
HETATM    1  C   UNL     1      27.121  46.029  53.927  1.00  0.00     0.173 A 
HETATM    2  N   UNL     1      26.411  45.766  52.843  1.00  0.00    -0.041 NA
HETATM    3  C   UNL     1      25.522  46.805  52.764  1.00  0.00     0.748 A 
HETATM    4  N   UNL     1      25.641  47.700  53.740  1.00  0.00     0.021 NA
HETATM    5  N   UNL     1      26.647  47.196  54.459  1.00  0.00    -0.244 N 
HETATM    6  H   UNL     1      26.971  47.705  55.272  1.00  0.00     0.191 HD
ENDROOT
BRANCH   3   7
HETATM    7  N   UNL     1      24.647  46.809  51.715  1.00  0.00    -0.150 N 
HETATM    8  C   UNL     1      24.860  47.442  50.513  1.00  0.00     0.270 C 
HETATM    9  O   UNL     1      25.835  48.121  50.209  1.00  0.00    -0.267 OA
HETATM   10  H   UNL     1      23.794  46.317  51.920  1.00  0.00     0.188 HD
BRANCH   8  11
HETATM   11  C   UNL     1      23.774  47.295  49.493  1.00  0.00     0.035 A 
HETATM   12  C   UNL     1      23.363  46.054  48.989  1.00  0.00     0.056 A 
HETATM   13  C   UNL     1      22.343  45.995  48.036  1.00  0.00     0.103 A 
HETATM   14  C   UNL     1      21.759  47.168  47.546  1.00  0.00     0.102 A 
HETATM   15  O   UNL     1      21.974  44.741  47.614  1.00  0.00    -0.346 OA
HETATM   16  O   UNL     1      20.785  47.178  46.582  1.00  0.00    -0.346 OA
HETATM   17  C   UNL     1      22.163  48.403  48.041  1.00  0.00     0.040 A 
HETATM   18  C   UNL     1      20.704  45.916  45.909  1.00  0.00     0.202 C 
HETATM   19  C   UNL     1      20.725  44.774  46.911  1.00  0.00     0.202 C 
HETATM   20  C   UNL     1      23.168  48.467  49.008  1.00  0.00     0.020 A 
ENDBRANCH   8  11
ENDBRANCH   3   7
BRANCH   1  21
HETATM   21  C   UNL     1      28.249  45.266  54.460  1.00  0.00     0.012 A 
HETATM   22  C   UNL     1      28.984  45.782  55.535  1.00  0.00     0.018 A 
HETATM   23  C   UNL     1      30.043  45.057  56.091  1.00  0.00     0.037 A 
HETATM   24  C   UNL     1      30.391  43.805  55.585  1.00  0.00     0.068 A 
HETATM   25  C   UNL     1      29.684  43.293  54.498  1.00  0.00     0.037 A 
HETATM   26  C   UNL     1      28.622  44.018  53.941  1.00  0.00     0.018 A 
BRANCH  24  27
HETATM   27  O   UNL     1      31.431  43.193  56.227  1.00  0.00    -0.356 OA
HETATM   28  C   UNL     1      31.831  43.746  57.475  1.00  0.00     0.210 C 
ENDBRANCH  24  27
ENDBRANCH   1  21
TORSDOF 4
ENDMDL
MODEL 6
REMARK VINA RESULT:      -8.6      2.861     10.116
REMARK  4 active torsions:
REMARK  status: ('A' for Active; 'I' for Inactive)
REMARK    1  A    between atoms: O_2  and  C_3 
REMARK    2  A    between atoms: C_6  and  C_7 
REMARK    3  A    between atoms: C_9  and  N_10 
REMARK       I    between atoms: N_10  and  C_11 
REMARK    4  A    between atoms: C_11  and  C_12 
ROOT
HETATM    1  C   UNL     1      23.624  49.084  48.991  1.00  0.00     0.173 A 
HETATM    2  N   UNL     1      23.898  47.990  49.680  1.00  0.00    -0.041 NA
HETATM    3  C   UNL     1      25.263  47.997  49.794  1.00  0.00     0.748 A 
HETATM    4  N   UNL     1      25.853  49.038  49.212  1.00  0.00     0.021 NA
HETATM    5  N   UNL     1      24.810  49.706  48.714  1.00  0.00    -0.244 N 
HETATM    6  H   UNL     1      24.975  50.578  48.227  1.00  0.00     0.191 HD
ENDROOT
BRANCH   3   7
HETATM    7  N   UNL     1      25.846  46.971  50.482  1.00  0.00    -0.150 N 
HETATM    8  C   UNL     1      25.803  46.812  51.847  1.00  0.00     0.270 C 
HETATM    9  O   UNL     1      25.276  47.572  52.654  1.00  0.00    -0.267 OA
HETATM   10  H   UNL     1      26.349  46.339  49.882  1.00  0.00     0.188 HD
BRANCH   8  11
HETATM   11  C   UNL     1      26.492  45.598  52.388  1.00  0.00     0.035 A 
HETATM   12  C   UNL     1      26.722  44.447  51.623  1.00  0.00     0.056 A 
HETATM   13  C   UNL     1      27.370  43.350  52.197  1.00  0.00     0.103 A 
HETATM   14  C   UNL     1      27.751  43.374  53.543  1.00  0.00     0.102 A 
HETATM   15  O   UNL     1      27.589  42.272  51.375  1.00  0.00    -0.346 OA
HETATM   16  O   UNL     1      28.352  42.316  54.174  1.00  0.00    -0.346 OA
HETATM   17  C   UNL     1      27.524  44.512  54.308  1.00  0.00     0.040 A 
HETATM   18  C   UNL     1      28.215  41.109  53.414  1.00  0.00     0.202 C 
HETATM   19  C   UNL     1      28.535  41.361  51.950  1.00  0.00     0.202 C 
HETATM   20  C   UNL     1      26.894  45.619  53.734  1.00  0.00     0.020 A 
ENDBRANCH   8  11
ENDBRANCH   3   7
BRANCH   1  21
HETATM   21  C   UNL     1      22.306  49.597  48.620  1.00  0.00     0.012 A 
HETATM   22  C   UNL     1      21.924  50.879  49.032  1.00  0.00     0.018 A 
HETATM   23  C   UNL     1      20.685  51.412  48.659  1.00  0.00     0.037 A 
HETATM   24  C   UNL     1      19.803  50.674  47.870  1.00  0.00     0.068 A 
HETATM   25  C   UNL     1      20.161  49.386  47.476  1.00  0.00     0.037 A 
HETATM   26  C   UNL     1      21.403  48.852  47.848  1.00  0.00     0.018 A 
BRANCH  24  27
HETATM   27  O   UNL     1      18.634  51.313  47.562  1.00  0.00    -0.356 OA
HETATM   28  C   UNL     1      18.207  52.336  48.453  1.00  0.00     0.210 C 
ENDBRANCH  24  27
ENDBRANCH   1  21
TORSDOF 4
ENDMDL
MODEL 7
REMARK VINA RESULT:      -8.5      6.917     10.628
REMARK  4 active torsions:
REMARK  status: ('A' for Active; 'I' for Inactive)
REMARK    1  A    between atoms: O_2  and  C_3 
REMARK    2  A    between atoms: C_6  and  C_7 
REMARK    3  A    between atoms: C_9  and  N_10 
REMARK       I    between atoms: N_10  and  C_11 
REMARK    4  A    between atoms: C_11  and  C_12 
ROOT
HETATM    1  C   UNL     1      20.510  50.243  49.562  1.00  0.00     0.173 A 
HETATM    2  N   UNL     1      19.639  51.192  49.268  1.00  0.00    -0.041 NA
HETATM    3  C   UNL     1      18.550  50.900  50.046  1.00  0.00     0.748 A 
HETATM    4  N   UNL     1      18.698  49.820  50.807  1.00  0.00     0.021 NA
HETATM    5  N   UNL     1      19.931  49.421  50.489  1.00  0.00    -0.244 N 
HETATM    6  H   UNL     1      20.319  48.610  50.954  1.00  0.00     0.191 HD
ENDROOT
BRANCH   3   7
HETATM    7  N   UNL     1      17.471  51.735  49.962  1.00  0.00    -0.150 N 
HETATM    8  C   UNL     1      16.358  51.509  49.188  1.00  0.00     0.270 C 
HETATM    9  O   UNL     1      16.174  50.559  48.435  1.00  0.00    -0.267 OA
HETATM   10  H   UNL     1      17.584  52.569  50.514  1.00  0.00     0.188 HD
BRANCH   8  11
HETATM   11  C   UNL     1      15.282  52.547  49.268  1.00  0.00     0.035 A 
HETATM   12  C   UNL     1      14.966  53.401  48.203  1.00  0.00     0.056 A 
HETATM   13  C   UNL     1      13.950  54.348  48.350  1.00  0.00     0.103 A 
HETATM   14  C   UNL     1      13.274  54.482  49.568  1.00  0.00     0.102 A 
HETATM   15  O   UNL     1      13.676  55.126  47.253  1.00  0.00    -0.346 OA
HETATM   16  O   UNL     1      12.298  55.418  49.788  1.00  0.00    -0.346 OA
HETATM   17  C   UNL     1      13.584  53.639  50.630  1.00  0.00     0.040 A 
HETATM   18  C   UNL     1      12.312  56.434  48.779  1.00  0.00     0.202 C 
HETATM   19  C   UNL     1      12.425  55.811  47.397  1.00  0.00     0.202 C 
HETATM   20  C   UNL     1      14.586  52.677  50.481  1.00  0.00     0.020 A 
ENDBRANCH   8  11
ENDBRANCH   3   7
BRANCH   1  21
HETATM   21  C   UNL     1      21.872  50.094  49.051  1.00  0.00     0.012 A 
HETATM   22  C   UNL     1      22.440  51.125  48.291  1.00  0.00     0.018 A 
HETATM   23  C   UNL     1      23.755  51.028  47.822  1.00  0.00     0.037 A 
HETATM   24  C   UNL     1      24.527  49.901  48.099  1.00  0.00     0.068 A 
HETATM   25  C   UNL     1      23.964  48.856  48.831  1.00  0.00     0.037 A 
HETATM   26  C   UNL     1      22.647  48.953  49.302  1.00  0.00     0.018 A 
BRANCH  24  27
HETATM   27  O   UNL     1      25.798  49.937  47.599  1.00  0.00    -0.356 OA
HETATM   28  C   UNL     1      26.861  49.795  48.533  1.00  0.00     0.210 C 
ENDBRANCH  24  27
ENDBRANCH   1  21
TORSDOF 4
ENDMDL
MODEL 8
REMARK VINA RESULT:      -8.5      3.354      5.624
REMARK  4 active torsions:
REMARK  status: ('A' for Active; 'I' for Inactive)
REMARK    1  A    between atoms: O_2  and  C_3 
REMARK    2  A    between atoms: C_6  and  C_7 
REMARK    3  A    between atoms: C_9  and  N_10 
REMARK       I    between atoms: N_10  and  C_11 
REMARK    4  A    between atoms: C_11  and  C_12 
ROOT
HETATM    1  C   UNL     1      25.245  47.700  49.979  1.00  0.00     0.173 A 
HETATM    2  N   UNL     1      23.949  47.950  49.914  1.00  0.00    -0.041 NA
HETATM    3  C   UNL     1      23.861  49.054  49.108  1.00  0.00     0.748 A 
HETATM    4  N   UNL     1      25.033  49.503  48.669  1.00  0.00     0.021 NA
HETATM    5  N   UNL     1      25.888  48.643  49.226  1.00  0.00    -0.244 N 
HETATM    6  H   UNL     1      26.877  48.740  49.033  1.00  0.00     0.191 HD
ENDROOT
BRANCH   3   7
HETATM    7  N   UNL     1      22.614  49.547  48.845  1.00  0.00    -0.150 N 
HETATM    8  C   UNL     1      21.976  50.513  49.585  1.00  0.00     0.270 C 
HETATM    9  O   UNL     1      22.400  51.052  50.602  1.00  0.00    -0.267 OA
HETATM   10  H   UNL     1      22.181  49.102  48.053  1.00  0.00     0.188 HD
BRANCH   8  11
HETATM   11  C   UNL     1      20.619  50.923  49.100  1.00  0.00     0.035 A 
HETATM   12  C   UNL     1      19.622  51.416  49.951  1.00  0.00     0.056 A 
HETATM   13  C   UNL     1      18.378  51.777  49.428  1.00  0.00     0.103 A 
HETATM   14  C   UNL     1      18.104  51.606  48.066  1.00  0.00     0.102 A 
HETATM   15  O   UNL     1      17.463  52.282  50.318  1.00  0.00    -0.346 OA
HETATM   16  O   UNL     1      16.891  51.901  47.500  1.00  0.00    -0.346 OA
HETATM   17  C   UNL     1      19.088  51.115  47.216  1.00  0.00     0.040 A 
HETATM   18  C   UNL     1      15.873  52.054  48.497  1.00  0.00     0.202 C 
HETATM   19  C   UNL     1      16.373  52.920  49.641  1.00  0.00     0.202 C 
HETATM   20  C   UNL     1      20.340  50.772  47.731  1.00  0.00     0.020 A 
ENDBRANCH   8  11
ENDBRANCH   3   7
BRANCH   1  21
HETATM   21  C   UNL     1      25.905  46.595  50.675  1.00  0.00     0.012 A 
HETATM   22  C   UNL     1      26.601  45.632  49.934  1.00  0.00     0.018 A 
HETATM   23  C   UNL     1      27.276  44.586  50.575  1.00  0.00     0.037 A 
HETATM   24  C   UNL     1      27.266  44.480  51.965  1.00  0.00     0.068 A 
HETATM   25  C   UNL     1      26.553  45.418  52.711  1.00  0.00     0.037 A 
HETATM   26  C   UNL     1      25.878  46.466  52.071  1.00  0.00     0.018 A 
BRANCH  24  27
HETATM   27  O   UNL     1      27.975  43.425  52.467  1.00  0.00    -0.356 OA
HETATM   28  C   UNL     1      27.609  42.961  53.760  1.00  0.00     0.210 C 
ENDBRANCH  24  27
ENDBRANCH   1  21
TORSDOF 4
ENDMDL
MODEL 9
REMARK VINA RESULT:      -8.4      3.700     10.407
REMARK  4 active torsions:
REMARK  status: ('A' for Active; 'I' for Inactive)
REMARK    1  A    between atoms: O_2  and  C_3 
REMARK    2  A    between atoms: C_6  and  C_7 
REMARK    3  A    between atoms: C_9  and  N_10 
REMARK       I    between atoms: N_10  and  C_11 
REMARK    4  A    between atoms: C_11  and  C_12 
ROOT
HETATM    1  C   UNL     1      21.432  49.725  48.659  1.00  0.00     0.173 A 
HETATM    2  N   UNL     1      21.758  48.579  49.231  1.00  0.00    -0.041 NA
HETATM    3  C   UNL     1      22.974  48.265  48.683  1.00  0.00     0.748 A 
HETATM    4  N   UNL     1      23.420  49.155  47.801  1.00  0.00     0.021 NA
HETATM    5  N   UNL     1      22.440  50.061  47.798  1.00  0.00    -0.244 N 
HETATM    6  H   UNL     1      22.534  50.884  47.216  1.00  0.00     0.191 HD
ENDROOT
BRANCH   3   7
HETATM    7  N   UNL     1      23.578  47.113  49.101  1.00  0.00    -0.150 N 
HETATM    8  C   UNL     1      24.444  47.019  50.164  1.00  0.00     0.270 C 
HETATM    9  O   UNL     1      24.836  47.941  50.871  1.00  0.00    -0.267 OA
HETATM   10  H   UNL     1      23.346  46.323  48.524  1.00  0.00     0.188 HD
BRANCH   8  11
HETATM   11  C   UNL     1      24.971  45.649  50.461  1.00  0.00     0.035 A 
HETATM   12  C   UNL     1      26.292  45.410  50.862  1.00  0.00     0.056 A 
HETATM   13  C   UNL     1      26.714  44.104  51.121  1.00  0.00     0.103 A 
HETATM   14  C   UNL     1      25.841  43.026  50.938  1.00  0.00     0.102 A 
HETATM   15  O   UNL     1      28.013  43.952  51.540  1.00  0.00    -0.346 OA
HETATM   16  O   UNL     1      26.207  41.719  51.134  1.00  0.00    -0.346 OA
HETATM   17  C   UNL     1      24.529  43.255  50.538  1.00  0.00     0.040 A 
HETATM   18  C   UNL     1      27.631  41.579  51.192  1.00  0.00     0.202 C 
HETATM   19  C   UNL     1      28.236  42.647  52.089  1.00  0.00     0.202 C 
HETATM   20  C   UNL     1      24.097  44.561  50.298  1.00  0.00     0.020 A 
ENDBRANCH   8  11
ENDBRANCH   3   7
BRANCH   1  21
HETATM   21  C   UNL     1      20.245  50.541  48.913  1.00  0.00     0.012 A 
HETATM   22  C   UNL     1      19.272  50.082  49.810  1.00  0.00     0.018 A 
HETATM   23  C   UNL     1      18.145  50.858  50.102  1.00  0.00     0.037 A 
HETATM   24  C   UNL     1      17.966  52.105  49.505  1.00  0.00     0.068 A 
HETATM   25  C   UNL     1      18.914  52.561  48.590  1.00  0.00     0.037 A 
HETATM   26  C   UNL     1      20.044  51.784  48.297  1.00  0.00     0.018 A 
BRANCH  24  27
HETATM   27  O   UNL     1      16.834  52.770  49.887  1.00  0.00    -0.356 OA
HETATM   28  C   UNL     1      15.592  52.146  49.590  1.00  0.00     0.210 C 
ENDBRANCH  24  27
ENDBRANCH   1  21
TORSDOF 4
ENDMDL
MODEL 10
REMARK VINA RESULT:      -8.1      5.721      8.083
REMARK  4 active torsions:
REMARK  status: ('A' for Active; 'I' for Inactive)
REMARK    1  A    between atoms: O_2  and  C_3 
REMARK    2  A    between atoms: C_6  and  C_7 
REMARK    3  A    between atoms: C_9  and  N_10 
REMARK       I    between atoms: N_10  and  C_11 
REMARK    4  A    between atoms: C_11  and  C_12 
ROOT
HETATM    1  C   UNL     1      28.079  42.962  53.004  1.00  0.00     0.173 A 
HETATM    2  N   UNL     1      28.590  42.076  52.166  1.00  0.00    -0.041 NA
HETATM    3  C   UNL     1      27.541  41.743  51.351  1.00  0.00     0.748 A 
HETATM    4  N   UNL     1      26.405  42.374  51.637  1.00  0.00     0.021 NA
HETATM    5  N   UNL     1      26.762  43.132  52.676  1.00  0.00    -0.244 N 
HETATM    6  H   UNL     1      26.076  43.751  53.089  1.00  0.00     0.191 HD
ENDROOT
BRANCH   3   7
HETATM    7  N   UNL     1      27.776  40.835  50.357  1.00  0.00    -0.150 N 
HETATM    8  C   UNL     1      27.658  41.090  49.012  1.00  0.00     0.270 C 
HETATM    9  O   UNL     1      27.294  42.142  48.498  1.00  0.00    -0.267 OA
HETATM   10  H   UNL     1      28.023  39.927  50.714  1.00  0.00     0.188 HD
BRANCH   8  11
HETATM   11  C   UNL     1      27.989  39.952  48.097  1.00  0.00     0.035 A 
HETATM   12  C   UNL     1      27.685  39.959  46.729  1.00  0.00     0.056 A 
HETATM   13  C   UNL     1      28.023  38.860  45.936  1.00  0.00     0.103 A 
HETATM   14  C   UNL     1      28.622  37.731  46.505  1.00  0.00     0.102 A 
HETATM   15  O   UNL     1      27.723  38.955  44.600  1.00  0.00    -0.346 OA
HETATM   16  O   UNL     1      28.939  36.606  45.790  1.00  0.00    -0.346 OA
HETATM   17  C   UNL     1      28.925  37.715  47.862  1.00  0.00     0.040 A 
HETATM   18  C   UNL     1      28.278  36.591  44.520  1.00  0.00     0.202 C 
HETATM   19  C   UNL     1      28.399  37.945  43.840  1.00  0.00     0.202 C 
HETATM   20  C   UNL     1      28.607  38.820  48.656  1.00  0.00     0.020 A 
ENDBRANCH   8  11
ENDBRANCH   3   7
BRANCH   1  21
HETATM   21  C   UNL     1      28.775  43.689  54.065  1.00  0.00     0.012 A 
HETATM   22  C   UNL     1      28.220  44.871  54.569  1.00  0.00     0.018 A 
HETATM   23  C   UNL     1      28.843  45.567  55.612  1.00  0.00     0.037 A 
HETATM   24  C   UNL     1      30.032  45.097  56.169  1.00  0.00     0.068 A 
HETATM   25  C   UNL     1      30.608  43.936  55.657  1.00  0.00     0.037 A 
HETATM   26  C   UNL     1      29.984  43.237  54.614  1.00  0.00     0.018 A 
BRANCH  24  27
HETATM   27  O   UNL     1      30.530  45.858  57.190  1.00  0.00    -0.356 OA
HETATM   28  C   UNL     1      30.875  45.177  58.389  1.00  0.00     0.210 C 
ENDBRANCH  24  27
ENDBRANCH   1  21
TORSDOF 4
ENDMDL
