MODEL 1
REMARK VINA RESULT:      -9.2      0.000      0.000
REMARK  11 active torsions:
REMARK  status: ('A' for Active; 'I' for Inactive)
REMARK    1  A    between atoms: C_3  and  O_4 
REMARK    2  A    between atoms: O_4  and  C_5 
REMARK    3  A    between atoms: C_10  and  C_11 
REMARK    4  A    between atoms: C_11  and  C_12 
REMARK    5  A    between atoms: C_13  and  C_14 
REMARK    6  A    between atoms: C_17  and  O_18 
REMARK    7  A    between atoms: N_21  and  C_22 
REMARK    8  A    between atoms: C_22  and  C_23 
REMARK    9  A    between atoms: C_23  and  C_24 
REMARK   10  A    between atoms: C_24  and  N_25 
REMARK   11  A    between atoms: C_34  and  O_35 
ROOT
HETATM    1  C   UNL     1      25.232  45.106  52.206  1.00  0.00     0.059 A 
HETATM    2  C   UNL     1      24.731  44.027  51.279  1.00  0.00     0.161 A 
HETATM    3  N   UNL     1      24.276  44.827  50.152  1.00  0.00    -0.333 N 
HETATM    4  C   UNL     1      24.600  46.152  50.299  1.00  0.00     0.278 A 
HETATM    5  O   UNL     1      24.340  47.034  49.494  1.00  0.00    -0.265 OA
HETATM    6  C   UNL     1      25.164  46.331  51.659  1.00  0.00     0.146 A 
ENDROOT
BRANCH   1   7
HETATM    7  C   UNL     1      25.543  44.695  53.595  1.00  0.00     0.193 C 
HETATM    8  O   UNL     1      24.649  44.249  54.306  1.00  0.00    -0.287 OA
BRANCH   7   9
HETATM    9  C   UNL     1      26.890  44.921  54.161  1.00  0.00     0.015 A 
HETATM   10  C   UNL     1      27.187  46.028  54.964  1.00  0.00     0.018 A 
HETATM   11  C   UNL     1      28.438  46.115  55.579  1.00  0.00     0.038 A 
HETATM   12  C   UNL     1      29.389  45.110  55.383  1.00  0.00     0.075 A 
HETATM   13  C   UNL     1      29.134  44.051  54.499  1.00  0.00    -0.028 A 
HETATM   14  C   UNL     1      30.194  43.032  54.184  1.00  0.00     0.051 C 
HETATM   15  C   UNL     1      27.876  43.965  53.892  1.00  0.00     0.025 A 
BRANCH  12  16
HETATM   16  O   UNL     1      30.609  45.131  56.002  1.00  0.00    -0.346 OA
BRANCH  16  17
HETATM   17  C   UNL     1      30.659  44.484  57.287  1.00  0.00     0.121 C 
HETATM   18  C   UNL     1      31.869  43.555  57.417  1.00  0.00     0.040 C 
HETATM   19  C   UNL     1      30.761  45.599  58.325  1.00  0.00     0.040 C 
ENDBRANCH  16  17
ENDBRANCH  12  16
ENDBRANCH   7   9
ENDBRANCH   1   7
BRANCH   2  20
HETATM   20  C   UNL     1      25.791  43.014  50.885  1.00  0.00    -0.030 A 
HETATM   21  C   UNL     1      25.440  41.656  50.778  1.00  0.00     0.012 A 
HETATM   22  C   UNL     1      26.384  40.694  50.413  1.00  0.00     0.037 A 
HETATM   23  C   UNL     1      27.692  41.086  50.155  1.00  0.00     0.065 A 
HETATM   24  C   UNL     1      28.070  42.417  50.268  1.00  0.00     0.037 A 
HETATM   25  C   UNL     1      27.128  43.378  50.640  1.00  0.00     0.012 A 
BRANCH  23  26
HETATM   26  O   UNL     1      28.647  40.187  49.786  1.00  0.00    -0.361 OA
HETATM   27  H   UNL     1      28.624  40.076  48.821  1.00  0.00     0.217 HD
ENDBRANCH  23  26
ENDBRANCH   2  20
BRANCH   6  28
HETATM   28  O   UNL     1      25.363  47.573  52.183  1.00  0.00    -0.355 OA
HETATM   29  H   UNL     1      24.756  47.745  52.921  1.00  0.00     0.218 HD
ENDBRANCH   6  28
BRANCH   3  30
HETATM   30  C   UNL     1      23.510  44.285  49.044  1.00  0.00     0.129 C 
BRANCH  30  31
HETATM   31  C   UNL     1      21.996  44.485  49.181  1.00  0.00     0.048 C 
BRANCH  31  32
HETATM   32  C   UNL     1      21.324  45.499  48.248  1.00  0.00     0.236 C 
BRANCH  32  33
HETATM   33  N   UNL     1      20.859  46.753  48.932  1.00  0.00    -0.067 N 
HETATM   34  H   UNL     1      21.083  46.645  49.944  1.00  0.00     0.280 HD
HETATM   35  C   UNL     1      21.471  48.042  48.416  1.00  0.00     0.261 C 
HETATM   36  C   UNL     1      20.937  49.231  49.222  1.00  0.00     0.195 C 
HETATM   37  O   UNL     1      19.509  49.291  49.171  1.00  0.00    -0.388 OA
HETATM   38  C   UNL     1      18.917  48.111  49.730  1.00  0.00     0.195 C 
HETATM   39  C   UNL     1      19.333  46.867  48.934  1.00  0.00     0.261 C 
ENDBRANCH  32  33
ENDBRANCH  31  32
ENDBRANCH  30  31
ENDBRANCH   3  30
TORSDOF 11
ENDMDL
MODEL 2
REMARK VINA RESULT:      -8.9      2.312      9.117
REMARK  11 active torsions:
REMARK  status: ('A' for Active; 'I' for Inactive)
REMARK    1  A    between atoms: C_3  and  O_4 
REMARK    2  A    between atoms: O_4  and  C_5 
REMARK    3  A    between atoms: C_10  and  C_11 
REMARK    4  A    between atoms: C_11  and  C_12 
REMARK    5  A    between atoms: C_13  and  C_14 
REMARK    6  A    between atoms: C_17  and  O_18 
REMARK    7  A    between atoms: N_21  and  C_22 
REMARK    8  A    between atoms: C_22  and  C_23 
REMARK    9  A    between atoms: C_23  and  C_24 
REMARK   10  A    between atoms: C_24  and  N_25 
REMARK   11  A    between atoms: C_34  and  O_35 
ROOT
HETATM    1  C   UNL     1      25.980  46.190  51.260  1.00  0.00     0.059 A 
HETATM    2  C   UNL     1      26.699  44.867  51.334  1.00  0.00     0.161 A 
HETATM    3  N   UNL     1      26.702  44.638  52.771  1.00  0.00    -0.333 N 
HETATM    4  C   UNL     1      25.961  45.579  53.442  1.00  0.00     0.278 A 
HETATM    5  O   UNL     1      25.794  45.612  54.651  1.00  0.00    -0.265 OA
HETATM    6  C   UNL     1      25.549  46.612  52.460  1.00  0.00     0.146 A 
ENDROOT
BRANCH   1   7
HETATM    7  C   UNL     1      26.010  46.890  49.955  1.00  0.00     0.193 C 
HETATM    8  O   UNL     1      27.086  47.073  49.395  1.00  0.00    -0.287 OA
BRANCH   7   9
HETATM    9  C   UNL     1      24.774  47.463  49.381  1.00  0.00     0.015 A 
HETATM   10  C   UNL     1      23.589  46.729  49.275  1.00  0.00     0.018 A 
HETATM   11  C   UNL     1      22.421  47.366  48.850  1.00  0.00     0.038 A 
HETATM   12  C   UNL     1      22.441  48.725  48.522  1.00  0.00     0.075 A 
HETATM   13  C   UNL     1      23.647  49.441  48.529  1.00  0.00    -0.028 A 
HETATM   14  C   UNL     1      23.704  50.868  48.059  1.00  0.00     0.051 C 
HETATM   15  C   UNL     1      24.813  48.799  48.963  1.00  0.00     0.025 A 
BRANCH  12  16
HETATM   16  O   UNL     1      21.313  49.400  48.146  1.00  0.00    -0.346 OA
BRANCH  16  17
HETATM   17  C   UNL     1      20.504  49.898  49.227  1.00  0.00     0.121 C 
HETATM   18  C   UNL     1      20.167  51.382  49.058  1.00  0.00     0.040 C 
HETATM   19  C   UNL     1      19.215  49.080  49.212  1.00  0.00     0.040 C 
ENDBRANCH  16  17
ENDBRANCH  12  16
ENDBRANCH   7   9
ENDBRANCH   1   7
BRANCH   2  20
HETATM   20  C   UNL     1      26.014  43.750  50.567  1.00  0.00    -0.030 A 
HETATM   21  C   UNL     1      26.753  43.002  49.633  1.00  0.00     0.012 A 
HETATM   22  C   UNL     1      26.161  41.963  48.911  1.00  0.00     0.037 A 
HETATM   23  C   UNL     1      24.819  41.668  49.118  1.00  0.00     0.065 A 
HETATM   24  C   UNL     1      24.062  42.400  50.022  1.00  0.00     0.037 A 
HETATM   25  C   UNL     1      24.652  43.444  50.739  1.00  0.00     0.012 A 
BRANCH  23  26
HETATM   26  O   UNL     1      24.199  40.659  48.445  1.00  0.00    -0.361 OA
HETATM   27  H   UNL     1      23.236  40.756  48.542  1.00  0.00     0.217 HD
ENDBRANCH  23  26
ENDBRANCH   2  20
BRANCH   6  28
HETATM   28  O   UNL     1      25.002  47.792  52.866  1.00  0.00    -0.355 OA
HETATM   29  H   UNL     1      24.842  47.795  53.825  1.00  0.00     0.218 HD
ENDBRANCH   6  28
BRANCH   3  30
HETATM   30  C   UNL     1      27.459  43.578  53.411  1.00  0.00     0.129 C 
BRANCH  30  31
HETATM   31  C   UNL     1      28.913  43.955  53.722  1.00  0.00     0.048 C 
BRANCH  31  32
HETATM   32  C   UNL     1      29.157  45.037  54.780  1.00  0.00     0.236 C 
BRANCH  32  33
HETATM   33  N   UNL     1      29.803  44.533  56.040  1.00  0.00    -0.067 N 
HETATM   34  H   UNL     1      29.066  44.026  56.575  1.00  0.00     0.280 HD
HETATM   35  C   UNL     1      30.997  43.619  55.839  1.00  0.00     0.261 C 
HETATM   36  C   UNL     1      31.532  43.155  57.198  1.00  0.00     0.195 C 
HETATM   37  O   UNL     1      31.878  44.270  58.025  1.00  0.00    -0.388 OA
HETATM   38  C   UNL     1      30.739  45.098  58.288  1.00  0.00     0.195 C 
HETATM   39  C   UNL     1      30.178  45.678  56.984  1.00  0.00     0.261 C 
ENDBRANCH  32  33
ENDBRANCH  31  32
ENDBRANCH  30  31
ENDBRANCH   3  30
TORSDOF 11
ENDMDL
MODEL 3
REMARK VINA RESULT:      -8.7      2.141      3.246
REMARK  11 active torsions:
REMARK  status: ('A' for Active; 'I' for Inactive)
REMARK    1  A    between atoms: C_3  and  O_4 
REMARK    2  A    between atoms: O_4  and  C_5 
REMARK    3  A    between atoms: C_10  and  C_11 
REMARK    4  A    between atoms: C_11  and  C_12 
REMARK    5  A    between atoms: C_13  and  C_14 
REMARK    6  A    between atoms: C_17  and  O_18 
REMARK    7  A    between atoms: N_21  and  C_22 
REMARK    8  A    between atoms: C_22  and  C_23 
REMARK    9  A    between atoms: C_23  and  C_24 
REMARK   10  A    between atoms: C_24  and  N_25 
REMARK   11  A    between atoms: C_34  and  O_35 
ROOT
HETATM    1  C   UNL     1      25.201  45.278  52.287  1.00  0.00     0.059 A 
HETATM    2  C   UNL     1      24.497  44.342  51.337  1.00  0.00     0.161 A 
HETATM    3  N   UNL     1      24.069  45.273  50.304  1.00  0.00    -0.333 N 
HETATM    4  C   UNL     1      24.574  46.532  50.508  1.00  0.00     0.278 A 
HETATM    5  O   UNL     1      24.375  47.496  49.784  1.00  0.00    -0.265 OA
HETATM    6  C   UNL     1      25.254  46.538  51.826  1.00  0.00     0.146 A 
ENDROOT
BRANCH   1   7
HETATM    7  C   UNL     1      25.556  44.730  53.617  1.00  0.00     0.193 C 
HETATM    8  O   UNL     1      24.682  44.221  54.311  1.00  0.00    -0.287 OA
BRANCH   7   9
HETATM    9  C   UNL     1      26.923  44.892  54.155  1.00  0.00     0.015 A 
HETATM   10  C   UNL     1      27.264  45.931  55.027  1.00  0.00     0.018 A 
HETATM   11  C   UNL     1      28.535  45.952  55.608  1.00  0.00     0.038 A 
HETATM   12  C   UNL     1      29.460  44.948  55.309  1.00  0.00     0.075 A 
HETATM   13  C   UNL     1      29.159  43.962  54.358  1.00  0.00    -0.028 A 
HETATM   14  C   UNL     1      30.190  42.952  53.936  1.00  0.00     0.051 C 
HETATM   15  C   UNL     1      27.882  43.942  53.786  1.00  0.00     0.025 A 
BRANCH  12  16
HETATM   16  O   UNL     1      30.699  44.904  55.888  1.00  0.00    -0.346 OA
BRANCH  16  17
HETATM   17  C   UNL     1      30.764  44.211  57.148  1.00  0.00     0.121 C 
HETATM   18  C   UNL     1      31.957  43.254  57.218  1.00  0.00     0.040 C 
HETATM   19  C   UNL     1      30.912  45.286  58.222  1.00  0.00     0.040 C 
ENDBRANCH  16  17
ENDBRANCH  12  16
ENDBRANCH   7   9
ENDBRANCH   1   7
BRANCH   2  20
HETATM   20  C   UNL     1      25.383  43.235  50.795  1.00  0.00    -0.030 A 
HETATM   21  C   UNL     1      26.686  43.544  50.366  1.00  0.00     0.012 A 
HETATM   22  C   UNL     1      27.535  42.552  49.866  1.00  0.00     0.037 A 
HETATM   23  C   UNL     1      27.080  41.242  49.788  1.00  0.00     0.065 A 
HETATM   24  C   UNL     1      25.792  40.912  50.189  1.00  0.00     0.037 A 
HETATM   25  C   UNL     1      24.942  41.904  50.683  1.00  0.00     0.012 A 
BRANCH  23  26
HETATM   26  O   UNL     1      27.872  40.239  49.316  1.00  0.00    -0.361 OA
HETATM   27  H   UNL     1      27.448  39.838  48.538  1.00  0.00     0.217 HD
ENDBRANCH  23  26
ENDBRANCH   2  20
BRANCH   6  28
HETATM   28  O   UNL     1      25.652  47.703  52.409  1.00  0.00    -0.355 OA
HETATM   29  H   UNL     1      25.050  48.432  52.187  1.00  0.00     0.218 HD
ENDBRANCH   6  28
BRANCH   3  30
HETATM   30  C   UNL     1      23.161  44.914  49.230  1.00  0.00     0.129 C 
BRANCH  30  31
HETATM   31  C   UNL     1      23.839  44.194  48.058  1.00  0.00     0.048 C 
BRANCH  31  32
HETATM   32  C   UNL     1      23.028  44.008  46.771  1.00  0.00     0.236 C 
BRANCH  32  33
HETATM   33  N   UNL     1      22.537  42.606  46.547  1.00  0.00    -0.067 N 
HETATM   34  H   UNL     1      23.053  42.234  45.722  1.00  0.00     0.280 HD
HETATM   35  C   UNL     1      22.714  41.659  47.720  1.00  0.00     0.261 C 
HETATM   36  C   UNL     1      22.206  40.263  47.343  1.00  0.00     0.195 C 
HETATM   37  O   UNL     1      20.839  40.306  46.925  1.00  0.00    -0.388 OA
HETATM   38  C   UNL     1      20.671  41.135  45.769  1.00  0.00     0.195 C 
HETATM   39  C   UNL     1      21.081  42.581  46.075  1.00  0.00     0.261 C 
ENDBRANCH  32  33
ENDBRANCH  31  32
ENDBRANCH  30  31
ENDBRANCH   3  30
TORSDOF 11
ENDMDL
MODEL 4
REMARK VINA RESULT:      -8.6      1.553      2.143
REMARK  11 active torsions:
REMARK  status: ('A' for Active; 'I' for Inactive)
REMARK    1  A    between atoms: C_3  and  O_4 
REMARK    2  A    between atoms: O_4  and  C_5 
REMARK    3  A    between atoms: C_10  and  C_11 
REMARK    4  A    between atoms: C_11  and  C_12 
REMARK    5  A    between atoms: C_13  and  C_14 
REMARK    6  A    between atoms: C_17  and  O_18 
REMARK    7  A    between atoms: N_21  and  C_22 
REMARK    8  A    between atoms: C_22  and  C_23 
REMARK    9  A    between atoms: C_23  and  C_24 
REMARK   10  A    between atoms: C_24  and  N_25 
REMARK   11  A    between atoms: C_34  and  O_35 
ROOT
HETATM    1  C   UNL     1      25.206  45.151  52.240  1.00  0.00     0.059 A 
HETATM    2  C   UNL     1      24.712  44.066  51.318  1.00  0.00     0.161 A 
HETATM    3  N   UNL     1      24.249  44.858  50.188  1.00  0.00    -0.333 N 
HETATM    4  C   UNL     1      24.563  46.186  50.330  1.00  0.00     0.278 A 
HETATM    5  O   UNL     1      24.296  47.063  49.523  1.00  0.00    -0.265 OA
HETATM    6  C   UNL     1      25.129  46.373  51.689  1.00  0.00     0.146 A 
ENDROOT
BRANCH   1   7
HETATM    7  C   UNL     1      25.523  44.747  53.630  1.00  0.00     0.193 C 
HETATM    8  O   UNL     1      24.631  44.313  54.349  1.00  0.00    -0.287 OA
BRANCH   7   9
HETATM    9  C   UNL     1      26.875  44.968  54.186  1.00  0.00     0.015 A 
HETATM   10  C   UNL     1      27.187  46.080  54.974  1.00  0.00     0.018 A 
HETATM   11  C   UNL     1      28.442  46.163  55.582  1.00  0.00     0.038 A 
HETATM   12  C   UNL     1      29.382  45.146  55.393  1.00  0.00     0.075 A 
HETATM   13  C   UNL     1      29.113  44.080  54.523  1.00  0.00    -0.028 A 
HETATM   14  C   UNL     1      30.161  43.047  54.214  1.00  0.00     0.051 C 
HETATM   15  C   UNL     1      27.851  43.998  53.923  1.00  0.00     0.025 A 
BRANCH  12  16
HETATM   16  O   UNL     1      30.606  45.163  56.005  1.00  0.00    -0.346 OA
BRANCH  16  17
HETATM   17  C   UNL     1      30.663  44.506  57.284  1.00  0.00     0.121 C 
HETATM   18  C   UNL     1      31.887  43.594  57.409  1.00  0.00     0.040 C 
HETATM   19  C   UNL     1      30.747  45.614  58.332  1.00  0.00     0.040 C 
ENDBRANCH  16  17
ENDBRANCH  12  16
ENDBRANCH   7   9
ENDBRANCH   1   7
BRANCH   2  20
HETATM   20  C   UNL     1      25.778  43.059  50.925  1.00  0.00    -0.030 A 
HETATM   21  C   UNL     1      25.436  41.699  50.821  1.00  0.00     0.012 A 
HETATM   22  C   UNL     1      26.387  40.742  50.457  1.00  0.00     0.037 A 
HETATM   23  C   UNL     1      27.692  41.142  50.198  1.00  0.00     0.065 A 
HETATM   24  C   UNL     1      28.061  42.475  50.310  1.00  0.00     0.037 A 
HETATM   25  C   UNL     1      27.113  43.431  50.680  1.00  0.00     0.012 A 
BRANCH  23  26
HETATM   26  O   UNL     1      28.652  40.248  49.832  1.00  0.00    -0.361 OA
HETATM   27  H   UNL     1      28.342  39.348  50.030  1.00  0.00     0.217 HD
ENDBRANCH  23  26
ENDBRANCH   2  20
BRANCH   6  28
HETATM   28  O   UNL     1      25.320  47.619  52.208  1.00  0.00    -0.355 OA
HETATM   29  H   UNL     1      24.513  47.950  52.635  1.00  0.00     0.218 HD
ENDBRANCH   6  28
BRANCH   3  30
HETATM   30  C   UNL     1      23.485  44.306  49.085  1.00  0.00     0.129 C 
BRANCH  30  31
HETATM   31  C   UNL     1      21.983  44.186  49.369  1.00  0.00     0.048 C 
BRANCH  31  32
HETATM   32  C   UNL     1      21.034  45.093  48.578  1.00  0.00     0.236 C 
BRANCH  32  33
HETATM   33  N   UNL     1      20.963  44.782  47.109  1.00  0.00    -0.067 N 
HETATM   34  H   UNL     1      21.705  44.078  46.914  1.00  0.00     0.280 HD
HETATM   35  C   UNL     1      19.627  44.253  46.620  1.00  0.00     0.261 C 
HETATM   36  C   UNL     1      19.707  43.946  45.120  1.00  0.00     0.195 C 
HETATM   37  O   UNL     1      20.099  45.103  44.376  1.00  0.00    -0.388 OA
HETATM   38  C   UNL     1      21.396  45.565  44.775  1.00  0.00     0.195 C 
HETATM   39  C   UNL     1      21.394  45.975  46.253  1.00  0.00     0.261 C 
ENDBRANCH  32  33
ENDBRANCH  31  32
ENDBRANCH  30  31
ENDBRANCH   3  30
TORSDOF 11
ENDMDL
MODEL 5
REMARK VINA RESULT:      -8.5     12.359     14.253
REMARK  11 active torsions:
REMARK  status: ('A' for Active; 'I' for Inactive)
REMARK    1  A    between atoms: C_3  and  O_4 
REMARK    2  A    between atoms: O_4  and  C_5 
REMARK    3  A    between atoms: C_10  and  C_11 
REMARK    4  A    between atoms: C_11  and  C_12 
REMARK    5  A    between atoms: C_13  and  C_14 
REMARK    6  A    between atoms: C_17  and  O_18 
REMARK    7  A    between atoms: N_21  and  C_22 
REMARK    8  A    between atoms: C_22  and  C_23 
REMARK    9  A    between atoms: C_23  and  C_24 
REMARK   10  A    between atoms: C_24  and  N_25 
REMARK   11  A    between atoms: C_34  and  O_35 
ROOT
HETATM    1  C   UNL     1      29.201  52.126  39.812  1.00  0.00     0.059 A 
HETATM    2  C   UNL     1      28.773  50.894  40.570  1.00  0.00     0.161 A 
HETATM    3  N   UNL     1      27.710  50.399  39.709  1.00  0.00    -0.333 N 
HETATM    4  C   UNL     1      27.622  51.113  38.541  1.00  0.00     0.278 A 
HETATM    5  O   UNL     1      26.821  50.899  37.644  1.00  0.00    -0.265 OA
HETATM    6  C   UNL     1      28.550  52.266  38.645  1.00  0.00     0.146 A 
ENDROOT
BRANCH   1   7
HETATM    7  C   UNL     1      30.108  53.059  40.519  1.00  0.00     0.193 C 
HETATM    8  O   UNL     1      29.851  54.258  40.526  1.00  0.00    -0.287 OA
BRANCH   7   9
HETATM    9  C   UNL     1      31.370  52.572  41.115  1.00  0.00     0.015 A 
HETATM   10  C   UNL     1      31.532  52.412  42.495  1.00  0.00     0.018 A 
HETATM   11  C   UNL     1      32.698  51.822  42.987  1.00  0.00     0.038 A 
HETATM   12  C   UNL     1      33.700  51.406  42.106  1.00  0.00     0.075 A 
HETATM   13  C   UNL     1      33.589  51.656  40.730  1.00  0.00    -0.028 A 
HETATM   14  C   UNL     1      34.713  51.327  39.788  1.00  0.00     0.051 C 
HETATM   15  C   UNL     1      32.414  52.241  40.243  1.00  0.00     0.025 A 
BRANCH  12  16
HETATM   16  O   UNL     1      34.838  50.782  42.539  1.00  0.00    -0.346 OA
BRANCH  16  17
HETATM   17  C   UNL     1      35.984  51.637  42.705  1.00  0.00     0.121 C 
HETATM   18  C   UNL     1      35.959  52.380  44.044  1.00  0.00     0.040 C 
HETATM   19  C   UNL     1      37.210  50.729  42.651  1.00  0.00     0.040 C 
ENDBRANCH  16  17
ENDBRANCH  12  16
ENDBRANCH   7   9
ENDBRANCH   1   7
BRANCH   2  20
HETATM   20  C   UNL     1      29.883  49.878  40.770  1.00  0.00    -0.030 A 
HETATM   21  C   UNL     1      30.591  49.402  39.651  1.00  0.00     0.012 A 
HETATM   22  C   UNL     1      31.623  48.471  39.794  1.00  0.00     0.037 A 
HETATM   23  C   UNL     1      31.951  48.006  41.061  1.00  0.00     0.065 A 
HETATM   24  C   UNL     1      31.259  48.446  42.181  1.00  0.00     0.037 A 
HETATM   25  C   UNL     1      30.223  49.372  42.038  1.00  0.00     0.012 A 
BRANCH  23  26
HETATM   26  O   UNL     1      32.955  47.105  41.252  1.00  0.00    -0.361 OA
HETATM   27  H   UNL     1      32.914  46.430  40.554  1.00  0.00     0.217 HD
ENDBRANCH  23  26
ENDBRANCH   2  20
BRANCH   6  28
HETATM   28  O   UNL     1      28.516  53.283  37.740  1.00  0.00    -0.355 OA
HETATM   29  H   UNL     1      27.659  53.319  37.282  1.00  0.00     0.218 HD
ENDBRANCH   6  28
BRANCH   3  30
HETATM   30  C   UNL     1      26.813  49.322  40.085  1.00  0.00     0.129 C 
BRANCH  30  31
HETATM   31  C   UNL     1      27.170  47.969  39.455  1.00  0.00     0.048 C 
BRANCH  31  32
HETATM   32  C   UNL     1      27.413  46.787  40.399  1.00  0.00     0.236 C 
BRANCH  32  33
HETATM   33  N   UNL     1      27.784  45.507  39.703  1.00  0.00    -0.067 N 
HETATM   34  H   UNL     1      27.083  45.362  38.946  1.00  0.00     0.280 HD
HETATM   35  C   UNL     1      29.180  45.470  39.110  1.00  0.00     0.261 C 
HETATM   36  C   UNL     1      29.410  44.129  38.405  1.00  0.00     0.195 C 
HETATM   37  O   UNL     1      29.208  43.032  39.301  1.00  0.00    -0.388 OA
HETATM   38  C   UNL     1      27.868  43.011  39.807  1.00  0.00     0.195 C 
HETATM   39  C   UNL     1      27.569  44.287  40.602  1.00  0.00     0.261 C 
ENDBRANCH  32  33
ENDBRANCH  31  32
ENDBRANCH  30  31
ENDBRANCH   3  30
TORSDOF 11
ENDMDL
MODEL 6
REMARK VINA RESULT:      -8.5     12.021     14.200
REMARK  11 active torsions:
REMARK  status: ('A' for Active; 'I' for Inactive)
REMARK    1  A    between atoms: C_3  and  O_4 
REMARK    2  A    between atoms: O_4  and  C_5 
REMARK    3  A    between atoms: C_10  and  C_11 
REMARK    4  A    between atoms: C_11  and  C_12 
REMARK    5  A    between atoms: C_13  and  C_14 
REMARK    6  A    between atoms: C_17  and  O_18 
REMARK    7  A    between atoms: N_21  and  C_22 
REMARK    8  A    between atoms: C_22  and  C_23 
REMARK    9  A    between atoms: C_23  and  C_24 
REMARK   10  A    between atoms: C_24  and  N_25 
REMARK   11  A    between atoms: C_34  and  O_35 
ROOT
HETATM    1  C   UNL     1      27.525  49.983  38.820  1.00  0.00     0.059 A 
HETATM    2  C   UNL     1      27.765  49.214  40.095  1.00  0.00     0.161 A 
HETATM    3  N   UNL     1      26.879  48.077  39.900  1.00  0.00    -0.333 N 
HETATM    4  C   UNL     1      26.323  48.070  38.645  1.00  0.00     0.278 A 
HETATM    5  O   UNL     1      25.551  47.223  38.222  1.00  0.00    -0.265 OA
HETATM    6  C   UNL     1      26.701  49.339  37.977  1.00  0.00     0.146 A 
ENDROOT
BRANCH   1   7
HETATM    7  C   UNL     1      28.067  51.360  38.763  1.00  0.00     0.193 C 
HETATM    8  O   UNL     1      27.722  52.106  37.853  1.00  0.00    -0.287 OA
BRANCH   7   9
HETATM    9  C   UNL     1      29.100  51.801  39.725  1.00  0.00     0.015 A 
HETATM   10  C   UNL     1      28.787  52.189  41.031  1.00  0.00     0.018 A 
HETATM   11  C   UNL     1      29.818  52.466  41.933  1.00  0.00     0.038 A 
HETATM   12  C   UNL     1      31.151  52.366  41.526  1.00  0.00     0.075 A 
HETATM   13  C   UNL     1      31.469  52.076  40.191  1.00  0.00    -0.028 A 
HETATM   14  C   UNL     1      32.895  52.089  39.713  1.00  0.00     0.051 C 
HETATM   15  C   UNL     1      30.432  51.793  39.295  1.00  0.00     0.025 A 
BRANCH  12  16
HETATM   16  O   UNL     1      32.193  52.582  42.386  1.00  0.00    -0.346 OA
BRANCH  16  17
HETATM   17  C   UNL     1      32.562  51.455  43.202  1.00  0.00     0.121 C 
HETATM   18  C   UNL     1      33.954  50.923  42.852  1.00  0.00     0.040 C 
HETATM   19  C   UNL     1      32.556  51.950  44.646  1.00  0.00     0.040 C 
ENDBRANCH  16  17
ENDBRANCH  12  16
ENDBRANCH   7   9
ENDBRANCH   1   7
BRANCH   2  20
HETATM   20  C   UNL     1      29.210  48.799  40.301  1.00  0.00    -0.030 A 
HETATM   21  C   UNL     1      29.774  48.878  41.587  1.00  0.00     0.012 A 
HETATM   22  C   UNL     1      31.099  48.500  41.818  1.00  0.00     0.037 A 
HETATM   23  C   UNL     1      31.872  48.042  40.759  1.00  0.00     0.065 A 
HETATM   24  C   UNL     1      31.346  47.968  39.476  1.00  0.00     0.037 A 
HETATM   25  C   UNL     1      30.024  48.353  39.243  1.00  0.00     0.012 A 
BRANCH  23  26
HETATM   26  O   UNL     1      33.165  47.653  40.935  1.00  0.00    -0.361 OA
HETATM   27  H   UNL     1      33.636  47.720  40.088  1.00  0.00     0.217 HD
ENDBRANCH  23  26
ENDBRANCH   2  20
BRANCH   6  28
HETATM   28  O   UNL     1      26.110  49.726  36.811  1.00  0.00    -0.355 OA
HETATM   29  H   UNL     1      25.836  50.657  36.847  1.00  0.00     0.218 HD
ENDBRANCH   6  28
BRANCH   3  30
HETATM   30  C   UNL     1      26.574  47.112  40.940  1.00  0.00     0.129 C 
BRANCH  30  31
HETATM   31  C   UNL     1      27.492  45.884  40.936  1.00  0.00     0.048 C 
BRANCH  31  32
HETATM   32  C   UNL     1      26.886  44.543  40.510  1.00  0.00     0.236 C 
BRANCH  32  33
HETATM   33  N   UNL     1      27.656  43.831  39.434  1.00  0.00    -0.067 N 
HETATM   34  H   UNL     1      26.996  43.678  38.642  1.00  0.00     0.280 HD
HETATM   35  C   UNL     1      28.889  44.555  38.928  1.00  0.00     0.261 C 
HETATM   36  C   UNL     1      29.554  43.737  37.816  1.00  0.00     0.195 C 
HETATM   37  O   UNL     1      29.887  42.422  38.270  1.00  0.00    -0.388 OA
HETATM   38  C   UNL     1      28.719  41.698  38.676  1.00  0.00     0.195 C 
HETATM   39  C   UNL     1      28.025  42.404  39.848  1.00  0.00     0.261 C 
ENDBRANCH  32  33
ENDBRANCH  31  32
ENDBRANCH  30  31
ENDBRANCH   3  30
TORSDOF 11
ENDMDL
MODEL 7
REMARK VINA RESULT:      -8.3      2.992      8.732
REMARK  11 active torsions:
REMARK  status: ('A' for Active; 'I' for Inactive)
REMARK    1  A    between atoms: C_3  and  O_4 
REMARK    2  A    between atoms: O_4  and  C_5 
REMARK    3  A    between atoms: C_10  and  C_11 
REMARK    4  A    between atoms: C_11  and  C_12 
REMARK    5  A    between atoms: C_13  and  C_14 
REMARK    6  A    between atoms: C_17  and  O_18 
REMARK    7  A    between atoms: N_21  and  C_22 
REMARK    8  A    between atoms: C_22  and  C_23 
REMARK    9  A    between atoms: C_23  and  C_24 
REMARK   10  A    between atoms: C_24  and  N_25 
REMARK   11  A    between atoms: C_34  and  O_35 
ROOT
HETATM    1  C   UNL     1      25.787  46.151  51.104  1.00  0.00     0.059 A 
HETATM    2  C   UNL     1      26.231  44.715  50.981  1.00  0.00     0.161 A 
HETATM    3  N   UNL     1      26.390  44.357  52.382  1.00  0.00    -0.333 N 
HETATM    4  C   UNL     1      25.954  45.355  53.218  1.00  0.00     0.278 A 
HETATM    5  O   UNL     1      25.969  45.306  54.439  1.00  0.00    -0.265 OA
HETATM    6  C   UNL     1      25.623  46.533  52.381  1.00  0.00     0.146 A 
ENDROOT
BRANCH   1   7
HETATM    7  C   UNL     1      25.772  46.949  49.856  1.00  0.00     0.193 C 
HETATM    8  O   UNL     1      26.828  47.184  49.279  1.00  0.00    -0.287 OA
BRANCH   7   9
HETATM    9  C   UNL     1      24.515  47.555  49.367  1.00  0.00     0.015 A 
HETATM   10  C   UNL     1      23.346  46.810  49.189  1.00  0.00     0.018 A 
HETATM   11  C   UNL     1      22.157  47.463  48.855  1.00  0.00     0.038 A 
HETATM   12  C   UNL     1      22.142  48.851  48.689  1.00  0.00     0.075 A 
HETATM   13  C   UNL     1      23.331  49.591  48.766  1.00  0.00    -0.028 A 
HETATM   14  C   UNL     1      23.348  51.064  48.466  1.00  0.00     0.051 C 
HETATM   15  C   UNL     1      24.517  48.931  49.109  1.00  0.00     0.025 A 
BRANCH  12  16
HETATM   16  O   UNL     1      20.993  49.538  48.407  1.00  0.00    -0.346 OA
BRANCH  16  17
HETATM   17  C   UNL     1      20.109  49.744  49.524  1.00  0.00     0.121 C 
HETATM   18  C   UNL     1      19.884  51.231  49.813  1.00  0.00     0.040 C 
HETATM   19  C   UNL     1      18.780  49.093  49.146  1.00  0.00     0.040 C 
ENDBRANCH  16  17
ENDBRANCH  12  16
ENDBRANCH   7   9
ENDBRANCH   1   7
BRANCH   2  20
HETATM   20  C   UNL     1      25.236  43.822  50.261  1.00  0.00    -0.030 A 
HETATM   21  C   UNL     1      23.930  43.696  50.769  1.00  0.00     0.012 A 
HETATM   22  C   UNL     1      22.984  42.889  50.133  1.00  0.00     0.037 A 
HETATM   23  C   UNL     1      23.340  42.198  48.982  1.00  0.00     0.065 A 
HETATM   24  C   UNL     1      24.626  42.292  48.467  1.00  0.00     0.037 A 
HETATM   25  C   UNL     1      25.575  43.093  49.107  1.00  0.00     0.012 A 
BRANCH  23  26
HETATM   26  O   UNL     1      22.451  41.406  48.320  1.00  0.00    -0.361 OA
HETATM   27  H   UNL     1      22.834  40.520  48.210  1.00  0.00     0.217 HD
ENDBRANCH  23  26
ENDBRANCH   2  20
BRANCH   6  28
HETATM   28  O   UNL     1      25.384  47.752  52.941  1.00  0.00    -0.355 OA
HETATM   29  H   UNL     1      26.191  48.293  52.964  1.00  0.00     0.218 HD
ENDBRANCH   6  28
BRANCH   3  30
HETATM   30  C   UNL     1      27.003  43.119  52.827  1.00  0.00     0.129 C 
BRANCH  30  31
HETATM   31  C   UNL     1      28.208  42.685  51.983  1.00  0.00     0.048 C 
BRANCH  31  32
HETATM   32  C   UNL     1      28.781  41.285  52.228  1.00  0.00     0.236 C 
BRANCH  32  33
HETATM   33  N   UNL     1      28.739  40.382  51.027  1.00  0.00    -0.067 N 
HETATM   34  H   UNL     1      29.241  40.877  50.260  1.00  0.00     0.280 HD
HETATM   35  C   UNL     1      29.351  39.008  51.224  1.00  0.00     0.261 C 
HETATM   36  C   UNL     1      29.272  38.211  49.918  1.00  0.00     0.195 C 
HETATM   37  O   UNL     1      27.922  38.105  49.457  1.00  0.00    -0.388 OA
HETATM   38  C   UNL     1      27.358  39.396  49.191  1.00  0.00     0.195 C 
HETATM   39  C   UNL     1      27.321  40.244  50.468  1.00  0.00     0.261 C 
ENDBRANCH  32  33
ENDBRANCH  31  32
ENDBRANCH  30  31
ENDBRANCH   3  30
TORSDOF 11
ENDMDL
MODEL 8
REMARK VINA RESULT:      -8.3      4.083      9.955
REMARK  11 active torsions:
REMARK  status: ('A' for Active; 'I' for Inactive)
REMARK    1  A    between atoms: C_3  and  O_4 
REMARK    2  A    between atoms: O_4  and  C_5 
REMARK    3  A    between atoms: C_10  and  C_11 
REMARK    4  A    between atoms: C_11  and  C_12 
REMARK    5  A    between atoms: C_13  and  C_14 
REMARK    6  A    between atoms: C_17  and  O_18 
REMARK    7  A    between atoms: N_21  and  C_22 
REMARK    8  A    between atoms: C_22  and  C_23 
REMARK    9  A    between atoms: C_23  and  C_24 
REMARK   10  A    between atoms: C_24  and  N_25 
REMARK   11  A    between atoms: C_34  and  O_35 
ROOT
HETATM    1  C   UNL     1      22.902  47.712  48.590  1.00  0.00     0.059 A 
HETATM    2  C   UNL     1      22.613  46.550  47.674  1.00  0.00     0.161 A 
HETATM    3  N   UNL     1      23.390  45.499  48.313  1.00  0.00    -0.333 N 
HETATM    4  C   UNL     1      23.924  45.911  49.509  1.00  0.00     0.278 A 
HETATM    5  O   UNL     1      24.610  45.222  50.248  1.00  0.00    -0.265 OA
HETATM    6  C   UNL     1      23.652  47.363  49.648  1.00  0.00     0.146 A 
ENDROOT
BRANCH   1   7
HETATM    7  C   UNL     1      22.485  49.052  48.114  1.00  0.00     0.193 C 
HETATM    8  O   UNL     1      23.159  49.626  47.266  1.00  0.00    -0.287 OA
BRANCH   7   9
HETATM    9  C   UNL     1      21.333  49.743  48.732  1.00  0.00     0.015 A 
HETATM   10  C   UNL     1      21.030  51.080  48.458  1.00  0.00     0.018 A 
HETATM   11  C   UNL     1      19.853  51.637  48.964  1.00  0.00     0.038 A 
HETATM   12  C   UNL     1      18.992  50.865  49.750  1.00  0.00     0.075 A 
HETATM   13  C   UNL     1      19.341  49.555  50.112  1.00  0.00    -0.028 A 
HETATM   14  C   UNL     1      18.485  48.759  51.057  1.00  0.00     0.051 C 
HETATM   15  C   UNL     1      20.517  49.001  49.594  1.00  0.00     0.025 A 
BRANCH  12  16
HETATM   16  O   UNL     1      17.808  51.354  50.229  1.00  0.00    -0.346 OA
BRANCH  16  17
HETATM   17  C   UNL     1      16.874  51.795  49.227  1.00  0.00     0.121 C 
HETATM   18  C   UNL     1      16.265  50.622  48.452  1.00  0.00     0.040 C 
HETATM   19  C   UNL     1      15.768  52.542  49.969  1.00  0.00     0.040 C 
ENDBRANCH  16  17
ENDBRANCH  12  16
ENDBRANCH   7   9
ENDBRANCH   1   7
BRANCH   2  20
HETATM   20  C   UNL     1      21.139  46.202  47.568  1.00  0.00    -0.030 A 
HETATM   21  C   UNL     1      20.457  46.453  46.363  1.00  0.00     0.012 A 
HETATM   22  C   UNL     1      19.102  46.142  46.223  1.00  0.00     0.037 A 
HETATM   23  C   UNL     1      18.418  45.579  47.293  1.00  0.00     0.065 A 
HETATM   24  C   UNL     1      19.062  45.335  48.499  1.00  0.00     0.037 A 
HETATM   25  C   UNL     1      20.415  45.652  48.641  1.00  0.00     0.012 A 
BRANCH  23  26
HETATM   26  O   UNL     1      17.099  45.250  47.203  1.00  0.00    -0.361 OA
HETATM   27  H   UNL     1      16.862  44.679  47.953  1.00  0.00     0.217 HD
ENDBRANCH  23  26
ENDBRANCH   2  20
BRANCH   6  28
HETATM   28  O   UNL     1      24.258  48.104  50.618  1.00  0.00    -0.355 OA
HETATM   29  H   UNL     1      25.072  47.676  50.931  1.00  0.00     0.218 HD
ENDBRANCH   6  28
BRANCH   3  30
HETATM   30  C   UNL     1      23.623  44.199  47.713  1.00  0.00     0.129 C 
BRANCH  30  31
HETATM   31  C   UNL     1      22.763  43.077  48.310  1.00  0.00     0.048 C 
BRANCH  31  32
HETATM   32  C   UNL     1      23.449  42.076  49.246  1.00  0.00     0.236 C 
BRANCH  32  33
HETATM   33  N   UNL     1      24.950  42.163  49.250  1.00  0.00    -0.067 N 
HETATM   34  H   UNL     1      25.199  43.098  48.864  1.00  0.00     0.280 HD
HETATM   35  C   UNL     1      25.608  41.985  50.605  1.00  0.00     0.261 C 
HETATM   36  C   UNL     1      27.128  42.131  50.468  1.00  0.00     0.195 C 
HETATM   37  O   UNL     1      27.654  41.197  49.521  1.00  0.00    -0.388 OA
HETATM   38  C   UNL     1      27.097  41.406  48.217  1.00  0.00     0.195 C 
HETATM   39  C   UNL     1      25.577  41.201  48.237  1.00  0.00     0.261 C 
ENDBRANCH  32  33
ENDBRANCH  31  32
ENDBRANCH  30  31
ENDBRANCH   3  30
TORSDOF 11
ENDMDL
MODEL 9
REMARK VINA RESULT:      -8.3      2.682      8.507
REMARK  11 active torsions:
REMARK  status: ('A' for Active; 'I' for Inactive)
REMARK    1  A    between atoms: C_3  and  O_4 
REMARK    2  A    between atoms: O_4  and  C_5 
REMARK    3  A    between atoms: C_10  and  C_11 
REMARK    4  A    between atoms: C_11  and  C_12 
REMARK    5  A    between atoms: C_13  and  C_14 
REMARK    6  A    between atoms: C_17  and  O_18 
REMARK    7  A    between atoms: N_21  and  C_22 
REMARK    8  A    between atoms: C_22  and  C_23 
REMARK    9  A    between atoms: C_23  and  C_24 
REMARK   10  A    between atoms: C_24  and  N_25 
REMARK   11  A    between atoms: C_34  and  O_35 
ROOT
HETATM    1  C   UNL     1      26.722  44.464  51.512  1.00  0.00     0.059 A 
HETATM    2  C   UNL     1      27.720  43.367  51.785  1.00  0.00     0.161 A 
HETATM    3  N   UNL     1      27.724  43.357  53.240  1.00  0.00    -0.333 N 
HETATM    4  C   UNL     1      26.765  44.189  53.761  1.00  0.00     0.278 A 
HETATM    5  O   UNL     1      26.552  44.359  54.951  1.00  0.00    -0.265 OA
HETATM    6  C   UNL     1      26.165  44.946  52.635  1.00  0.00     0.146 A 
ENDROOT
BRANCH   1   7
HETATM    7  C   UNL     1      26.640  44.953  50.117  1.00  0.00     0.193 C 
HETATM    8  O   UNL     1      27.256  44.365  49.235  1.00  0.00    -0.287 OA
BRANCH   7   9
HETATM    9  C   UNL     1      25.916  46.203  49.800  1.00  0.00     0.015 A 
HETATM   10  C   UNL     1      24.520  46.283  49.818  1.00  0.00     0.018 A 
HETATM   11  C   UNL     1      23.899  47.522  49.644  1.00  0.00     0.038 A 
HETATM   12  C   UNL     1      24.670  48.671  49.441  1.00  0.00     0.075 A 
HETATM   13  C   UNL     1      26.064  48.581  49.321  1.00  0.00    -0.028 A 
HETATM   14  C   UNL     1      26.892  49.789  48.979  1.00  0.00     0.051 C 
HETATM   15  C   UNL     1      26.680  47.338  49.505  1.00  0.00     0.025 A 
BRANCH  12  16
HETATM   16  O   UNL     1      24.107  49.911  49.312  1.00  0.00    -0.346 OA
BRANCH  16  17
HETATM   17  C   UNL     1      22.692  49.921  49.052  1.00  0.00     0.121 C 
HETATM   18  C   UNL     1      21.943  50.881  49.981  1.00  0.00     0.040 C 
HETATM   19  C   UNL     1      22.523  50.379  47.606  1.00  0.00     0.040 C 
ENDBRANCH  16  17
ENDBRANCH  12  16
ENDBRANCH   7   9
ENDBRANCH   1   7
BRANCH   2  20
HETATM   20  C   UNL     1      27.335  42.023  51.193  1.00  0.00    -0.030 A 
HETATM   21  C   UNL     1      28.345  41.107  50.848  1.00  0.00     0.012 A 
HETATM   22  C   UNL     1      28.031  39.858  50.306  1.00  0.00     0.037 A 
HETATM   23  C   UNL     1      26.699  39.518  50.102  1.00  0.00     0.065 A 
HETATM   24  C   UNL     1      25.683  40.409  50.420  1.00  0.00     0.037 A 
HETATM   25  C   UNL     1      25.996  41.660  50.955  1.00  0.00     0.012 A 
BRANCH  23  26
HETATM   26  O   UNL     1      26.343  38.310  49.585  1.00  0.00    -0.361 OA
HETATM   27  H   UNL     1      25.373  38.258  49.538  1.00  0.00     0.217 HD
ENDBRANCH  23  26
ENDBRANCH   2  20
BRANCH   6  28
HETATM   28  O   UNL     1      25.349  46.014  52.858  1.00  0.00    -0.355 OA
HETATM   29  H   UNL     1      25.786  46.681  53.414  1.00  0.00     0.218 HD
ENDBRANCH   6  28
BRANCH   3  30
HETATM   30  C   UNL     1      28.679  42.604  54.032  1.00  0.00     0.129 C 
BRANCH  30  31
HETATM   31  C   UNL     1      30.090  43.203  54.036  1.00  0.00     0.048 C 
BRANCH  31  32
HETATM   32  C   UNL     1      30.895  43.121  55.338  1.00  0.00     0.236 C 
BRANCH  32  33
HETATM   33  N   UNL     1      30.372  43.995  56.443  1.00  0.00    -0.067 N 
HETATM   34  H   UNL     1      29.510  43.537  56.807  1.00  0.00     0.280 HD
HETATM   35  C   UNL     1      31.334  44.239  57.590  1.00  0.00     0.261 C 
HETATM   36  C   UNL     1      30.663  45.112  58.656  1.00  0.00     0.195 C 
HETATM   37  O   UNL     1      30.209  46.350  58.101  1.00  0.00    -0.388 OA
HETATM   38  C   UNL     1      29.238  46.134  57.068  1.00  0.00     0.195 C 
HETATM   39  C   UNL     1      29.847  45.331  55.912  1.00  0.00     0.261 C 
ENDBRANCH  32  33
ENDBRANCH  31  32
ENDBRANCH  30  31
ENDBRANCH   3  30
TORSDOF 11
ENDMDL
MODEL 10
REMARK VINA RESULT:      -8.2     11.769     13.251
REMARK  11 active torsions:
REMARK  status: ('A' for Active; 'I' for Inactive)
REMARK    1  A    between atoms: C_3  and  O_4 
REMARK    2  A    between atoms: O_4  and  C_5 
REMARK    3  A    between atoms: C_10  and  C_11 
REMARK    4  A    between atoms: C_11  and  C_12 
REMARK    5  A    between atoms: C_13  and  C_14 
REMARK    6  A    between atoms: C_17  and  O_18 
REMARK    7  A    between atoms: N_21  and  C_22 
REMARK    8  A    between atoms: C_22  and  C_23 
REMARK    9  A    between atoms: C_23  and  C_24 
REMARK   10  A    between atoms: C_24  and  N_25 
REMARK   11  A    between atoms: C_34  and  O_35 
ROOT
HETATM    1  C   UNL     1      27.714  50.244  40.109  1.00  0.00     0.059 A 
HETATM    2  C   UNL     1      27.950  48.974  40.887  1.00  0.00     0.161 A 
HETATM    3  N   UNL     1      27.210  48.017  40.079  1.00  0.00    -0.333 N 
HETATM    4  C   UNL     1      26.745  48.580  38.916  1.00  0.00     0.278 A 
HETATM    5  O   UNL     1      26.101  47.993  38.059  1.00  0.00    -0.265 OA
HETATM    6  C   UNL     1      27.025  50.035  38.975  1.00  0.00     0.146 A 
ENDROOT
BRANCH   1   7
HETATM    7  C   UNL     1      28.104  51.510  40.771  1.00  0.00     0.193 C 
HETATM    8  O   UNL     1      27.245  52.350  41.019  1.00  0.00    -0.287 OA
BRANCH   7   9
HETATM    9  C   UNL     1      29.527  51.814  41.032  1.00  0.00     0.015 A 
HETATM   10  C   UNL     1      29.989  52.206  42.293  1.00  0.00     0.018 A 
HETATM   11  C   UNL     1      31.361  52.348  42.510  1.00  0.00     0.038 A 
HETATM   12  C   UNL     1      32.264  52.111  41.470  1.00  0.00     0.075 A 
HETATM   13  C   UNL     1      31.803  51.817  40.178  1.00  0.00    -0.028 A 
HETATM   14  C   UNL     1      32.758  51.684  39.025  1.00  0.00     0.051 C 
HETATM   15  C   UNL     1      30.427  51.669  39.969  1.00  0.00     0.025 A 
BRANCH  12  16
HETATM   16  O   UNL     1      33.619  52.193  41.648  1.00  0.00    -0.346 OA
BRANCH  16  17
HETATM   17  C   UNL     1      34.181  51.217  42.544  1.00  0.00     0.121 C 
HETATM   18  C   UNL     1      35.374  50.486  41.923  1.00  0.00     0.040 C 
HETATM   19  C   UNL     1      34.644  51.985  43.780  1.00  0.00     0.040 C 
ENDBRANCH  16  17
ENDBRANCH  12  16
ENDBRANCH   7   9
ENDBRANCH   1   7
BRANCH   2  20
HETATM   20  C   UNL     1      29.415  48.605  41.032  1.00  0.00    -0.030 A 
HETATM   21  C   UNL     1      30.036  48.731  42.288  1.00  0.00     0.012 A 
HETATM   22  C   UNL     1      31.382  48.396  42.464  1.00  0.00     0.037 A 
HETATM   23  C   UNL     1      32.117  47.934  41.379  1.00  0.00     0.065 A 
HETATM   24  C   UNL     1      31.533  47.815  40.125  1.00  0.00     0.037 A 
HETATM   25  C   UNL     1      30.190  48.157  39.947  1.00  0.00     0.012 A 
BRANCH  23  26
HETATM   26  O   UNL     1      33.428  47.587  41.502  1.00  0.00    -0.361 OA
HETATM   27  H   UNL     1      33.678  47.615  42.441  1.00  0.00     0.217 HD
ENDBRANCH  23  26
ENDBRANCH   2  20
BRANCH   6  28
HETATM   28  O   UNL     1      26.476  50.896  38.074  1.00  0.00    -0.355 OA
HETATM   29  H   UNL     1      25.710  51.361  38.451  1.00  0.00     0.218 HD
ENDBRANCH   6  28
BRANCH   3  30
HETATM   30  C   UNL     1      26.943  46.654  40.498  1.00  0.00     0.129 C 
BRANCH  30  31
HETATM   31  C   UNL     1      25.559  46.457  41.127  1.00  0.00     0.048 C 
BRANCH  31  32
HETATM   32  C   UNL     1      24.483  45.769  40.280  1.00  0.00     0.236 C 
BRANCH  32  33
HETATM   33  N   UNL     1      23.612  46.714  39.501  1.00  0.00    -0.067 N 
HETATM   34  H   UNL     1      24.182  47.060  38.701  1.00  0.00     0.280 HD
HETATM   35  C   UNL     1      22.316  46.123  38.977  1.00  0.00     0.261 C 
HETATM   36  C   UNL     1      21.548  47.180  38.177  1.00  0.00     0.195 C 
HETATM   37  O   UNL     1      21.293  48.344  38.969  1.00  0.00    -0.388 OA
HETATM   38  C   UNL     1      22.512  48.957  39.404  1.00  0.00     0.195 C 
HETATM   39  C   UNL     1      23.318  47.995  40.286  1.00  0.00     0.261 C 
ENDBRANCH  32  33
ENDBRANCH  31  32
ENDBRANCH  30  31
ENDBRANCH   3  30
TORSDOF 11
ENDMDL
