MODEL 1
REMARK VINA RESULT:     -10.2      0.000      0.000
REMARK  6 active torsions:
REMARK  status: ('A' for Active; 'I' for Inactive)
REMARK    1  A    between atoms: C_9  and  C_10 
REMARK    2  A    between atoms: C_10  and  N_11 
REMARK       I    between atoms: N_11  and  C_12 
REMARK    3  A    between atoms: N_11  and  C_22 
REMARK    4  A    between atoms: C_12  and  C_13 
REMARK    5  A    between atoms: C_15  and  O_16 
REMARK    6  A    between atoms: C_22  and  C_23 
ROOT
HETATM    1  N   UNL     1      26.017  45.673  50.962  1.00  0.00    -0.341 N 
HETATM    2  C   UNL     1      25.615  47.013  51.120  1.00  0.00     0.254 C 
HETATM    3  O   UNL     1      25.003  47.433  52.100  1.00  0.00    -0.267 OA
ENDROOT
BRANCH   1   4
HETATM    4  C   UNL     1      25.790  44.807  52.123  1.00  0.00     0.170 C 
BRANCH   4   5
HETATM    5  C   UNL     1      27.059  44.533  52.884  1.00  0.00     0.029 A 
HETATM    6  C   UNL     1      27.888  43.364  52.459  1.00  0.00     0.253 A 
HETATM    7  N   UNL     1      29.030  43.115  53.177  1.00  0.00    -0.322 N 
HETATM    8  O   UNL     1      27.574  42.638  51.519  1.00  0.00    -0.268 OA
HETATM    9  C   UNL     1      29.413  43.845  54.307  1.00  0.00     0.045 A 
HETATM   10  H   UNL     1      29.582  42.327  52.869  1.00  0.00     0.169 HD
HETATM   11  C   UNL     1      28.618  44.914  54.730  1.00  0.00    -0.008 A 
HETATM   12  C   UNL     1      30.561  43.491  55.013  1.00  0.00     0.031 A 
HETATM   13  C   UNL     1      28.967  45.617  55.888  1.00  0.00     0.020 A 
HETATM   14  C   UNL     1      27.425  45.255  53.960  1.00  0.00     0.028 A 
HETATM   15  C   UNL     1      30.099  45.248  56.628  1.00  0.00    -0.061 A 
HETATM   16  C   UNL     1      30.471  46.005  57.869  1.00  0.00     0.048 C 
HETATM   17  C   UNL     1      30.904  44.196  56.169  1.00  0.00     0.009 A 
ENDBRANCH   4   5
ENDBRANCH   1   4
BRANCH   1  18
HETATM   18  C   UNL     1      25.926  45.067  49.614  1.00  0.00     0.158 C 
BRANCH  18  19
HETATM   19  C   UNL     1      24.686  44.208  49.311  1.00  0.00     0.139 C 
HETATM   20  O   UNL     1      23.887  44.828  48.276  1.00  0.00    -0.384 OA
HETATM   21  C   UNL     1      23.398  43.807  47.396  1.00  0.00     0.168 C 
HETATM   22  C   UNL     1      23.780  42.477  48.007  1.00  0.00     0.029 C 
HETATM   23  C   UNL     1      25.034  42.831  48.765  1.00  0.00     0.035 C 
ENDBRANCH  18  19
ENDBRANCH   1  18
BRANCH   2  24
HETATM   24  C   UNL     1      25.952  47.993  50.058  1.00  0.00     0.034 A 
HETATM   25  C   UNL     1      24.912  48.537  49.292  1.00  0.00     0.053 A 
HETATM   26  C   UNL     1      25.195  49.487  48.312  1.00  0.00     0.069 A 
HETATM   27  C   UNL     1      26.520  49.883  48.103  1.00  0.00     0.037 A 
HETATM   28  C   UNL     1      27.554  49.365  48.887  1.00  0.00     0.004 A 
HETATM   29  C   UNL     1      27.270  48.429  49.878  1.00  0.00     0.017 A 
BRANCH  26  30
HETATM   30  O   UNL     1      24.280  50.093  47.495  1.00  0.00    -0.356 OA
HETATM   31  C   UNL     1      23.189  50.745  48.135  1.00  0.00     0.210 C 
ENDBRANCH  26  30
ENDBRANCH   2  24
TORSDOF 6
ENDMDL
MODEL 2
REMARK VINA RESULT:      -9.4      1.696      2.481
REMARK  6 active torsions:
REMARK  status: ('A' for Active; 'I' for Inactive)
REMARK    1  A    between atoms: C_9  and  C_10 
REMARK    2  A    between atoms: C_10  and  N_11 
REMARK       I    between atoms: N_11  and  C_12 
REMARK    3  A    between atoms: N_11  and  C_22 
REMARK    4  A    between atoms: C_12  and  C_13 
REMARK    5  A    between atoms: C_15  and  O_16 
REMARK    6  A    between atoms: C_22  and  C_23 
ROOT
HETATM    1  N   UNL     1      26.316  45.944  51.597  1.00  0.00    -0.341 N 
HETATM    2  C   UNL     1      25.570  47.098  51.291  1.00  0.00     0.254 C 
HETATM    3  O   UNL     1      24.551  47.433  51.890  1.00  0.00    -0.267 OA
ENDROOT
BRANCH   1   4
HETATM    4  C   UNL     1      25.884  45.215  52.794  1.00  0.00     0.170 C 
BRANCH   4   5
HETATM    5  C   UNL     1      26.848  45.379  53.937  1.00  0.00     0.029 A 
HETATM    6  C   UNL     1      26.698  46.584  54.809  1.00  0.00     0.253 A 
HETATM    7  N   UNL     1      27.599  46.729  55.834  1.00  0.00    -0.322 N 
HETATM    8  O   UNL     1      25.822  47.427  54.627  1.00  0.00    -0.268 OA
HETATM    9  C   UNL     1      28.671  45.858  56.056  1.00  0.00     0.045 A 
HETATM   10  H   UNL     1      27.476  47.544  56.417  1.00  0.00     0.169 HD
HETATM   11  C   UNL     1      28.836  44.752  55.218  1.00  0.00    -0.008 A 
HETATM   12  C   UNL     1      29.574  46.109  57.087  1.00  0.00     0.031 A 
HETATM   13  C   UNL     1      29.934  43.905  55.402  1.00  0.00     0.020 A 
HETATM   14  C   UNL     1      27.865  44.523  54.151  1.00  0.00     0.028 A 
HETATM   15  C   UNL     1      30.870  44.167  56.412  1.00  0.00    -0.061 A 
HETATM   16  C   UNL     1      32.045  43.255  56.609  1.00  0.00     0.048 C 
HETATM   17  C   UNL     1      30.669  45.261  57.265  1.00  0.00     0.009 A 
ENDBRANCH   4   5
ENDBRANCH   1   4
BRANCH   1  18
HETATM   18  C   UNL     1      26.893  45.163  50.479  1.00  0.00     0.158 C 
BRANCH  18  19
HETATM   19  C   UNL     1      26.571  43.659  50.431  1.00  0.00     0.139 C 
HETATM   20  O   UNL     1      26.312  43.244  49.069  1.00  0.00    -0.384 OA
HETATM   21  C   UNL     1      26.912  41.959  48.856  1.00  0.00     0.168 C 
HETATM   22  C   UNL     1      27.429  41.485  50.196  1.00  0.00     0.029 C 
HETATM   23  C   UNL     1      27.731  42.788  50.892  1.00  0.00     0.035 C 
ENDBRANCH  18  19
ENDBRANCH   1  18
BRANCH   2  24
HETATM   24  C   UNL     1      26.035  47.982  50.193  1.00  0.00     0.034 A 
HETATM   25  C   UNL     1      25.080  48.555  49.343  1.00  0.00     0.053 A 
HETATM   26  C   UNL     1      25.484  49.418  48.326  1.00  0.00     0.069 A 
HETATM   27  C   UNL     1      26.845  49.697  48.163  1.00  0.00     0.037 A 
HETATM   28  C   UNL     1      27.796  49.151  49.029  1.00  0.00     0.004 A 
HETATM   29  C   UNL     1      27.390  48.303  50.057  1.00  0.00     0.017 A 
BRANCH  26  30
HETATM   30  O   UNL     1      24.660  50.040  47.427  1.00  0.00    -0.356 OA
HETATM   31  C   UNL     1      23.436  50.554  47.939  1.00  0.00     0.210 C 
ENDBRANCH  26  30
ENDBRANCH   2  24
TORSDOF 6
ENDMDL
MODEL 3
REMARK VINA RESULT:      -8.7      3.016      6.758
REMARK  6 active torsions:
REMARK  status: ('A' for Active; 'I' for Inactive)
REMARK    1  A    between atoms: C_9  and  C_10 
REMARK    2  A    between atoms: C_10  and  N_11 
REMARK       I    between atoms: N_11  and  C_12 
REMARK    3  A    between atoms: N_11  and  C_22 
REMARK    4  A    between atoms: C_12  and  C_13 
REMARK    5  A    between atoms: C_15  and  O_16 
REMARK    6  A    between atoms: C_22  and  C_23 
ROOT
HETATM    1  N   UNL     1      25.837  44.258  52.040  1.00  0.00    -0.341 N 
HETATM    2  C   UNL     1      25.684  44.499  53.418  1.00  0.00     0.254 C 
HETATM    3  O   UNL     1      24.706  44.141  54.071  1.00  0.00    -0.267 OA
ENDROOT
BRANCH   1   4
HETATM    4  C   UNL     1      24.806  43.411  51.431  1.00  0.00     0.170 C 
BRANCH   4   5
HETATM    5  C   UNL     1      25.397  42.250  50.678  1.00  0.00     0.029 A 
HETATM    6  C   UNL     1      24.588  41.651  49.573  1.00  0.00     0.253 A 
HETATM    7  N   UNL     1      25.132  40.580  48.910  1.00  0.00    -0.322 N 
HETATM    8  O   UNL     1      23.477  42.077  49.262  1.00  0.00    -0.268 OA
HETATM    9  C   UNL     1      26.351  39.989  49.257  1.00  0.00     0.045 A 
HETATM   10  H   UNL     1      24.574  40.196  48.161  1.00  0.00     0.169 HD
HETATM   11  C   UNL     1      27.091  40.522  50.316  1.00  0.00    -0.008 A 
HETATM   12  C   UNL     1      26.806  38.867  48.567  1.00  0.00     0.031 A 
HETATM   13  C   UNL     1      28.286  39.906  50.701  1.00  0.00     0.020 A 
HETATM   14  C   UNL     1      26.581  41.701  51.011  1.00  0.00     0.028 A 
HETATM   15  C   UNL     1      28.737  38.756  50.040  1.00  0.00    -0.061 A 
HETATM   16  C   UNL     1      30.021  38.099  50.454  1.00  0.00     0.048 C 
HETATM   17  C   UNL     1      28.000  38.255  48.957  1.00  0.00     0.009 A 
ENDBRANCH   4   5
ENDBRANCH   1   4
BRANCH   1  18
HETATM   18  C   UNL     1      26.447  45.318  51.205  1.00  0.00     0.158 C 
BRANCH  18  19
HETATM   19  C   UNL     1      25.634  46.609  51.002  1.00  0.00     0.139 C 
HETATM   20  O   UNL     1      26.484  47.662  50.490  1.00  0.00    -0.384 OA
HETATM   21  C   UNL     1      25.756  48.404  49.502  1.00  0.00     0.168 C 
HETATM   22  C   UNL     1      24.335  47.886  49.519  1.00  0.00     0.029 C 
HETATM   23  C   UNL     1      24.529  46.459  49.966  1.00  0.00     0.035 C 
ENDBRANCH  18  19
ENDBRANCH   1  18
BRANCH   2  24
HETATM   24  C   UNL     1      26.764  45.210  54.146  1.00  0.00     0.034 A 
HETATM   25  C   UNL     1      27.925  44.502  54.486  1.00  0.00     0.053 A 
HETATM   26  C   UNL     1      28.970  45.154  55.138  1.00  0.00     0.069 A 
HETATM   27  C   UNL     1      28.843  46.512  55.450  1.00  0.00     0.037 A 
HETATM   28  C   UNL     1      27.700  47.227  55.085  1.00  0.00     0.004 A 
HETATM   29  C   UNL     1      26.662  46.580  54.417  1.00  0.00     0.017 A 
BRANCH  26  30
HETATM   30  O   UNL     1      30.151  44.584  55.528  1.00  0.00    -0.356 OA
HETATM   31  C   UNL     1      30.455  43.310  54.973  1.00  0.00     0.210 C 
ENDBRANCH  26  30
ENDBRANCH   2  24
TORSDOF 6
ENDMDL
MODEL 4
REMARK VINA RESULT:      -8.7      1.502      1.784
REMARK  6 active torsions:
REMARK  status: ('A' for Active; 'I' for Inactive)
REMARK    1  A    between atoms: C_9  and  C_10 
REMARK    2  A    between atoms: C_10  and  N_11 
REMARK       I    between atoms: N_11  and  C_12 
REMARK    3  A    between atoms: N_11  and  C_22 
REMARK    4  A    between atoms: C_12  and  C_13 
REMARK    5  A    between atoms: C_15  and  O_16 
REMARK    6  A    between atoms: C_22  and  C_23 
ROOT
HETATM    1  N   UNL     1      26.098  44.219  50.991  1.00  0.00    -0.341 N 
HETATM    2  C   UNL     1      25.224  45.270  51.331  1.00  0.00     0.254 C 
HETATM    3  O   UNL     1      24.497  45.262  52.322  1.00  0.00    -0.267 OA
ENDROOT
BRANCH   1   4
HETATM    4  C   UNL     1      26.205  43.145  51.984  1.00  0.00     0.170 C 
BRANCH   4   5
HETATM    5  C   UNL     1      27.458  43.259  52.810  1.00  0.00     0.029 A 
HETATM    6  C   UNL     1      28.542  42.257  52.573  1.00  0.00     0.253 A 
HETATM    7  N   UNL     1      29.669  42.362  53.349  1.00  0.00    -0.322 N 
HETATM    8  O   UNL     1      28.446  41.365  51.734  1.00  0.00    -0.268 OA
HETATM    9  C   UNL     1      29.820  43.298  54.378  1.00  0.00     0.045 A 
HETATM   10  H   UNL     1      30.393  41.682  53.168  1.00  0.00     0.169 HD
HETATM   11  C   UNL     1      28.791  44.210  54.627  1.00  0.00    -0.008 A 
HETATM   12  C   UNL     1      30.975  43.300  55.157  1.00  0.00     0.031 A 
HETATM   13  C   UNL     1      28.913  45.115  55.686  1.00  0.00     0.020 A 
HETATM   14  C   UNL     1      27.598  44.176  53.785  1.00  0.00     0.028 A 
HETATM   15  C   UNL     1      30.054  45.104  56.501  1.00  0.00    -0.061 A 
HETATM   16  C   UNL     1      30.184  46.078  57.635  1.00  0.00     0.048 C 
HETATM   17  C   UNL     1      31.092  44.206  56.214  1.00  0.00     0.009 A 
ENDBRANCH   4   5
ENDBRANCH   1   4
BRANCH   1  18
HETATM   18  C   UNL     1      26.244  43.861  49.562  1.00  0.00     0.158 C 
BRANCH  18  19
HETATM   19  C   UNL     1      25.878  42.423  49.155  1.00  0.00     0.139 C 
HETATM   20  O   UNL     1      24.779  42.432  48.215  1.00  0.00    -0.384 OA
HETATM   21  C   UNL     1      25.022  41.437  47.211  1.00  0.00     0.168 C 
HETATM   22  C   UNL     1      26.251  40.667  47.641  1.00  0.00     0.029 C 
HETATM   23  C   UNL     1      27.007  41.704  48.432  1.00  0.00     0.035 C 
ENDBRANCH  18  19
ENDBRANCH   1  18
BRANCH   2  24
HETATM   24  C   UNL     1      25.175  46.471  50.461  1.00  0.00     0.034 A 
HETATM   25  C   UNL     1      23.978  46.772  49.799  1.00  0.00     0.053 A 
HETATM   26  C   UNL     1      23.892  47.914  49.004  1.00  0.00     0.069 A 
HETATM   27  C   UNL     1      25.009  48.745  48.875  1.00  0.00     0.037 A 
HETATM   28  C   UNL     1      26.194  48.464  49.559  1.00  0.00     0.004 A 
HETATM   29  C   UNL     1      26.275  47.332  50.368  1.00  0.00     0.017 A 
BRANCH  26  30
HETATM   30  O   UNL     1      22.790  48.322  48.303  1.00  0.00    -0.356 OA
HETATM   31  C   UNL     1      21.573  48.421  49.034  1.00  0.00     0.210 C 
ENDBRANCH  26  30
ENDBRANCH   2  24
TORSDOF 6
ENDMDL
MODEL 5
REMARK VINA RESULT:      -8.3     11.222     14.067
REMARK  6 active torsions:
REMARK  status: ('A' for Active; 'I' for Inactive)
REMARK    1  A    between atoms: C_9  and  C_10 
REMARK    2  A    between atoms: C_10  and  N_11 
REMARK       I    between atoms: N_11  and  C_12 
REMARK    3  A    between atoms: N_11  and  C_22 
REMARK    4  A    between atoms: C_12  and  C_13 
REMARK    5  A    between atoms: C_15  and  O_16 
REMARK    6  A    between atoms: C_22  and  C_23 
ROOT
HETATM    1  N   UNL     1      30.233  50.142  41.724  1.00  0.00    -0.341 N 
HETATM    2  C   UNL     1      31.227  49.560  42.532  1.00  0.00     0.254 C 
HETATM    3  O   UNL     1      31.017  48.636  43.317  1.00  0.00    -0.267 OA
ENDROOT
BRANCH   1   4
HETATM    4  C   UNL     1      28.925  49.480  41.760  1.00  0.00     0.170 C 
BRANCH   4   5
HETATM    5  C   UNL     1      28.676  48.647  40.532  1.00  0.00     0.029 A 
HETATM    6  C   UNL     1      27.761  49.201  39.487  1.00  0.00     0.253 A 
HETATM    7  N   UNL     1      27.528  48.420  38.383  1.00  0.00    -0.322 N 
HETATM    8  O   UNL     1      27.222  50.300  39.596  1.00  0.00    -0.268 OA
HETATM    9  C   UNL     1      28.039  47.128  38.224  1.00  0.00     0.045 A 
HETATM   10  H   UNL     1      26.916  48.816  37.685  1.00  0.00     0.169 HD
HETATM   11  C   UNL     1      28.862  46.592  39.218  1.00  0.00    -0.008 A 
HETATM   12  C   UNL     1      27.707  46.379  37.096  1.00  0.00     0.031 A 
HETATM   13  C   UNL     1      29.335  45.282  39.089  1.00  0.00     0.020 A 
HETATM   14  C   UNL     1      29.188  47.411  40.382  1.00  0.00     0.028 A 
HETATM   15  C   UNL     1      28.980  44.505  37.978  1.00  0.00    -0.061 A 
HETATM   16  C   UNL     1      29.491  43.101  37.842  1.00  0.00     0.048 C 
HETATM   17  C   UNL     1      28.182  45.071  36.974  1.00  0.00     0.009 A 
ENDBRANCH   4   5
ENDBRANCH   1   4
BRANCH   1  18
HETATM   18  C   UNL     1      30.263  51.608  41.520  1.00  0.00     0.158 C 
BRANCH  18  19
HETATM   19  C   UNL     1      30.855  52.123  40.197  1.00  0.00     0.139 C 
HETATM   20  O   UNL     1      32.090  52.835  40.443  1.00  0.00    -0.384 OA
HETATM   21  C   UNL     1      33.029  52.503  39.411  1.00  0.00     0.168 C 
HETATM   22  C   UNL     1      32.286  51.670  38.390  1.00  0.00     0.029 C 
HETATM   23  C   UNL     1      31.233  51.003  39.238  1.00  0.00     0.035 C 
ENDBRANCH  18  19
ENDBRANCH   1  18
BRANCH   2  24
HETATM   24  C   UNL     1      32.618  50.066  42.435  1.00  0.00     0.034 A 
HETATM   25  C   UNL     1      33.030  51.071  43.321  1.00  0.00     0.053 A 
HETATM   26  C   UNL     1      34.341  51.541  43.277  1.00  0.00     0.069 A 
HETATM   27  C   UNL     1      35.231  51.003  42.341  1.00  0.00     0.037 A 
HETATM   28  C   UNL     1      34.832  49.980  41.479  1.00  0.00     0.004 A 
HETATM   29  C   UNL     1      33.526  49.497  41.534  1.00  0.00     0.017 A 
BRANCH  26  30
HETATM   30  O   UNL     1      34.871  52.516  44.077  1.00  0.00    -0.356 OA
HETATM   31  C   UNL     1      36.287  52.661  44.049  1.00  0.00     0.210 C 
ENDBRANCH  26  30
ENDBRANCH   2  24
TORSDOF 6
ENDMDL
MODEL 6
REMARK VINA RESULT:      -8.3      2.243      3.363
REMARK  6 active torsions:
REMARK  status: ('A' for Active; 'I' for Inactive)
REMARK    1  A    between atoms: C_9  and  C_10 
REMARK    2  A    between atoms: C_10  and  N_11 
REMARK       I    between atoms: N_11  and  C_12 
REMARK    3  A    between atoms: N_11  and  C_22 
REMARK    4  A    between atoms: C_12  and  C_13 
REMARK    5  A    between atoms: C_15  and  O_16 
REMARK    6  A    between atoms: C_22  and  C_23 
ROOT
HETATM    1  N   UNL     1      25.638  42.798  50.216  1.00  0.00    -0.341 N 
HETATM    2  C   UNL     1      24.480  43.425  50.715  1.00  0.00     0.254 C 
HETATM    3  O   UNL     1      23.845  43.017  51.685  1.00  0.00    -0.267 OA
ENDROOT
BRANCH   1   4
HETATM    4  C   UNL     1      26.144  41.681  51.021  1.00  0.00     0.170 C 
BRANCH   4   5
HETATM    5  C   UNL     1      27.301  42.088  51.892  1.00  0.00     0.029 A 
HETATM    6  C   UNL     1      28.519  41.220  51.886  1.00  0.00     0.253 A 
HETATM    7  N   UNL     1      29.556  41.594  52.702  1.00  0.00    -0.322 N 
HETATM    8  O   UNL     1      28.603  40.206  51.196  1.00  0.00    -0.268 OA
HETATM    9  C   UNL     1      29.504  42.687  53.574  1.00  0.00     0.045 A 
HETATM   10  H   UNL     1      30.372  41.000  52.677  1.00  0.00     0.169 HD
HETATM   11  C   UNL     1      28.352  43.476  53.611  1.00  0.00    -0.008 A 
HETATM   12  C   UNL     1      30.583  42.964  54.411  1.00  0.00     0.031 A 
HETATM   13  C   UNL     1      28.274  44.539  54.516  1.00  0.00     0.020 A 
HETATM   14  C   UNL     1      27.246  43.153  52.714  1.00  0.00     0.028 A 
HETATM   15  C   UNL     1      29.337  44.808  55.389  1.00  0.00    -0.061 A 
HETATM   16  C   UNL     1      29.250  45.951  56.358  1.00  0.00     0.048 C 
HETATM   17  C   UNL     1      30.499  44.027  55.314  1.00  0.00     0.009 A 
ENDBRANCH   4   5
ENDBRANCH   1   4
BRANCH   1  18
HETATM   18  C   UNL     1      25.828  42.738  48.749  1.00  0.00     0.158 C 
BRANCH  18  19
HETATM   19  C   UNL     1      26.179  41.371  48.138  1.00  0.00     0.139 C 
HETATM   20  O   UNL     1      25.497  41.195  46.875  1.00  0.00    -0.384 OA
HETATM   21  C   UNL     1      26.390  40.556  45.952  1.00  0.00     0.168 C 
HETATM   22  C   UNL     1      27.630  40.174  46.731  1.00  0.00     0.029 C 
HETATM   23  C   UNL     1      27.658  41.228  47.809  1.00  0.00     0.035 C 
ENDBRANCH  18  19
ENDBRANCH   1  18
BRANCH   2  24
HETATM   24  C   UNL     1      23.992  44.660  50.053  1.00  0.00     0.034 A 
HETATM   25  C   UNL     1      24.666  45.864  50.298  1.00  0.00     0.053 A 
HETATM   26  C   UNL     1      24.252  47.033  49.663  1.00  0.00     0.069 A 
HETATM   27  C   UNL     1      23.161  46.989  48.788  1.00  0.00     0.037 A 
HETATM   28  C   UNL     1      22.508  45.784  48.518  1.00  0.00     0.004 A 
HETATM   29  C   UNL     1      22.933  44.612  49.139  1.00  0.00     0.017 A 
BRANCH  26  30
HETATM   30  O   UNL     1      24.815  48.271  49.814  1.00  0.00    -0.356 OA
HETATM   31  C   UNL     1      26.197  48.383  49.493  1.00  0.00     0.210 C 
ENDBRANCH  26  30
ENDBRANCH   2  24
TORSDOF 6
ENDMDL
MODEL 7
REMARK VINA RESULT:      -8.1      7.498     12.592
REMARK  6 active torsions:
REMARK  status: ('A' for Active; 'I' for Inactive)
REMARK    1  A    between atoms: C_9  and  C_10 
REMARK    2  A    between atoms: C_10  and  N_11 
REMARK       I    between atoms: N_11  and  C_12 
REMARK    3  A    between atoms: N_11  and  C_22 
REMARK    4  A    between atoms: C_12  and  C_13 
REMARK    5  A    between atoms: C_15  and  O_16 
REMARK    6  A    between atoms: C_22  and  C_23 
ROOT
HETATM    1  N   UNL     1      17.595  50.080  48.289  1.00  0.00    -0.341 N 
HETATM    2  C   UNL     1      18.655  50.722  47.621  1.00  0.00     0.254 C 
HETATM    3  O   UNL     1      18.531  51.313  46.550  1.00  0.00    -0.267 OA
ENDROOT
BRANCH   1   4
HETATM    4  C   UNL     1      16.267  50.279  47.698  1.00  0.00     0.170 C 
BRANCH   4   5
HETATM    5  C   UNL     1      15.663  51.600  48.092  1.00  0.00     0.029 A 
HETATM    6  C   UNL     1      15.289  52.549  46.999  1.00  0.00     0.253 A 
HETATM    7  N   UNL     1      14.759  53.757  47.375  1.00  0.00    -0.322 N 
HETATM    8  O   UNL     1      15.451  52.284  45.810  1.00  0.00    -0.268 OA
HETATM    9  C   UNL     1      14.618  54.163  48.707  1.00  0.00     0.045 A 
HETATM   10  H   UNL     1      14.504  54.380  46.623  1.00  0.00     0.169 HD
HETATM   11  C   UNL     1      15.005  53.293  49.730  1.00  0.00    -0.008 A 
HETATM   12  C   UNL     1      14.122  55.431  49.002  1.00  0.00     0.031 A 
HETATM   13  C   UNL     1      14.915  53.711  51.061  1.00  0.00     0.020 A 
HETATM   14  C   UNL     1      15.517  51.972  49.378  1.00  0.00     0.028 A 
HETATM   15  C   UNL     1      14.451  54.998  51.371  1.00  0.00    -0.061 A 
HETATM   16  C   UNL     1      14.354  55.443  52.801  1.00  0.00     0.048 C 
HETATM   17  C   UNL     1      14.035  55.844  50.334  1.00  0.00     0.009 A 
ENDBRANCH   4   5
ENDBRANCH   1   4
BRANCH   1  18
HETATM   18  C   UNL     1      17.868  48.792  48.965  1.00  0.00     0.158 C 
BRANCH  18  19
HETATM   19  C   UNL     1      18.290  47.606  48.079  1.00  0.00     0.139 C 
HETATM   20  O   UNL     1      19.613  47.151  48.447  1.00  0.00    -0.384 OA
HETATM   21  C   UNL     1      19.637  45.717  48.400  1.00  0.00     0.168 C 
HETATM   22  C   UNL     1      18.313  45.272  47.821  1.00  0.00     0.029 C 
HETATM   23  C   UNL     1      17.394  46.388  48.250  1.00  0.00     0.035 C 
ENDBRANCH  18  19
ENDBRANCH   1  18
BRANCH   2  24
HETATM   24  C   UNL     1      20.005  50.707  48.237  1.00  0.00     0.034 A 
HETATM   25  C   UNL     1      21.106  50.379  47.434  1.00  0.00     0.053 A 
HETATM   26  C   UNL     1      22.389  50.392  47.976  1.00  0.00     0.069 A 
HETATM   27  C   UNL     1      22.561  50.729  49.323  1.00  0.00     0.037 A 
HETATM   28  C   UNL     1      21.469  51.085  50.117  1.00  0.00     0.004 A 
HETATM   29  C   UNL     1      20.187  51.090  49.570  1.00  0.00     0.017 A 
BRANCH  26  30
HETATM   30  O   UNL     1      23.545  50.091  47.308  1.00  0.00    -0.356 OA
HETATM   31  C   UNL     1      24.714  49.932  48.103  1.00  0.00     0.210 C 
ENDBRANCH  26  30
ENDBRANCH   2  24
TORSDOF 6
ENDMDL
MODEL 8
REMARK VINA RESULT:      -8.1     16.807     19.368
REMARK  6 active torsions:
REMARK  status: ('A' for Active; 'I' for Inactive)
REMARK    1  A    between atoms: C_9  and  C_10 
REMARK    2  A    between atoms: C_10  and  N_11 
REMARK       I    between atoms: N_11  and  C_12 
REMARK    3  A    between atoms: N_11  and  C_22 
REMARK    4  A    between atoms: C_12  and  C_13 
REMARK    5  A    between atoms: C_15  and  O_16 
REMARK    6  A    between atoms: C_22  and  C_23 
ROOT
HETATM    1  N   UNL     1      37.411  43.593  65.278  1.00  0.00    -0.341 N 
HETATM    2  C   UNL     1      37.066  42.247  65.056  1.00  0.00     0.254 C 
HETATM    3  O   UNL     1      35.990  41.753  65.389  1.00  0.00    -0.267 OA
ENDROOT
BRANCH   1   4
HETATM    4  C   UNL     1      36.339  44.438  65.813  1.00  0.00     0.170 C 
BRANCH   4   5
HETATM    5  C   UNL     1      36.650  45.904  65.678  1.00  0.00     0.029 A 
HETATM    6  C   UNL     1      36.777  46.465  64.297  1.00  0.00     0.253 A 
HETATM    7  N   UNL     1      37.081  47.798  64.191  1.00  0.00    -0.322 N 
HETATM    8  O   UNL     1      36.631  45.777  63.289  1.00  0.00    -0.268 OA
HETATM    9  C   UNL     1      37.342  48.626  65.288  1.00  0.00     0.045 A 
HETATM   10  H   UNL     1      37.154  48.160  63.251  1.00  0.00     0.169 HD
HETATM   11  C   UNL     1      37.262  48.094  66.578  1.00  0.00    -0.008 A 
HETATM   12  C   UNL     1      37.699  49.958  65.090  1.00  0.00     0.031 A 
HETATM   13  C   UNL     1      37.570  48.902  67.677  1.00  0.00     0.020 A 
HETATM   14  C   UNL     1      36.880  46.694  66.743  1.00  0.00     0.028 A 
HETATM   15  C   UNL     1      37.967  50.234  67.490  1.00  0.00    -0.061 A 
HETATM   16  C   UNL     1      38.294  51.099  68.672  1.00  0.00     0.048 C 
HETATM   17  C   UNL     1      38.007  50.760  66.191  1.00  0.00     0.009 A 
ENDBRANCH   4   5
ENDBRANCH   1   4
BRANCH   1  18
HETATM   18  C   UNL     1      38.804  43.905  65.674  1.00  0.00     0.158 C 
BRANCH  18  19
HETATM   19  C   UNL     1      39.735  44.471  64.587  1.00  0.00     0.139 C 
HETATM   20  O   UNL     1      40.135  45.820  64.922  1.00  0.00    -0.384 OA
HETATM   21  C   UNL     1      41.519  45.989  64.584  1.00  0.00     0.168 C 
HETATM   22  C   UNL     1      41.952  44.734  63.859  1.00  0.00     0.029 C 
HETATM   23  C   UNL     1      41.039  43.696  64.458  1.00  0.00     0.035 C 
ENDBRANCH  18  19
ENDBRANCH   1  18
BRANCH   2  24
HETATM   24  C   UNL     1      38.037  41.360  64.369  1.00  0.00     0.034 A 
HETATM   25  C   UNL     1      38.596  40.294  65.086  1.00  0.00     0.053 A 
HETATM   26  C   UNL     1      39.484  39.423  64.456  1.00  0.00     0.069 A 
HETATM   27  C   UNL     1      39.810  39.631  63.112  1.00  0.00     0.037 A 
HETATM   28  C   UNL     1      39.231  40.675  62.387  1.00  0.00     0.004 A 
HETATM   29  C   UNL     1      38.329  41.535  63.011  1.00  0.00     0.017 A 
BRANCH  26  30
HETATM   30  O   UNL     1      40.102  38.349  65.036  1.00  0.00    -0.356 OA
HETATM   31  C   UNL     1      41.239  37.827  64.358  1.00  0.00     0.210 C 
ENDBRANCH  26  30
ENDBRANCH   2  24
TORSDOF 6
ENDMDL
MODEL 9
REMARK VINA RESULT:      -8.0     10.218     13.064
REMARK  6 active torsions:
REMARK  status: ('A' for Active; 'I' for Inactive)
REMARK    1  A    between atoms: C_9  and  C_10 
REMARK    2  A    between atoms: C_10  and  N_11 
REMARK       I    between atoms: N_11  and  C_12 
REMARK    3  A    between atoms: N_11  and  C_22 
REMARK    4  A    between atoms: C_12  and  C_13 
REMARK    5  A    between atoms: C_15  and  O_16 
REMARK    6  A    between atoms: C_22  and  C_23 
ROOT
HETATM    1  N   UNL     1      29.295  48.916  38.919  1.00  0.00    -0.341 N 
HETATM    2  C   UNL     1      29.309  50.286  38.595  1.00  0.00     0.254 C 
HETATM    3  O   UNL     1      28.508  50.816  37.828  1.00  0.00    -0.267 OA
ENDROOT
BRANCH   1   4
HETATM    4  C   UNL     1      28.157  48.157  38.391  1.00  0.00     0.170 C 
BRANCH   4   5
HETATM    5  C   UNL     1      27.546  47.255  39.429  1.00  0.00     0.029 A 
HETATM    6  C   UNL     1      26.622  47.871  40.431  1.00  0.00     0.253 A 
HETATM    7  N   UNL     1      26.090  47.039  41.383  1.00  0.00    -0.322 N 
HETATM    8  O   UNL     1      26.347  49.069  40.427  1.00  0.00    -0.268 OA
HETATM    9  C   UNL     1      26.417  45.684  41.502  1.00  0.00     0.045 A 
HETATM   10  H   UNL     1      25.461  47.472  42.044  1.00  0.00     0.169 HD
HETATM   11  C   UNL     1      27.311  45.115  40.591  1.00  0.00    -0.008 A 
HETATM   12  C   UNL     1      25.873  44.922  42.535  1.00  0.00     0.031 A 
HETATM   13  C   UNL     1      27.681  43.775  40.735  1.00  0.00     0.020 A 
HETATM   14  C   UNL     1      27.855  45.948  39.522  1.00  0.00     0.028 A 
HETATM   15  C   UNL     1      27.170  43.006  41.790  1.00  0.00    -0.061 A 
HETATM   16  C   UNL     1      27.568  41.567  41.939  1.00  0.00     0.048 C 
HETATM   17  C   UNL     1      26.248  43.583  42.673  1.00  0.00     0.009 A 
ENDBRANCH   4   5
ENDBRANCH   1   4
BRANCH   1  18
HETATM   18  C   UNL     1      30.591  48.215  39.062  1.00  0.00     0.158 C 
BRANCH  18  19
HETATM   19  C   UNL     1      31.113  47.983  40.491  1.00  0.00     0.139 C 
HETATM   20  O   UNL     1      32.329  48.734  40.710  1.00  0.00    -0.384 OA
HETATM   21  C   UNL     1      32.301  49.284  42.035  1.00  0.00     0.168 C 
HETATM   22  C   UNL     1      31.082  48.712  42.724  1.00  0.00     0.029 C 
HETATM   23  C   UNL     1      30.150  48.474  41.563  1.00  0.00     0.035 C 
ENDBRANCH  18  19
ENDBRANCH   1  18
BRANCH   2  24
HETATM   24  C   UNL     1      30.334  51.160  39.218  1.00  0.00     0.034 A 
HETATM   25  C   UNL     1      31.570  51.308  38.576  1.00  0.00     0.053 A 
HETATM   26  C   UNL     1      32.538  52.150  39.119  1.00  0.00     0.069 A 
HETATM   27  C   UNL     1      32.263  52.837  40.306  1.00  0.00     0.037 A 
HETATM   28  C   UNL     1      31.020  52.714  40.932  1.00  0.00     0.004 A 
HETATM   29  C   UNL     1      30.045  51.886  40.380  1.00  0.00     0.017 A 
BRANCH  26  30
HETATM   30  O   UNL     1      33.783  52.383  38.599  1.00  0.00    -0.356 OA
HETATM   31  C   UNL     1      34.878  52.277  39.501  1.00  0.00     0.210 C 
ENDBRANCH  26  30
ENDBRANCH   2  24
TORSDOF 6
ENDMDL
MODEL 10
REMARK VINA RESULT:      -7.8     11.347     13.878
REMARK  6 active torsions:
REMARK  status: ('A' for Active; 'I' for Inactive)
REMARK    1  A    between atoms: C_9  and  C_10 
REMARK    2  A    between atoms: C_10  and  N_11 
REMARK       I    between atoms: N_11  and  C_12 
REMARK    3  A    between atoms: N_11  and  C_22 
REMARK    4  A    between atoms: C_12  and  C_13 
REMARK    5  A    between atoms: C_15  and  O_16 
REMARK    6  A    between atoms: C_22  and  C_23 
ROOT
HETATM    1  N   UNL     1      33.322  49.625  41.142  1.00  0.00    -0.341 N 
HETATM    2  C   UNL     1      32.535  48.458  41.131  1.00  0.00     0.254 C 
HETATM    3  O   UNL     1      32.997  47.320  41.185  1.00  0.00    -0.267 OA
ENDROOT
BRANCH   1   4
HETATM    4  C   UNL     1      34.755  49.415  41.371  1.00  0.00     0.170 C 
BRANCH   4   5
HETATM    5  C   UNL     1      35.491  50.709  41.589  1.00  0.00     0.029 A 
HETATM    6  C   UNL     1      36.174  51.329  40.412  1.00  0.00     0.253 A 
HETATM    7  N   UNL     1      36.858  52.498  40.631  1.00  0.00    -0.322 N 
HETATM    8  O   UNL     1      36.146  50.826  39.291  1.00  0.00    -0.268 OA
HETATM    9  C   UNL     1      37.003  53.089  41.891  1.00  0.00     0.045 A 
HETATM   10  H   UNL     1      37.304  52.906  39.823  1.00  0.00     0.169 HD
HETATM   11  C   UNL     1      36.399  52.489  43.000  1.00  0.00    -0.008 A 
HETATM   12  C   UNL     1      37.763  54.247  42.037  1.00  0.00     0.031 A 
HETATM   13  C   UNL     1      36.582  53.046  44.270  1.00  0.00     0.020 A 
HETATM   14  C   UNL     1      35.608  51.277  42.804  1.00  0.00     0.028 A 
HETATM   15  C   UNL     1      37.374  54.190  44.435  1.00  0.00    -0.061 A 
HETATM   16  C   UNL     1      37.566  54.786  45.799  1.00  0.00     0.048 C 
HETATM   17  C   UNL     1      37.943  54.798  43.308  1.00  0.00     0.009 A 
ENDBRANCH   4   5
ENDBRANCH   1   4
BRANCH   1  18
HETATM   18  C   UNL     1      32.915  50.755  40.275  1.00  0.00     0.158 C 
BRANCH  18  19
HETATM   19  C   UNL     1      32.163  51.919  40.942  1.00  0.00     0.139 C 
HETATM   20  O   UNL     1      30.804  51.986  40.450  1.00  0.00    -0.384 OA
HETATM   21  C   UNL     1      29.931  52.298  41.544  1.00  0.00     0.168 C 
HETATM   22  C   UNL     1      30.810  52.596  42.739  1.00  0.00     0.029 C 
HETATM   23  C   UNL     1      32.026  51.754  42.449  1.00  0.00     0.035 C 
ENDBRANCH  18  19
ENDBRANCH   1  18
BRANCH   2  24
HETATM   24  C   UNL     1      31.058  48.589  41.066  1.00  0.00     0.034 A 
HETATM   25  C   UNL     1      30.434  48.532  39.813  1.00  0.00     0.053 A 
HETATM   26  C   UNL     1      29.046  48.616  39.724  1.00  0.00     0.069 A 
HETATM   27  C   UNL     1      28.291  48.762  40.893  1.00  0.00     0.037 A 
HETATM   28  C   UNL     1      28.909  48.788  42.145  1.00  0.00     0.004 A 
HETATM   29  C   UNL     1      30.296  48.686  42.236  1.00  0.00     0.017 A 
BRANCH  26  30
HETATM   30  O   UNL     1      28.312  48.577  38.570  1.00  0.00    -0.356 OA
HETATM   31  C   UNL     1      26.986  49.090  38.642  1.00  0.00     0.210 C 
ENDBRANCH  26  30
ENDBRANCH   2  24
TORSDOF 6
ENDMDL
