MODEL 1
REMARK VINA RESULT:     -10.5      0.000      0.000
REMARK  6 active torsions:
REMARK  status: ('A' for Active; 'I' for Inactive)
REMARK    1  A    between atoms: C_5  and  C_6 
REMARK    2  A    between atoms: C_11  and  C_12 
REMARK       I    between atoms: C_12  and  N_13 
REMARK    3  A    between atoms: N_13  and  C_14 
REMARK    4  A    between atoms: C_16  and  C_17 
REMARK    5  A    between atoms: C_17  and  O_18 
REMARK    6  A    between atoms: C_25  and  C_26 
ROOT
HETATM    1  C   UNL     1      29.207  42.939  53.240  1.00  0.00     0.118 C 
HETATM    2  N   UNL     1      28.725  43.967  52.312  1.00  0.00    -0.366 N 
HETATM    3  C   UNL     1      27.492  43.918  51.770  1.00  0.00     0.123 A 
HETATM    4  N   UNL     1      26.782  42.752  51.742  1.00  0.00    -0.240 N 
HETATM    5  N   UNL     1      25.515  42.888  51.309  1.00  0.00    -0.165 NA
HETATM    6  C   UNL     1      25.446  44.198  50.967  1.00  0.00     0.148 A 
HETATM    7  C   UNL     1      26.682  44.863  51.201  1.00  0.00     0.089 A 
HETATM    8  C   UNL     1      27.281  41.522  52.323  1.00  0.00     0.221 C 
HETATM    9  C   UNL     1      28.130  41.875  53.551  1.00  0.00     0.066 C 
HETATM   10  H   UNL     1      29.237  44.849  52.355  1.00  0.00     0.161 HD
ENDROOT
BRANCH   6  11
HETATM   11  C   UNL     1      24.200  44.817  50.479  1.00  0.00     0.276 C 
HETATM   12  N   UNL     1      24.429  46.060  49.920  1.00  0.00    -0.322 N 
HETATM   13  H   UNL     1      25.397  46.365  49.998  1.00  0.00     0.169 HD
HETATM   14  O   UNL     1      23.122  44.241  50.572  1.00  0.00    -0.266 OA
BRANCH  12  15
HETATM   15  C   UNL     1      23.519  46.899  49.258  1.00  0.00     0.035 A 
HETATM   16  C   UNL     1      23.374  48.260  49.537  1.00  0.00     0.039 A 
HETATM   17  C   UNL     1      22.427  49.048  48.857  1.00  0.00    -0.028 A 
HETATM   18  C   UNL     1      21.634  48.445  47.872  1.00  0.00     0.010 A 
HETATM   19  C   UNL     1      21.770  47.087  47.588  1.00  0.00     0.003 A 
HETATM   20  C   UNL     1      22.705  46.317  48.281  1.00  0.00     0.029 A 
BRANCH  17  21
HETATM   21  C   UNL     1      22.310  50.519  49.195  1.00  0.00     0.147 C 
HETATM   22  C   UNL     1      21.066  51.140  48.571  1.00  0.00     0.044 C 
BRANCH  21  23
HETATM   23  O   UNL     1      22.263  50.710  50.609  1.00  0.00    -0.391 OA
HETATM   24  H   UNL     1      21.474  51.247  50.794  1.00  0.00     0.210 HD
ENDBRANCH  21  23
ENDBRANCH  17  21
ENDBRANCH  12  15
ENDBRANCH   6  11
BRANCH   8  25
HETATM   25  C   UNL     1      28.041  40.723  51.290  1.00  0.00     0.409 C 
HETATM   26  F   UNL     1      28.532  41.500  50.300  1.00  0.00    -0.169 F 
HETATM   27  F   UNL     1      29.064  40.007  51.799  1.00  0.00    -0.169 F 
HETATM   28  F   UNL     1      27.203  39.830  50.699  1.00  0.00    -0.169 F 
ENDBRANCH   8  25
BRANCH   1  29
HETATM   29  C   UNL     1      29.676  43.603  54.524  1.00  0.00    -0.035 A 
HETATM   30  C   UNL     1      29.065  44.780  54.994  1.00  0.00     0.010 A 
HETATM   31  C   UNL     1      29.487  45.383  56.180  1.00  0.00     0.007 A 
HETATM   32  C   UNL     1      30.531  44.827  56.921  1.00  0.00    -0.062 A 
HETATM   33  C   UNL     1      30.962  45.457  58.214  1.00  0.00     0.048 C 
HETATM   34  C   UNL     1      31.130  43.644  56.472  1.00  0.00     0.007 A 
HETATM   35  C   UNL     1      30.710  43.039  55.283  1.00  0.00     0.010 A 
ENDBRANCH   1  29
TORSDOF 6
ENDMDL
MODEL 2
REMARK VINA RESULT:     -10.3      2.073      3.127
REMARK  6 active torsions:
REMARK  status: ('A' for Active; 'I' for Inactive)
REMARK    1  A    between atoms: C_5  and  C_6 
REMARK    2  A    between atoms: C_11  and  C_12 
REMARK       I    between atoms: C_12  and  N_13 
REMARK    3  A    between atoms: N_13  and  C_14 
REMARK    4  A    between atoms: C_16  and  C_17 
REMARK    5  A    between atoms: C_17  and  O_18 
REMARK    6  A    between atoms: C_25  and  C_26 
ROOT
HETATM    1  C   UNL     1      27.476  43.409  51.886  1.00  0.00     0.118 C 
HETATM    2  N   UNL     1      27.637  44.511  50.932  1.00  0.00    -0.366 N 
HETATM    3  C   UNL     1      26.595  45.271  50.538  1.00  0.00     0.123 A 
HETATM    4  N   UNL     1      25.310  44.837  50.692  1.00  0.00    -0.240 N 
HETATM    5  N   UNL     1      24.377  45.760  50.394  1.00  0.00    -0.165 NA
HETATM    6  C   UNL     1      25.112  46.808  49.948  1.00  0.00     0.148 A 
HETATM    7  C   UNL     1      26.505  46.519  49.983  1.00  0.00     0.089 A 
HETATM    8  C   UNL     1      24.985  43.572  51.318  1.00  0.00     0.221 C 
HETATM    9  C   UNL     1      26.027  43.288  52.408  1.00  0.00     0.066 C 
HETATM   10  H   UNL     1      28.593  44.855  50.839  1.00  0.00     0.161 HD
ENDROOT
BRANCH   6  11
HETATM   11  C   UNL     1      24.496  48.087  49.551  1.00  0.00     0.276 C 
HETATM   12  N   UNL     1      23.122  47.984  49.446  1.00  0.00    -0.322 N 
HETATM   13  H   UNL     1      22.775  47.039  49.593  1.00  0.00     0.169 HD
HETATM   14  O   UNL     1      25.173  49.091  49.367  1.00  0.00    -0.266 OA
BRANCH  12  15
HETATM   15  C   UNL     1      22.188  49.003  49.200  1.00  0.00     0.035 A 
HETATM   16  C   UNL     1      20.811  48.854  49.385  1.00  0.00     0.039 A 
HETATM   17  C   UNL     1      19.918  49.904  49.098  1.00  0.00    -0.028 A 
HETATM   18  C   UNL     1      20.436  51.119  48.634  1.00  0.00     0.010 A 
HETATM   19  C   UNL     1      21.809  51.276  48.443  1.00  0.00     0.003 A 
HETATM   20  C   UNL     1      22.679  50.221  48.720  1.00  0.00     0.029 A 
BRANCH  17  21
HETATM   21  C   UNL     1      18.435  49.693  49.319  1.00  0.00     0.147 C 
HETATM   22  C   UNL     1      18.128  48.259  49.733  1.00  0.00     0.044 C 
BRANCH  21  23
HETATM   23  O   UNL     1      17.943  50.581  50.324  1.00  0.00    -0.391 OA
HETATM   24  H   UNL     1      17.006  50.363  50.457  1.00  0.00     0.210 HD
ENDBRANCH  21  23
ENDBRANCH  17  21
ENDBRANCH  12  15
ENDBRANCH   6  11
BRANCH   8  25
HETATM   25  C   UNL     1      24.902  42.477  50.280  1.00  0.00     0.409 C 
HETATM   26  F   UNL     1      25.539  42.807  49.135  1.00  0.00    -0.169 F 
HETATM   27  F   UNL     1      25.392  41.292  50.698  1.00  0.00    -0.169 F 
HETATM   28  F   UNL     1      23.601  42.260  49.950  1.00  0.00    -0.169 F 
ENDBRANCH   8  25
BRANCH   1  29
HETATM   29  C   UNL     1      28.438  43.608  53.046  1.00  0.00    -0.035 A 
HETATM   30  C   UNL     1      28.167  44.548  54.057  1.00  0.00     0.010 A 
HETATM   31  C   UNL     1      29.044  44.721  55.129  1.00  0.00     0.007 A 
HETATM   32  C   UNL     1      30.213  43.963  55.214  1.00  0.00    -0.062 A 
HETATM   33  C   UNL     1      31.138  44.125  56.384  1.00  0.00     0.048 C 
HETATM   34  C   UNL     1      30.479  43.010  54.223  1.00  0.00     0.007 A 
HETATM   35  C   UNL     1      29.603  42.836  53.147  1.00  0.00     0.010 A 
ENDBRANCH   1  29
TORSDOF 6
ENDMDL
MODEL 3
REMARK VINA RESULT:      -9.6      1.478      2.380
REMARK  6 active torsions:
REMARK  status: ('A' for Active; 'I' for Inactive)
REMARK    1  A    between atoms: C_5  and  C_6 
REMARK    2  A    between atoms: C_11  and  C_12 
REMARK       I    between atoms: C_12  and  N_13 
REMARK    3  A    between atoms: N_13  and  C_14 
REMARK    4  A    between atoms: C_16  and  C_17 
REMARK    5  A    between atoms: C_17  and  O_18 
REMARK    6  A    between atoms: C_25  and  C_26 
ROOT
HETATM    1  C   UNL     1      29.118  43.011  53.167  1.00  0.00     0.118 C 
HETATM    2  N   UNL     1      28.554  43.965  52.206  1.00  0.00    -0.366 N 
HETATM    3  C   UNL     1      27.330  43.795  51.667  1.00  0.00     0.123 A 
HETATM    4  N   UNL     1      26.720  42.573  51.678  1.00  0.00    -0.240 N 
HETATM    5  N   UNL     1      25.447  42.588  51.241  1.00  0.00    -0.165 NA
HETATM    6  C   UNL     1      25.269  43.876  50.857  1.00  0.00     0.148 A 
HETATM    7  C   UNL     1      26.445  44.650  51.068  1.00  0.00     0.089 A 
HETATM    8  C   UNL     1      27.320  41.409  52.298  1.00  0.00     0.221 C 
HETATM    9  C   UNL     1      28.134  41.872  53.513  1.00  0.00     0.066 C 
HETATM   10  H   UNL     1      28.990  44.888  52.219  1.00  0.00     0.161 HD
ENDROOT
BRANCH   6  11
HETATM   11  C   UNL     1      23.977  44.372  50.350  1.00  0.00     0.276 C 
HETATM   12  N   UNL     1      24.133  45.489  49.552  1.00  0.00    -0.322 N 
HETATM   13  H   UNL     1      25.095  45.818  49.501  1.00  0.00     0.169 HD
HETATM   14  O   UNL     1      22.925  43.809  50.627  1.00  0.00    -0.266 OA
BRANCH  12  15
HETATM   15  C   UNL     1      23.158  46.173  48.808  1.00  0.00     0.035 A 
HETATM   16  C   UNL     1      22.380  45.574  47.814  1.00  0.00     0.039 A 
HETATM   17  C   UNL     1      21.434  46.316  47.083  1.00  0.00    -0.028 A 
HETATM   18  C   UNL     1      21.270  47.675  47.380  1.00  0.00     0.010 A 
HETATM   19  C   UNL     1      22.043  48.282  48.369  1.00  0.00     0.003 A 
HETATM   20  C   UNL     1      22.987  47.535  49.075  1.00  0.00     0.029 A 
BRANCH  17  21
HETATM   21  C   UNL     1      20.613  45.621  46.017  1.00  0.00     0.147 C 
HETATM   22  C   UNL     1      19.441  44.857  46.622  1.00  0.00     0.044 C 
BRANCH  21  23
HETATM   23  O   UNL     1      20.111  46.565  45.071  1.00  0.00    -0.391 OA
HETATM   24  H   UNL     1      20.474  47.431  45.317  1.00  0.00     0.210 HD
ENDBRANCH  21  23
ENDBRANCH  17  21
ENDBRANCH  12  15
ENDBRANCH   6  11
BRANCH   8  25
HETATM   25  C   UNL     1      28.146  40.643  51.291  1.00  0.00     0.409 C 
HETATM   26  F   UNL     1      27.438  39.664  50.685  1.00  0.00    -0.169 F 
HETATM   27  F   UNL     1      28.688  41.417  50.328  1.00  0.00    -0.169 F 
HETATM   28  F   UNL     1      29.184  40.034  51.924  1.00  0.00    -0.169 F 
ENDBRANCH   8  25
BRANCH   1  29
HETATM   29  C   UNL     1      29.527  43.754  54.428  1.00  0.00    -0.035 A 
HETATM   30  C   UNL     1      28.832  44.902  54.848  1.00  0.00     0.010 A 
HETATM   31  C   UNL     1      29.200  45.577  56.014  1.00  0.00     0.007 A 
HETATM   32  C   UNL     1      30.273  45.123  56.783  1.00  0.00    -0.062 A 
HETATM   33  C   UNL     1      30.645  45.829  58.054  1.00  0.00     0.048 C 
HETATM   34  C   UNL     1      30.956  43.968  56.383  1.00  0.00     0.007 A 
HETATM   35  C   UNL     1      30.590  43.292  55.215  1.00  0.00     0.010 A 
ENDBRANCH   1  29
TORSDOF 6
ENDMDL
MODEL 4
REMARK VINA RESULT:      -9.5      4.918      7.015
REMARK  6 active torsions:
REMARK  status: ('A' for Active; 'I' for Inactive)
REMARK    1  A    between atoms: C_5  and  C_6 
REMARK    2  A    between atoms: C_11  and  C_12 
REMARK       I    between atoms: C_12  and  N_13 
REMARK    3  A    between atoms: N_13  and  C_14 
REMARK    4  A    between atoms: C_16  and  C_17 
REMARK    5  A    between atoms: C_17  and  O_18 
REMARK    6  A    between atoms: C_25  and  C_26 
ROOT
HETATM    1  C   UNL     1      27.271  43.714  53.436  1.00  0.00     0.118 C 
HETATM    2  N   UNL     1      27.247  42.357  52.879  1.00  0.00    -0.366 N 
HETATM    3  C   UNL     1      27.219  42.132  51.550  1.00  0.00     0.123 A 
HETATM    4  N   UNL     1      26.833  43.109  50.679  1.00  0.00    -0.240 N 
HETATM    5  N   UNL     1      26.999  42.789  49.382  1.00  0.00    -0.165 NA
HETATM    6  C   UNL     1      27.437  41.508  49.435  1.00  0.00     0.148 A 
HETATM    7  C   UNL     1      27.544  41.049  50.779  1.00  0.00     0.089 A 
HETATM    8  C   UNL     1      26.475  44.444  51.114  1.00  0.00     0.221 C 
HETATM    9  C   UNL     1      27.329  44.800  52.339  1.00  0.00     0.066 C 
HETATM   10  H   UNL     1      27.564  41.630  53.521  1.00  0.00     0.161 HD
ENDROOT
BRANCH   6  11
HETATM   11  C   UNL     1      27.805  40.753  48.224  1.00  0.00     0.276 C 
HETATM   12  N   UNL     1      27.006  41.088  47.147  1.00  0.00    -0.322 N 
HETATM   13  H   UNL     1      26.264  41.742  47.384  1.00  0.00     0.169 HD
HETATM   14  O   UNL     1      28.730  39.949  48.230  1.00  0.00    -0.266 OA
BRANCH  12  15
HETATM   15  C   UNL     1      27.120  40.667  45.813  1.00  0.00     0.035 A 
HETATM   16  C   UNL     1      28.246  40.900  45.019  1.00  0.00     0.039 A 
HETATM   17  C   UNL     1      28.294  40.477  43.678  1.00  0.00    -0.028 A 
HETATM   18  C   UNL     1      27.190  39.796  43.148  1.00  0.00     0.010 A 
HETATM   19  C   UNL     1      26.061  39.561  43.931  1.00  0.00     0.003 A 
HETATM   20  C   UNL     1      26.024  39.999  45.256  1.00  0.00     0.029 A 
BRANCH  17  21
HETATM   21  C   UNL     1      29.538  40.751  42.861  1.00  0.00     0.147 C 
HETATM   22  C   UNL     1      30.335  39.477  42.608  1.00  0.00     0.044 C 
BRANCH  21  23
HETATM   23  O   UNL     1      29.198  41.341  41.605  1.00  0.00    -0.391 OA
HETATM   24  H   UNL     1      28.446  40.838  41.253  1.00  0.00     0.210 HD
ENDBRANCH  21  23
ENDBRANCH  17  21
ENDBRANCH  12  15
ENDBRANCH   6  11
BRANCH   8  25
HETATM   25  C   UNL     1      24.991  44.529  51.385  1.00  0.00     0.409 C 
HETATM   26  F   UNL     1      24.399  43.314  51.383  1.00  0.00    -0.169 F 
HETATM   27  F   UNL     1      24.682  45.137  52.548  1.00  0.00    -0.169 F 
HETATM   28  F   UNL     1      24.390  45.252  50.402  1.00  0.00    -0.169 F 
ENDBRANCH   8  25
BRANCH   1  29
HETATM   29  C   UNL     1      28.461  43.849  54.372  1.00  0.00    -0.035 A 
HETATM   30  C   UNL     1      28.635  45.002  55.159  1.00  0.00     0.010 A 
HETATM   31  C   UNL     1      29.720  45.120  56.028  1.00  0.00     0.007 A 
HETATM   32  C   UNL     1      30.659  44.091  56.129  1.00  0.00    -0.062 A 
HETATM   33  C   UNL     1      31.807  44.204  57.088  1.00  0.00     0.048 C 
HETATM   34  C   UNL     1      30.481  42.931  55.365  1.00  0.00     0.007 A 
HETATM   35  C   UNL     1      29.395  42.812  54.492  1.00  0.00     0.010 A 
ENDBRANCH   1  29
TORSDOF 6
ENDMDL
MODEL 5
REMARK VINA RESULT:      -9.4      2.530      5.272
REMARK  6 active torsions:
REMARK  status: ('A' for Active; 'I' for Inactive)
REMARK    1  A    between atoms: C_5  and  C_6 
REMARK    2  A    between atoms: C_11  and  C_12 
REMARK       I    between atoms: C_12  and  N_13 
REMARK    3  A    between atoms: N_13  and  C_14 
REMARK    4  A    between atoms: C_16  and  C_17 
REMARK    5  A    between atoms: C_17  and  O_18 
REMARK    6  A    between atoms: C_25  and  C_26 
ROOT
HETATM    1  C   UNL     1      27.266  40.962  51.417  1.00  0.00     0.118 C 
HETATM    2  N   UNL     1      26.046  41.775  51.438  1.00  0.00    -0.366 N 
HETATM    3  C   UNL     1      26.079  43.106  51.651  1.00  0.00     0.123 A 
HETATM    4  N   UNL     1      27.167  43.699  52.226  1.00  0.00    -0.240 N 
HETATM    5  N   UNL     1      27.120  45.044  52.237  1.00  0.00    -0.165 NA
HETATM    6  C   UNL     1      25.898  45.313  51.715  1.00  0.00     0.148 A 
HETATM    7  C   UNL     1      25.201  44.119  51.378  1.00  0.00     0.089 A 
HETATM    8  C   UNL     1      28.354  42.956  52.598  1.00  0.00     0.221 C 
HETATM    9  C   UNL     1      28.544  41.811  51.594  1.00  0.00     0.066 C 
HETATM   10  H   UNL     1      25.241  41.344  50.983  1.00  0.00     0.161 HD
ENDROOT
BRANCH   6  11
HETATM   11  C   UNL     1      25.429  46.692  51.486  1.00  0.00     0.276 C 
HETATM   12  N   UNL     1      25.212  46.945  50.146  1.00  0.00    -0.322 N 
HETATM   13  H   UNL     1      25.473  46.169  49.541  1.00  0.00     0.169 HD
HETATM   14  O   UNL     1      25.255  47.469  52.418  1.00  0.00    -0.266 OA
BRANCH  12  15
HETATM   15  C   UNL     1      24.665  48.094  49.552  1.00  0.00     0.035 A 
HETATM   16  C   UNL     1      23.316  48.447  49.643  1.00  0.00     0.039 A 
HETATM   17  C   UNL     1      22.818  49.598  49.007  1.00  0.00    -0.028 A 
HETATM   18  C   UNL     1      23.707  50.405  48.285  1.00  0.00     0.010 A 
HETATM   19  C   UNL     1      25.055  50.061  48.187  1.00  0.00     0.003 A 
HETATM   20  C   UNL     1      25.530  48.907  48.813  1.00  0.00     0.029 A 
BRANCH  17  21
HETATM   21  C   UNL     1      21.349  49.939  49.138  1.00  0.00     0.147 C 
HETATM   22  C   UNL     1      20.721  50.244  47.782  1.00  0.00     0.044 C 
BRANCH  21  23
HETATM   23  O   UNL     1      20.633  48.864  49.747  1.00  0.00    -0.391 OA
HETATM   24  H   UNL     1      21.118  48.626  50.555  1.00  0.00     0.210 HD
ENDBRANCH  21  23
ENDBRANCH  17  21
ENDBRANCH  12  15
ENDBRANCH   6  11
BRANCH   8  25
HETATM   25  C   UNL     1      28.248  42.476  54.026  1.00  0.00     0.409 C 
HETATM   26  F   UNL     1      29.057  43.166  54.860  1.00  0.00    -0.169 F 
HETATM   27  F   UNL     1      26.997  42.528  54.528  1.00  0.00    -0.169 F 
HETATM   28  F   UNL     1      28.638  41.176  54.100  1.00  0.00    -0.169 F 
ENDBRANCH   8  25
BRANCH   1  29
HETATM   29  C   UNL     1      27.327  40.186  50.110  1.00  0.00    -0.035 A 
HETATM   30  C   UNL     1      26.224  40.151  49.239  1.00  0.00     0.010 A 
HETATM   31  C   UNL     1      26.284  39.450  48.033  1.00  0.00     0.007 A 
HETATM   32  C   UNL     1      27.446  38.765  47.673  1.00  0.00    -0.062 A 
HETATM   33  C   UNL     1      27.522  38.040  46.361  1.00  0.00     0.048 C 
HETATM   34  C   UNL     1      28.557  38.814  48.525  1.00  0.00     0.007 A 
HETATM   35  C   UNL     1      28.497  39.514  49.734  1.00  0.00     0.010 A 
ENDBRANCH   1  29
TORSDOF 6
ENDMDL
MODEL 6
REMARK VINA RESULT:      -9.2      2.386      3.704
REMARK  6 active torsions:
REMARK  status: ('A' for Active; 'I' for Inactive)
REMARK    1  A    between atoms: C_5  and  C_6 
REMARK    2  A    between atoms: C_11  and  C_12 
REMARK       I    between atoms: C_12  and  N_13 
REMARK    3  A    between atoms: N_13  and  C_14 
REMARK    4  A    between atoms: C_16  and  C_17 
REMARK    5  A    between atoms: C_17  and  O_18 
REMARK    6  A    between atoms: C_25  and  C_26 
ROOT
HETATM    1  C   UNL     1      26.613  43.929  51.660  1.00  0.00     0.118 C 
HETATM    2  N   UNL     1      26.533  44.980  50.641  1.00  0.00    -0.366 N 
HETATM    3  C   UNL     1      25.378  45.277  50.011  1.00  0.00     0.123 A 
HETATM    4  N   UNL     1      24.338  44.393  49.997  1.00  0.00    -0.240 N 
HETATM    5  N   UNL     1      23.204  44.884  49.463  1.00  0.00    -0.165 NA
HETATM    6  C   UNL     1      23.572  46.119  49.042  1.00  0.00     0.148 A 
HETATM    7  C   UNL     1      24.942  46.380  49.329  1.00  0.00     0.089 A 
HETATM    8  C   UNL     1      24.389  43.118  50.683  1.00  0.00     0.221 C 
HETATM    9  C   UNL     1      25.240  43.283  51.950  1.00  0.00     0.066 C 
HETATM   10  H   UNL     1      27.295  45.658  50.670  1.00  0.00     0.161 HD
ENDROOT
BRANCH   6  11
HETATM   11  C   UNL     1      22.615  47.057  48.427  1.00  0.00     0.276 C 
HETATM   12  N   UNL     1      22.148  47.985  49.338  1.00  0.00    -0.322 N 
HETATM   13  H   UNL     1      22.488  47.828  50.284  1.00  0.00     0.169 HD
HETATM   14  O   UNL     1      22.321  46.981  47.240  1.00  0.00    -0.266 OA
BRANCH  12  15
HETATM   15  C   UNL     1      21.318  49.093  49.106  1.00  0.00     0.035 A 
HETATM   16  C   UNL     1      19.936  49.002  48.926  1.00  0.00     0.039 A 
HETATM   17  C   UNL     1      19.157  50.146  48.672  1.00  0.00    -0.028 A 
HETATM   18  C   UNL     1      19.791  51.394  48.617  1.00  0.00     0.010 A 
HETATM   19  C   UNL     1      21.170  51.494  48.793  1.00  0.00     0.003 A 
HETATM   20  C   UNL     1      21.931  50.348  49.031  1.00  0.00     0.029 A 
BRANCH  17  21
HETATM   21  C   UNL     1      17.661  49.996  48.486  1.00  0.00     0.147 C 
HETATM   22  C   UNL     1      17.201  48.572  48.779  1.00  0.00     0.044 C 
BRANCH  21  23
HETATM   23  O   UNL     1      16.953  50.896  49.339  1.00  0.00    -0.391 OA
HETATM   24  H   UNL     1      16.054  50.542  49.437  1.00  0.00     0.210 HD
ENDBRANCH  21  23
ENDBRANCH  17  21
ENDBRANCH  12  15
ENDBRANCH   6  11
BRANCH   8  25
HETATM   25  C   UNL     1      24.910  42.043  49.758  1.00  0.00     0.409 C 
HETATM   26  F   UNL     1      25.690  42.546  48.776  1.00  0.00    -0.169 F 
HETATM   27  F   UNL     1      25.608  41.075  50.386  1.00  0.00    -0.169 F 
HETATM   28  F   UNL     1      23.865  41.427  49.143  1.00  0.00    -0.169 F 
ENDBRANCH   8  25
BRANCH   1  29
HETATM   29  C   UNL     1      27.200  44.512  52.935  1.00  0.00    -0.035 A 
HETATM   30  C   UNL     1      28.302  43.907  53.566  1.00  0.00     0.010 A 
HETATM   31  C   UNL     1      28.849  44.450  54.730  1.00  0.00     0.007 A 
HETATM   32  C   UNL     1      28.306  45.607  55.292  1.00  0.00    -0.062 A 
HETATM   33  C   UNL     1      28.916  46.209  56.523  1.00  0.00     0.048 C 
HETATM   34  C   UNL     1      27.222  46.227  54.657  1.00  0.00     0.007 A 
HETATM   35  C   UNL     1      26.672  45.683  53.492  1.00  0.00     0.010 A 
ENDBRANCH   1  29
TORSDOF 6
ENDMDL
MODEL 7
REMARK VINA RESULT:      -9.1      4.557      7.616
REMARK  6 active torsions:
REMARK  status: ('A' for Active; 'I' for Inactive)
REMARK    1  A    between atoms: C_5  and  C_6 
REMARK    2  A    between atoms: C_11  and  C_12 
REMARK       I    between atoms: C_12  and  N_13 
REMARK    3  A    between atoms: N_13  and  C_14 
REMARK    4  A    between atoms: C_16  and  C_17 
REMARK    5  A    between atoms: C_17  and  O_18 
REMARK    6  A    between atoms: C_25  and  C_26 
ROOT
HETATM    1  C   UNL     1      26.807  44.458  53.136  1.00  0.00     0.118 C 
HETATM    2  N   UNL     1      26.322  43.145  52.698  1.00  0.00    -0.366 N 
HETATM    3  C   UNL     1      26.142  42.849  51.395  1.00  0.00     0.123 A 
HETATM    4  N   UNL     1      26.028  43.836  50.459  1.00  0.00    -0.240 N 
HETATM    5  N   UNL     1      26.003  43.391  49.189  1.00  0.00    -0.165 NA
HETATM    6  C   UNL     1      26.019  42.044  49.334  1.00  0.00     0.148 A 
HETATM    7  C   UNL     1      26.060  41.669  50.707  1.00  0.00     0.089 A 
HETATM    8  C   UNL     1      26.136  45.242  50.792  1.00  0.00     0.221 C 
HETATM    9  C   UNL     1      27.134  45.390  51.949  1.00  0.00     0.066 C 
HETATM   10  H   UNL     1      26.434  42.400  53.387  1.00  0.00     0.161 HD
ENDROOT
BRANCH   6  11
HETATM   11  C   UNL     1      26.053  41.130  48.179  1.00  0.00     0.276 C 
HETATM   12  N   UNL     1      27.244  41.224  47.484  1.00  0.00    -0.322 N 
HETATM   13  H   UNL     1      27.864  41.946  47.843  1.00  0.00     0.169 HD
HETATM   14  O   UNL     1      25.112  40.387  47.925  1.00  0.00    -0.266 OA
BRANCH  12  15
HETATM   15  C   UNL     1      27.688  40.444  46.405  1.00  0.00     0.035 A 
HETATM   16  C   UNL     1      27.919  39.068  46.485  1.00  0.00     0.039 A 
HETATM   17  C   UNL     1      28.388  38.342  45.375  1.00  0.00    -0.028 A 
HETATM   18  C   UNL     1      28.608  39.021  44.170  1.00  0.00     0.010 A 
HETATM   19  C   UNL     1      28.383  40.394  44.081  1.00  0.00     0.003 A 
HETATM   20  C   UNL     1      27.930  41.103  45.195  1.00  0.00     0.029 A 
BRANCH  17  21
HETATM   21  C   UNL     1      28.621  36.852  45.512  1.00  0.00     0.147 C 
HETATM   22  C   UNL     1      29.971  36.440  44.937  1.00  0.00     0.044 C 
BRANCH  21  23
HETATM   23  O   UNL     1      28.561  36.455  46.882  1.00  0.00    -0.391 OA
HETATM   24  H   UNL     1      28.941  37.181  47.403  1.00  0.00     0.210 HD
ENDBRANCH  21  23
ENDBRANCH  17  21
ENDBRANCH  12  15
ENDBRANCH   6  11
BRANCH   8  25
HETATM   25  C   UNL     1      24.775  45.813  51.111  1.00  0.00     0.409 C 
HETATM   26  F   UNL     1      23.899  44.863  51.507  1.00  0.00    -0.169 F 
HETATM   27  F   UNL     1      24.794  46.776  52.055  1.00  0.00    -0.169 F 
HETATM   28  F   UNL     1      24.247  46.381  49.993  1.00  0.00    -0.169 F 
ENDBRANCH   8  25
BRANCH   1  29
HETATM   29  C   UNL     1      28.036  44.270  54.011  1.00  0.00    -0.035 A 
HETATM   30  C   UNL     1      28.820  43.107  53.918  1.00  0.00     0.010 A 
HETATM   31  C   UNL     1      29.955  42.941  54.712  1.00  0.00     0.007 A 
HETATM   32  C   UNL     1      30.331  43.931  55.622  1.00  0.00    -0.062 A 
HETATM   33  C   UNL     1      31.570  43.768  56.451  1.00  0.00     0.048 C 
HETATM   34  C   UNL     1      29.568  45.103  55.705  1.00  0.00     0.007 A 
HETATM   35  C   UNL     1      28.429  45.270  54.911  1.00  0.00     0.010 A 
ENDBRANCH   1  29
TORSDOF 6
ENDMDL
MODEL 8
REMARK VINA RESULT:      -8.9      4.707      7.956
REMARK  6 active torsions:
REMARK  status: ('A' for Active; 'I' for Inactive)
REMARK    1  A    between atoms: C_5  and  C_6 
REMARK    2  A    between atoms: C_11  and  C_12 
REMARK       I    between atoms: C_12  and  N_13 
REMARK    3  A    between atoms: N_13  and  C_14 
REMARK    4  A    between atoms: C_16  and  C_17 
REMARK    5  A    between atoms: C_17  and  O_18 
REMARK    6  A    between atoms: C_25  and  C_26 
ROOT
HETATM    1  C   UNL     1      27.173  43.636  53.237  1.00  0.00     0.118 C 
HETATM    2  N   UNL     1      27.162  42.280  52.678  1.00  0.00    -0.366 N 
HETATM    3  C   UNL     1      27.153  42.056  51.349  1.00  0.00     0.123 A 
HETATM    4  N   UNL     1      26.773  43.033  50.474  1.00  0.00    -0.240 N 
HETATM    5  N   UNL     1      26.956  42.715  49.179  1.00  0.00    -0.165 NA
HETATM    6  C   UNL     1      27.401  41.436  49.236  1.00  0.00     0.148 A 
HETATM    7  C   UNL     1      27.492  40.976  50.580  1.00  0.00     0.089 A 
HETATM    8  C   UNL     1      26.403  44.365  50.906  1.00  0.00     0.221 C 
HETATM    9  C   UNL     1      27.240  44.724  52.142  1.00  0.00     0.066 C 
HETATM   10  H   UNL     1      27.475  41.553  53.323  1.00  0.00     0.161 HD
ENDROOT
BRANCH   6  11
HETATM   11  C   UNL     1      27.787  40.684  48.028  1.00  0.00     0.276 C 
HETATM   12  N   UNL     1      27.593  39.326  48.185  1.00  0.00    -0.322 N 
HETATM   13  H   UNL     1      27.282  39.067  49.118  1.00  0.00     0.169 HD
HETATM   14  O   UNL     1      28.210  41.256  47.030  1.00  0.00    -0.266 OA
BRANCH  12  15
HETATM   15  C   UNL     1      27.740  38.308  47.229  1.00  0.00     0.035 A 
HETATM   16  C   UNL     1      28.414  38.474  46.017  1.00  0.00     0.039 A 
HETATM   17  C   UNL     1      28.509  37.424  45.085  1.00  0.00    -0.028 A 
HETATM   18  C   UNL     1      27.924  36.190  45.399  1.00  0.00     0.010 A 
HETATM   19  C   UNL     1      27.248  36.016  46.606  1.00  0.00     0.003 A 
HETATM   20  C   UNL     1      27.151  37.071  47.513  1.00  0.00     0.029 A 
BRANCH  17  21
HETATM   21  C   UNL     1      29.253  37.653  43.786  1.00  0.00     0.147 C 
HETATM   22  C   UNL     1      29.211  39.118  43.367  1.00  0.00     0.044 C 
BRANCH  21  23
HETATM   23  O   UNL     1      30.616  37.244  43.906  1.00  0.00    -0.391 OA
HETATM   24  H   UNL     1      30.607  36.310  44.172  1.00  0.00     0.210 HD
ENDBRANCH  21  23
ENDBRANCH  17  21
ENDBRANCH  12  15
ENDBRANCH   6  11
BRANCH   8  25
HETATM   25  C   UNL     1      24.915  44.443  51.158  1.00  0.00     0.409 C 
HETATM   26  F   UNL     1      24.350  43.221  51.271  1.00  0.00    -0.169 F 
HETATM   27  F   UNL     1      24.584  45.154  52.255  1.00  0.00    -0.169 F 
HETATM   28  F   UNL     1      24.307  45.053  50.106  1.00  0.00    -0.169 F 
ENDBRANCH   8  25
BRANCH   1  29
HETATM   29  C   UNL     1      28.351  43.775  54.188  1.00  0.00    -0.035 A 
HETATM   30  C   UNL     1      29.351  42.789  54.250  1.00  0.00     0.010 A 
HETATM   31  C   UNL     1      30.439  42.923  55.114  1.00  0.00     0.007 A 
HETATM   32  C   UNL     1      30.550  44.044  55.940  1.00  0.00    -0.062 A 
HETATM   33  C   UNL     1      31.737  44.204  56.843  1.00  0.00     0.048 C 
HETATM   34  C   UNL     1      29.569  45.041  55.868  1.00  0.00     0.007 A 
HETATM   35  C   UNL     1      28.477  44.907  55.005  1.00  0.00     0.010 A 
ENDBRANCH   1  29
TORSDOF 6
ENDMDL
MODEL 9
REMARK VINA RESULT:      -8.9      2.062      2.437
REMARK  6 active torsions:
REMARK  status: ('A' for Active; 'I' for Inactive)
REMARK    1  A    between atoms: C_5  and  C_6 
REMARK    2  A    between atoms: C_11  and  C_12 
REMARK       I    between atoms: C_12  and  N_13 
REMARK    3  A    between atoms: N_13  and  C_14 
REMARK    4  A    between atoms: C_16  and  C_17 
REMARK    5  A    between atoms: C_17  and  O_18 
REMARK    6  A    between atoms: C_25  and  C_26 
ROOT
HETATM    1  C   UNL     1      28.667  42.718  52.265  1.00  0.00     0.118 C 
HETATM    2  N   UNL     1      27.998  43.665  51.366  1.00  0.00    -0.366 N 
HETATM    3  C   UNL     1      26.755  43.444  50.894  1.00  0.00     0.123 A 
HETATM    4  N   UNL     1      26.211  42.192  50.904  1.00  0.00    -0.240 N 
HETATM    5  N   UNL     1      24.916  42.150  50.543  1.00  0.00    -0.165 NA
HETATM    6  C   UNL     1      24.649  43.435  50.206  1.00  0.00     0.148 A 
HETATM    7  C   UNL     1      25.794  44.266  50.372  1.00  0.00     0.089 A 
HETATM    8  C   UNL     1      26.906  41.045  51.455  1.00  0.00     0.221 C 
HETATM    9  C   UNL     1      27.765  41.520  52.635  1.00  0.00     0.066 C 
HETATM   10  H   UNL     1      28.386  44.609  51.381  1.00  0.00     0.161 HD
ENDROOT
BRANCH   6  11
HETATM   11  C   UNL     1      23.305  43.875  49.789  1.00  0.00     0.276 C 
HETATM   12  N   UNL     1      23.363  44.824  48.786  1.00  0.00    -0.322 N 
HETATM   13  H   UNL     1      24.312  45.106  48.552  1.00  0.00     0.169 HD
HETATM   14  O   UNL     1      22.294  43.406  50.299  1.00  0.00    -0.266 OA
BRANCH  12  15
HETATM   15  C   UNL     1      22.304  45.394  48.063  1.00  0.00     0.035 A 
HETATM   16  C   UNL     1      21.234  46.069  48.657  1.00  0.00     0.039 A 
HETATM   17  C   UNL     1      20.186  46.599  47.882  1.00  0.00    -0.028 A 
HETATM   18  C   UNL     1      20.238  46.455  46.490  1.00  0.00     0.010 A 
HETATM   19  C   UNL     1      21.301  45.781  45.889  1.00  0.00     0.003 A 
HETATM   20  C   UNL     1      22.326  45.249  46.672  1.00  0.00     0.029 A 
BRANCH  17  21
HETATM   21  C   UNL     1      19.050  47.324  48.573  1.00  0.00     0.147 C 
HETATM   22  C   UNL     1      18.558  48.509  47.749  1.00  0.00     0.044 C 
BRANCH  21  23
HETATM   23  O   UNL     1      17.955  46.438  48.810  1.00  0.00    -0.391 OA
HETATM   24  H   UNL     1      17.691  46.561  49.737  1.00  0.00     0.210 HD
ENDBRANCH  21  23
ENDBRANCH  17  21
ENDBRANCH  12  15
ENDBRANCH   6  11
BRANCH   8  25
HETATM   25  C   UNL     1      27.710  40.351  50.381  1.00  0.00     0.409 C 
HETATM   26  F   UNL     1      28.880  39.865  50.850  1.00  0.00    -0.169 F 
HETATM   27  F   UNL     1      27.054  39.339  49.777  1.00  0.00    -0.169 F 
HETATM   28  F   UNL     1      28.027  41.241  49.403  1.00  0.00    -0.169 F 
ENDBRANCH   8  25
BRANCH   1  29
HETATM   29  C   UNL     1      29.111  43.450  53.521  1.00  0.00    -0.035 A 
HETATM   30  C   UNL     1      30.235  43.020  54.249  1.00  0.00     0.010 A 
HETATM   31  C   UNL     1      30.651  43.700  55.395  1.00  0.00     0.007 A 
HETATM   32  C   UNL     1      29.949  44.821  55.844  1.00  0.00    -0.062 A 
HETATM   33  C   UNL     1      30.416  45.571  57.056  1.00  0.00     0.048 C 
HETATM   34  C   UNL     1      28.842  45.268  55.112  1.00  0.00     0.007 A 
HETATM   35  C   UNL     1      28.423  44.587  53.965  1.00  0.00     0.010 A 
ENDBRANCH   1  29
TORSDOF 6
ENDMDL
MODEL 10
REMARK VINA RESULT:      -8.5      3.213      5.485
REMARK  6 active torsions:
REMARK  status: ('A' for Active; 'I' for Inactive)
REMARK    1  A    between atoms: C_5  and  C_6 
REMARK    2  A    between atoms: C_11  and  C_12 
REMARK       I    between atoms: C_12  and  N_13 
REMARK    3  A    between atoms: N_13  and  C_14 
REMARK    4  A    between atoms: C_16  and  C_17 
REMARK    5  A    between atoms: C_17  and  O_18 
REMARK    6  A    between atoms: C_25  and  C_26 
ROOT
HETATM    1  C   UNL     1      26.561  41.874  50.835  1.00  0.00     0.118 C 
HETATM    2  N   UNL     1      25.178  42.199  50.470  1.00  0.00    -0.366 N 
HETATM    3  C   UNL     1      24.773  43.469  50.267  1.00  0.00     0.123 A 
HETATM    4  N   UNL     1      25.494  44.522  50.750  1.00  0.00    -0.240 N 
HETATM    5  N   UNL     1      25.051  45.726  50.344  1.00  0.00    -0.165 NA
HETATM    6  C   UNL     1      23.940  45.421  49.631  1.00  0.00     0.148 A 
HETATM    7  C   UNL     1      23.711  44.016  49.601  1.00  0.00     0.089 A 
HETATM    8  C   UNL     1      26.744  44.350  51.463  1.00  0.00     0.221 C 
HETATM    9  C   UNL     1      27.466  43.125  50.885  1.00  0.00     0.066 C 
HETATM   10  H   UNL     1      24.648  41.418  50.080  1.00  0.00     0.161 HD
ENDROOT
BRANCH   6  11
HETATM   11  C   UNL     1      23.142  46.450  48.941  1.00  0.00     0.276 C 
HETATM   12  N   UNL     1      23.133  47.645  49.634  1.00  0.00    -0.322 N 
HETATM   13  H   UNL     1      23.618  47.596  50.528  1.00  0.00     0.169 HD
HETATM   14  O   UNL     1      22.589  46.218  47.872  1.00  0.00    -0.266 OA
BRANCH  12  15
HETATM   15  C   UNL     1      22.581  48.875  49.246  1.00  0.00     0.035 A 
HETATM   16  C   UNL     1      21.208  49.129  49.201  1.00  0.00     0.039 A 
HETATM   17  C   UNL     1      20.710  50.376  48.779  1.00  0.00    -0.028 A 
HETATM   18  C   UNL     1      21.621  51.376  48.415  1.00  0.00     0.010 A 
HETATM   19  C   UNL     1      22.993  51.131  48.455  1.00  0.00     0.003 A 
HETATM   20  C   UNL     1      23.470  49.885  48.863  1.00  0.00     0.029 A 
BRANCH  17  21
HETATM   21  C   UNL     1      19.213  50.603  48.750  1.00  0.00     0.147 C 
HETATM   22  C   UNL     1      18.859  52.049  49.078  1.00  0.00     0.044 C 
BRANCH  21  23
HETATM   23  O   UNL     1      18.677  50.275  47.467  1.00  0.00    -0.391 OA
HETATM   24  H   UNL     1      19.134  49.472  47.169  1.00  0.00     0.210 HD
ENDBRANCH  21  23
ENDBRANCH  17  21
ENDBRANCH  12  15
ENDBRANCH   6  11
BRANCH   8  25
HETATM   25  C   UNL     1      26.492  44.240  52.948  1.00  0.00     0.409 C 
HETATM   26  F   UNL     1      25.201  43.956  53.230  1.00  0.00    -0.169 F 
HETATM   27  F   UNL     1      27.262  43.321  53.566  1.00  0.00    -0.169 F 
HETATM   28  F   UNL     1      26.763  45.431  53.545  1.00  0.00    -0.169 F 
ENDBRANCH   8  25
BRANCH   1  29
HETATM   29  C   UNL     1      27.115  40.863  49.844  1.00  0.00    -0.035 A 
HETATM   30  C   UNL     1      27.251  39.508  50.193  1.00  0.00     0.010 A 
HETATM   31  C   UNL     1      27.748  38.577  49.279  1.00  0.00     0.007 A 
HETATM   32  C   UNL     1      28.125  38.980  47.996  1.00  0.00    -0.062 A 
HETATM   33  C   UNL     1      28.627  37.974  47.003  1.00  0.00     0.048 C 
HETATM   34  C   UNL     1      27.972  40.325  47.633  1.00  0.00     0.007 A 
HETATM   35  C   UNL     1      27.476  41.258  48.549  1.00  0.00     0.010 A 
ENDBRANCH   1  29
TORSDOF 6
ENDMDL
