MODEL 1
REMARK VINA RESULT:     -10.1      0.000      0.000
REMARK  2 active torsions:
REMARK  status: ('A' for Active; 'I' for Inactive)
REMARK    1  A    between atoms: O_2  and  C_3 
REMARK    2  A    between atoms: C_4  and  N_5 
REMARK       I    between atoms: N_5  and  C_6 
REMARK       I    between atoms: C_6  and  N_7 
ROOT
HETATM    1  N   UNL     1      25.918  46.509  51.367  1.00  0.00    -0.306 N 
HETATM    2  C   UNL     1      25.910  46.868  52.693  1.00  0.00     0.323 C 
HETATM    3  N   UNL     1      26.770  46.101  53.476  1.00  0.00    -0.328 N 
HETATM    4  C   UNL     1      26.980  46.578  54.847  1.00  0.00     0.185 C 
HETATM    5  C   UNL     1      28.162  45.877  55.417  1.00  0.00     0.035 A 
HETATM    6  C   UNL     1      28.801  44.769  54.901  1.00  0.00    -0.020 A 
HETATM    7  C   UNL     1      28.366  44.159  53.615  1.00  0.00     0.061 C 
HETATM    8  C   UNL     1      26.951  44.647  53.251  1.00  0.00     0.132 C 
HETATM    9  N   UNL     1      28.797  46.231  56.576  1.00  0.00    -0.357 N 
HETATM   10  H   UNL     1      28.553  47.012  57.168  1.00  0.00     0.166 HD
HETATM   11  C   UNL     1      29.836  45.358  56.823  1.00  0.00     0.043 A 
HETATM   12  C   UNL     1      29.858  44.424  55.783  1.00  0.00    -0.001 A 
HETATM   13  C   UNL     1      30.754  45.327  57.881  1.00  0.00     0.030 A 
HETATM   14  C   UNL     1      31.715  44.312  57.877  1.00  0.00     0.002 A 
HETATM   15  C   UNL     1      31.757  43.367  56.855  1.00  0.00     0.001 A 
HETATM   16  C   UNL     1      30.837  43.413  55.801  1.00  0.00     0.014 A 
HETATM   17  O   UNL     1      25.269  47.808  53.156  1.00  0.00    -0.247 OA
HETATM   18  H   UNL     1      26.769  46.069  51.043  1.00  0.00     0.171 HD
ENDROOT
BRANCH   1  19
HETATM   19  C   UNL     1      25.084  46.999  50.343  1.00  0.00     0.071 A 
HETATM   20  C   UNL     1      24.015  46.183  49.937  1.00  0.00     0.095 A 
HETATM   21  C   UNL     1      23.102  46.614  48.975  1.00  0.00     0.041 A 
HETATM   22  C   UNL     1      23.273  47.865  48.385  1.00  0.00     0.026 A 
HETATM   23  C   UNL     1      24.345  48.672  48.768  1.00  0.00     0.036 A 
HETATM   24  C   UNL     1      25.250  48.250  49.745  1.00  0.00     0.056 A 
HETATM   25 CL   UNL     1      24.539  50.221  48.039  1.00  0.00    -0.084 Cl
BRANCH  20  26
HETATM   26  O   UNL     1      23.859  44.953  50.532  1.00  0.00    -0.354 OA
HETATM   27  C   UNL     1      23.020  44.123  49.725  1.00  0.00     0.210 C 
ENDBRANCH  20  26
ENDBRANCH   1  19
TORSDOF 2
ENDMDL
MODEL 2
REMARK VINA RESULT:      -9.8      1.394      2.145
REMARK  2 active torsions:
REMARK  status: ('A' for Active; 'I' for Inactive)
REMARK    1  A    between atoms: O_2  and  C_3 
REMARK    2  A    between atoms: C_4  and  N_5 
REMARK       I    between atoms: N_5  and  C_6 
REMARK       I    between atoms: C_6  and  N_7 
ROOT
HETATM    1  N   UNL     1      25.900  46.613  51.370  1.00  0.00    -0.306 N 
HETATM    2  C   UNL     1      25.893  46.920  52.709  1.00  0.00     0.323 C 
HETATM    3  N   UNL     1      26.755  46.123  53.461  1.00  0.00    -0.328 N 
HETATM    4  C   UNL     1      26.967  46.547  54.849  1.00  0.00     0.185 C 
HETATM    5  C   UNL     1      28.149  45.825  55.390  1.00  0.00     0.035 A 
HETATM    6  C   UNL     1      28.789  44.739  54.830  1.00  0.00    -0.020 A 
HETATM    7  C   UNL     1      28.353  44.179  53.522  1.00  0.00     0.061 C 
HETATM    8  C   UNL     1      26.936  44.679  53.179  1.00  0.00     0.132 C 
HETATM    9  N   UNL     1      28.785  46.134  56.561  1.00  0.00    -0.357 N 
HETATM   10  H   UNL     1      28.542  46.891  57.184  1.00  0.00     0.166 HD
HETATM   11  C   UNL     1      29.826  45.253  56.773  1.00  0.00     0.043 A 
HETATM   12  C   UNL     1      29.846  44.360  55.698  1.00  0.00    -0.001 A 
HETATM   13  C   UNL     1      30.745  45.181  57.828  1.00  0.00     0.030 A 
HETATM   14  C   UNL     1      31.706  44.167  57.783  1.00  0.00     0.002 A 
HETATM   15  C   UNL     1      31.748  43.263  56.725  1.00  0.00     0.001 A 
HETATM   16  C   UNL     1      30.826  43.349  55.675  1.00  0.00     0.014 A 
HETATM   17  O   UNL     1      25.253  47.841  53.209  1.00  0.00    -0.247 OA
HETATM   18  H   UNL     1      26.751  46.186  51.029  1.00  0.00     0.171 HD
ENDROOT
BRANCH   1  19
HETATM   19  C   UNL     1      25.065  47.142  50.367  1.00  0.00     0.071 A 
HETATM   20  C   UNL     1      25.514  48.293  49.697  1.00  0.00     0.095 A 
HETATM   21  C   UNL     1      24.783  48.849  48.647  1.00  0.00     0.041 A 
HETATM   22  C   UNL     1      23.572  48.267  48.276  1.00  0.00     0.026 A 
HETATM   23  C   UNL     1      23.111  47.134  48.951  1.00  0.00     0.036 A 
HETATM   24  C   UNL     1      23.850  46.567  49.991  1.00  0.00     0.056 A 
HETATM   25 CL   UNL     1      21.618  46.419  48.476  1.00  0.00    -0.084 Cl
BRANCH  20  26
HETATM   26  O   UNL     1      26.712  48.853  50.074  1.00  0.00    -0.354 OA
HETATM   27  C   UNL     1      27.607  48.888  48.959  1.00  0.00     0.210 C 
ENDBRANCH  20  26
ENDBRANCH   1  19
TORSDOF 2
ENDMDL
MODEL 3
REMARK VINA RESULT:      -9.0      5.338      6.347
REMARK  2 active torsions:
REMARK  status: ('A' for Active; 'I' for Inactive)
REMARK    1  A    between atoms: O_2  and  C_3 
REMARK    2  A    between atoms: C_4  and  N_5 
REMARK       I    between atoms: N_5  and  C_6 
REMARK       I    between atoms: C_6  and  N_7 
ROOT
HETATM    1  N   UNL     1      28.436  40.805  49.514  1.00  0.00    -0.306 N 
HETATM    2  C   UNL     1      27.528  41.585  50.187  1.00  0.00     0.323 C 
HETATM    3  N   UNL     1      27.981  42.004  51.436  1.00  0.00    -0.328 N 
HETATM    4  C   UNL     1      27.162  43.021  52.104  1.00  0.00     0.185 C 
HETATM    5  C   UNL     1      27.947  43.602  53.225  1.00  0.00     0.035 A 
HETATM    6  C   UNL     1      29.121  43.113  53.760  1.00  0.00    -0.020 A 
HETATM    7  C   UNL     1      29.777  41.901  53.197  1.00  0.00     0.061 C 
HETATM    8  C   UNL     1      28.780  41.121  52.319  1.00  0.00     0.132 C 
HETATM    9  N   UNL     1      27.605  44.731  53.917  1.00  0.00    -0.357 N 
HETATM   10  H   UNL     1      26.795  45.310  53.741  1.00  0.00     0.166 HD
HETATM   11  C   UNL     1      28.538  44.975  54.904  1.00  0.00     0.043 A 
HETATM   12  C   UNL     1      29.502  43.966  54.829  1.00  0.00    -0.001 A 
HETATM   13  C   UNL     1      28.601  46.007  55.848  1.00  0.00     0.030 A 
HETATM   14  C   UNL     1      29.676  46.004  56.742  1.00  0.00     0.002 A 
HETATM   15  C   UNL     1      30.650  45.009  56.691  1.00  0.00     0.001 A 
HETATM   16  C   UNL     1      30.576  43.986  55.738  1.00  0.00     0.014 A 
HETATM   17  O   UNL     1      26.447  41.946  49.730  1.00  0.00    -0.247 OA
HETATM   18  H   UNL     1      29.404  40.951  49.767  1.00  0.00     0.171 HD
ENDROOT
BRANCH   1  19
HETATM   19  C   UNL     1      28.244  40.128  48.293  1.00  0.00     0.071 A 
HETATM   20  C   UNL     1      28.028  38.741  48.354  1.00  0.00     0.095 A 
HETATM   21  C   UNL     1      27.766  38.000  47.201  1.00  0.00     0.041 A 
HETATM   22  C   UNL     1      27.749  38.645  45.966  1.00  0.00     0.026 A 
HETATM   23  C   UNL     1      27.984  40.020  45.897  1.00  0.00     0.036 A 
HETATM   24  C   UNL     1      28.228  40.766  47.052  1.00  0.00     0.056 A 
HETATM   25 CL   UNL     1      27.949  40.806  44.365  1.00  0.00    -0.084 Cl
BRANCH  20  26
HETATM   26  O   UNL     1      28.045  38.121  49.581  1.00  0.00    -0.354 OA
HETATM   27  C   UNL     1      27.144  37.011  49.581  1.00  0.00     0.210 C 
ENDBRANCH  20  26
ENDBRANCH   1  19
TORSDOF 2
ENDMDL
MODEL 4
REMARK VINA RESULT:      -8.9      2.466      3.577
REMARK  2 active torsions:
REMARK  status: ('A' for Active; 'I' for Inactive)
REMARK    1  A    between atoms: O_2  and  C_3 
REMARK    2  A    between atoms: C_4  and  N_5 
REMARK       I    between atoms: N_5  and  C_6 
REMARK       I    between atoms: C_6  and  N_7 
ROOT
HETATM    1  N   UNL     1      25.419  44.241  51.454  1.00  0.00    -0.306 N 
HETATM    2  C   UNL     1      26.716  43.790  51.452  1.00  0.00     0.323 C 
HETATM    3  N   UNL     1      27.465  44.264  52.528  1.00  0.00    -0.328 N 
HETATM    4  C   UNL     1      28.780  43.643  52.712  1.00  0.00     0.185 C 
HETATM    5  C   UNL     1      29.286  43.993  54.066  1.00  0.00     0.035 A 
HETATM    6  C   UNL     1      28.782  44.954  54.919  1.00  0.00    -0.020 A 
HETATM    7  C   UNL     1      27.578  45.751  54.556  1.00  0.00     0.061 C 
HETATM    8  C   UNL     1      27.313  45.646  53.042  1.00  0.00     0.132 C 
HETATM    9  N   UNL     1      30.360  43.407  54.676  1.00  0.00    -0.357 N 
HETATM   10  H   UNL     1      30.923  42.662  54.292  1.00  0.00     0.166 HD
HETATM   11  C   UNL     1      30.567  43.983  55.912  1.00  0.00     0.043 A 
HETATM   12  C   UNL     1      29.587  44.965  56.088  1.00  0.00    -0.001 A 
HETATM   13  C   UNL     1      31.539  43.710  56.883  1.00  0.00     0.030 A 
HETATM   14  C   UNL     1      31.511  44.463  58.060  1.00  0.00     0.002 A 
HETATM   15  C   UNL     1      30.548  45.449  58.260  1.00  0.00     0.001 A 
HETATM   16  C   UNL     1      29.579  45.708  57.283  1.00  0.00     0.014 A 
HETATM   17  O   UNL     1      27.176  42.997  50.636  1.00  0.00    -0.247 OA
HETATM   18  H   UNL     1      25.048  44.490  52.361  1.00  0.00     0.171 HD
ENDROOT
BRANCH   1  19
HETATM   19  C   UNL     1      24.444  44.048  50.455  1.00  0.00     0.071 A 
HETATM   20  C   UNL     1      23.862  45.197  49.893  1.00  0.00     0.095 A 
HETATM   21  C   UNL     1      22.935  45.103  48.855  1.00  0.00     0.041 A 
HETATM   22  C   UNL     1      22.560  43.845  48.388  1.00  0.00     0.026 A 
HETATM   23  C   UNL     1      23.120  42.698  48.956  1.00  0.00     0.036 A 
HETATM   24  C   UNL     1      24.061  42.791  49.984  1.00  0.00     0.056 A 
HETATM   25 CL   UNL     1      22.655  41.150  48.363  1.00  0.00    -0.084 Cl
BRANCH  20  26
HETATM   26  O   UNL     1      24.245  46.431  50.364  1.00  0.00    -0.354 OA
HETATM   27  C   UNL     1      23.816  47.453  49.461  1.00  0.00     0.210 C 
ENDBRANCH  20  26
ENDBRANCH   1  19
TORSDOF 2
ENDMDL
MODEL 5
REMARK VINA RESULT:      -8.8      6.352      9.500
REMARK  2 active torsions:
REMARK  status: ('A' for Active; 'I' for Inactive)
REMARK    1  A    between atoms: O_2  and  C_3 
REMARK    2  A    between atoms: C_4  and  N_5 
REMARK       I    between atoms: N_5  and  C_6 
REMARK       I    between atoms: C_6  and  N_7 
ROOT
HETATM    1  N   UNL     1      18.954  51.505  48.672  1.00  0.00    -0.306 N 
HETATM    2  C   UNL     1      19.327  50.220  48.985  1.00  0.00     0.323 C 
HETATM    3  N   UNL     1      20.674  49.962  48.737  1.00  0.00    -0.328 N 
HETATM    4  C   UNL     1      21.186  48.692  49.260  1.00  0.00     0.185 C 
HETATM    5  C   UNL     1      22.673  48.730  49.226  1.00  0.00     0.035 A 
HETATM    6  C   UNL     1      23.467  49.648  48.570  1.00  0.00    -0.020 A 
HETATM    7  C   UNL     1      22.869  50.788  47.822  1.00  0.00     0.061 C 
HETATM    8  C   UNL     1      21.376  50.519  47.556  1.00  0.00     0.132 C 
HETATM    9  N   UNL     1      23.493  47.829  49.847  1.00  0.00    -0.357 N 
HETATM   10  H   UNL     1      23.191  47.047  50.412  1.00  0.00     0.166 HD
HETATM   11  C   UNL     1      24.812  48.145  49.594  1.00  0.00     0.043 A 
HETATM   12  C   UNL     1      24.822  49.286  48.787  1.00  0.00    -0.001 A 
HETATM   13  C   UNL     1      25.987  47.512  50.017  1.00  0.00     0.030 A 
HETATM   14  C   UNL     1      27.204  48.059  49.601  1.00  0.00     0.002 A 
HETATM   15  C   UNL     1      27.244  49.193  48.794  1.00  0.00     0.001 A 
HETATM   16  C   UNL     1      26.061  49.818  48.382  1.00  0.00     0.014 A 
HETATM   17  O   UNL     1      18.585  49.384  49.493  1.00  0.00    -0.247 OA
HETATM   18  H   UNL     1      19.696  52.190  48.702  1.00  0.00     0.171 HD
ENDROOT
BRANCH   1  19
HETATM   19  C   UNL     1      17.654  52.047  48.691  1.00  0.00     0.071 A 
HETATM   20  C   UNL     1      16.892  51.932  47.515  1.00  0.00     0.095 A 
HETATM   21  C   UNL     1      15.573  52.383  47.463  1.00  0.00     0.041 A 
HETATM   22  C   UNL     1      15.013  52.985  48.588  1.00  0.00     0.026 A 
HETATM   23  C   UNL     1      15.771  53.120  49.753  1.00  0.00     0.036 A 
HETATM   24  C   UNL     1      17.086  52.653  49.812  1.00  0.00     0.056 A 
HETATM   25 CL   UNL     1      15.063  53.856  51.139  1.00  0.00    -0.084 Cl
BRANCH  20  26
HETATM   26  O   UNL     1      17.459  51.333  46.415  1.00  0.00    -0.354 OA
HETATM   27  C   UNL     1      16.797  50.097  46.136  1.00  0.00     0.210 C 
ENDBRANCH  20  26
ENDBRANCH   1  19
TORSDOF 2
ENDMDL
MODEL 6
REMARK VINA RESULT:      -8.8      3.179      4.950
REMARK  2 active torsions:
REMARK  status: ('A' for Active; 'I' for Inactive)
REMARK    1  A    between atoms: O_2  and  C_3 
REMARK    2  A    between atoms: C_4  and  N_5 
REMARK       I    between atoms: N_5  and  C_6 
REMARK       I    between atoms: C_6  and  N_7 
ROOT
HETATM    1  N   UNL     1      23.142  48.075  49.896  1.00  0.00    -0.306 N 
HETATM    2  C   UNL     1      23.646  46.912  49.368  1.00  0.00     0.323 C 
HETATM    3  N   UNL     1      24.685  46.370  50.122  1.00  0.00    -0.328 N 
HETATM    4  C   UNL     1      25.111  45.019  49.743  1.00  0.00     0.185 C 
HETATM    5  C   UNL     1      25.954  44.463  50.836  1.00  0.00     0.035 A 
HETATM    6  C   UNL     1      26.501  45.153  51.898  1.00  0.00    -0.020 A 
HETATM    7  C   UNL     1      26.243  46.607  52.086  1.00  0.00     0.061 C 
HETATM    8  C   UNL     1      25.707  47.221  50.779  1.00  0.00     0.132 C 
HETATM    9  N   UNL     1      26.331  43.153  50.943  1.00  0.00    -0.357 N 
HETATM   10  H   UNL     1      26.071  42.410  50.310  1.00  0.00     0.166 HD
HETATM   11  C   UNL     1      27.126  42.986  52.058  1.00  0.00     0.043 A 
HETATM   12  C   UNL     1      27.252  44.234  52.675  1.00  0.00    -0.001 A 
HETATM   13  C   UNL     1      27.736  41.831  52.564  1.00  0.00     0.030 A 
HETATM   14  C   UNL     1      28.499  41.958  53.729  1.00  0.00     0.002 A 
HETATM   15  C   UNL     1      28.643  43.190  54.363  1.00  0.00     0.001 A 
HETATM   16  C   UNL     1      28.024  44.334  53.848  1.00  0.00     0.014 A 
HETATM   17  O   UNL     1      23.202  46.350  48.371  1.00  0.00    -0.247 OA
HETATM   18  H   UNL     1      23.259  48.184  50.895  1.00  0.00     0.171 HD
ENDROOT
BRANCH   1  19
HETATM   19  C   UNL     1      22.179  48.929  49.323  1.00  0.00     0.071 A 
HETATM   20  C   UNL     1      22.609  50.205  48.921  1.00  0.00     0.095 A 
HETATM   21  C   UNL     1      21.740  51.093  48.286  1.00  0.00     0.041 A 
HETATM   22  C   UNL     1      20.415  50.716  48.074  1.00  0.00     0.026 A 
HETATM   23  C   UNL     1      19.977  49.457  48.490  1.00  0.00     0.036 A 
HETATM   24  C   UNL     1      20.850  48.560  49.110  1.00  0.00     0.056 A 
HETATM   25 CL   UNL     1      18.340  49.000  48.212  1.00  0.00    -0.084 Cl
BRANCH  20  26
HETATM   26  O   UNL     1      23.920  50.560  49.135  1.00  0.00    -0.354 OA
HETATM   27  C   UNL     1      24.713  50.211  47.997  1.00  0.00     0.210 C 
ENDBRANCH  20  26
ENDBRANCH   1  19
TORSDOF 2
ENDMDL
MODEL 7
REMARK VINA RESULT:      -8.4      4.021      9.811
REMARK  2 active torsions:
REMARK  status: ('A' for Active; 'I' for Inactive)
REMARK    1  A    between atoms: O_2  and  C_3 
REMARK    2  A    between atoms: C_4  and  N_5 
REMARK       I    between atoms: N_5  and  C_6 
REMARK       I    between atoms: C_6  and  N_7 
ROOT
HETATM    1  N   UNL     1      24.419  46.289  50.547  1.00  0.00    -0.306 N 
HETATM    2  C   UNL     1      24.554  47.567  50.062  1.00  0.00     0.323 C 
HETATM    3  N   UNL     1      23.387  48.063  49.484  1.00  0.00    -0.328 N 
HETATM    4  C   UNL     1      23.395  49.492  49.156  1.00  0.00     0.185 C 
HETATM    5  C   UNL     1      21.997  49.926  48.888  1.00  0.00     0.035 A 
HETATM    6  C   UNL     1      20.899  49.115  48.691  1.00  0.00    -0.020 A 
HETATM    7  C   UNL     1      21.009  47.634  48.778  1.00  0.00     0.061 C 
HETATM    8  C   UNL     1      22.486  47.207  48.675  1.00  0.00     0.132 C 
HETATM    9  N   UNL     1      21.589  51.226  48.784  1.00  0.00    -0.357 N 
HETATM   10  H   UNL     1      22.177  52.041  48.891  1.00  0.00     0.166 HD
HETATM   11  C   UNL     1      20.237  51.270  48.510  1.00  0.00     0.043 A 
HETATM   12  C   UNL     1      19.779  49.951  48.442  1.00  0.00    -0.001 A 
HETATM   13  C   UNL     1      19.392  52.371  48.321  1.00  0.00     0.030 A 
HETATM   14  C   UNL     1      18.045  52.115  48.052  1.00  0.00     0.002 A 
HETATM   15  C   UNL     1      17.561  50.811  47.976  1.00  0.00     0.001 A 
HETATM   16  C   UNL     1      18.417  49.721  48.171  1.00  0.00     0.014 A 
HETATM   17  O   UNL     1      25.569  48.250  50.171  1.00  0.00    -0.247 OA
HETATM   18  H   UNL     1      23.479  46.022  50.805  1.00  0.00     0.171 HD
ENDROOT
BRANCH   1  19
HETATM   19  C   UNL     1      25.430  45.463  51.077  1.00  0.00     0.071 A 
HETATM   20  C   UNL     1      25.931  44.446  50.247  1.00  0.00     0.095 A 
HETATM   21  C   UNL     1      26.976  43.622  50.664  1.00  0.00     0.041 A 
HETATM   22  C   UNL     1      27.511  43.794  51.939  1.00  0.00     0.026 A 
HETATM   23  C   UNL     1      27.004  44.789  52.777  1.00  0.00     0.036 A 
HETATM   24  C   UNL     1      25.970  45.627  52.354  1.00  0.00     0.056 A 
HETATM   25 CL   UNL     1      27.682  44.997  54.346  1.00  0.00    -0.084 Cl
BRANCH  20  26
HETATM   26  O   UNL     1      25.393  44.293  48.990  1.00  0.00    -0.354 OA
HETATM   27  C   UNL     1      24.810  42.993  48.863  1.00  0.00     0.210 C 
ENDBRANCH  20  26
ENDBRANCH   1  19
TORSDOF 2
ENDMDL
MODEL 8
REMARK VINA RESULT:      -8.0      4.280     10.015
REMARK  2 active torsions:
REMARK  status: ('A' for Active; 'I' for Inactive)
REMARK    1  A    between atoms: O_2  and  C_3 
REMARK    2  A    between atoms: C_4  and  N_5 
REMARK       I    between atoms: N_5  and  C_6 
REMARK       I    between atoms: C_6  and  N_7 
ROOT
HETATM    1  N   UNL     1      24.099  46.138  50.085  1.00  0.00    -0.306 N 
HETATM    2  C   UNL     1      24.227  47.413  49.591  1.00  0.00     0.323 C 
HETATM    3  N   UNL     1      23.017  47.966  49.175  1.00  0.00    -0.328 N 
HETATM    4  C   UNL     1      23.046  49.397  48.855  1.00  0.00     0.185 C 
HETATM    5  C   UNL     1      21.647  49.895  48.776  1.00  0.00     0.035 A 
HETATM    6  C   UNL     1      20.496  49.135  48.721  1.00  0.00    -0.020 A 
HETATM    7  C   UNL     1      20.550  47.649  48.786  1.00  0.00     0.061 C 
HETATM    8  C   UNL     1      21.980  47.160  48.488  1.00  0.00     0.132 C 
HETATM    9  N   UNL     1      21.287  51.213  48.732  1.00  0.00    -0.357 N 
HETATM   10  H   UNL     1      21.920  52.000  48.765  1.00  0.00     0.166 HD
HETATM   11  C   UNL     1      19.914  51.319  48.640  1.00  0.00     0.043 A 
HETATM   12  C   UNL     1      19.392  50.022  48.626  1.00  0.00    -0.001 A 
HETATM   13  C   UNL     1      19.101  52.458  48.569  1.00  0.00     0.030 A 
HETATM   14  C   UNL     1      17.720  52.264  48.478  1.00  0.00     0.002 A 
HETATM   15  C   UNL     1      17.173  50.984  48.460  1.00  0.00     0.001 A 
HETATM   16  C   UNL     1      17.997  49.855  48.536  1.00  0.00     0.014 A 
HETATM   17  O   UNL     1      25.277  48.050  49.569  1.00  0.00    -0.247 OA
HETATM   18  H   UNL     1      23.190  45.909  50.463  1.00  0.00     0.171 HD
ENDROOT
BRANCH   1  19
HETATM   19  C   UNL     1      25.133  45.263  50.472  1.00  0.00     0.071 A 
HETATM   20  C   UNL     1      25.677  45.438  51.756  1.00  0.00     0.095 A 
HETATM   21  C   UNL     1      26.659  44.578  52.248  1.00  0.00     0.041 A 
HETATM   22  C   UNL     1      27.129  43.546  51.438  1.00  0.00     0.026 A 
HETATM   23  C   UNL     1      26.607  43.379  50.154  1.00  0.00     0.036 A 
HETATM   24  C   UNL     1      25.611  44.228  49.667  1.00  0.00     0.056 A 
HETATM   25 CL   UNL     1      27.189  42.093  49.167  1.00  0.00    -0.084 Cl
BRANCH  20  26
HETATM   26  O   UNL     1      25.200  46.460  52.543  1.00  0.00    -0.354 OA
HETATM   27  C   UNL     1      26.290  47.175  53.130  1.00  0.00     0.210 C 
ENDBRANCH  20  26
ENDBRANCH   1  19
TORSDOF 2
ENDMDL
MODEL 9
REMARK VINA RESULT:      -8.0      5.408      7.044
REMARK  2 active torsions:
REMARK  status: ('A' for Active; 'I' for Inactive)
REMARK    1  A    between atoms: O_2  and  C_3 
REMARK    2  A    between atoms: C_4  and  N_5 
REMARK       I    between atoms: N_5  and  C_6 
REMARK       I    between atoms: C_6  and  N_7 
ROOT
HETATM    1  N   UNL     1      27.935  41.017  49.385  1.00  0.00    -0.306 N 
HETATM    2  C   UNL     1      26.788  41.693  49.723  1.00  0.00     0.323 C 
HETATM    3  N   UNL     1      26.923  42.465  50.876  1.00  0.00    -0.328 N 
HETATM    4  C   UNL     1      25.817  43.384  51.161  1.00  0.00     0.185 C 
HETATM    5  C   UNL     1      26.263  44.359  52.192  1.00  0.00     0.035 A 
HETATM    6  C   UNL     1      27.397  44.281  52.974  1.00  0.00    -0.020 A 
HETATM    7  C   UNL     1      28.366  43.162  52.817  1.00  0.00     0.061 C 
HETATM    8  C   UNL     1      27.711  42.002  52.043  1.00  0.00     0.132 C 
HETATM    9  N   UNL     1      25.591  45.500  52.532  1.00  0.00    -0.357 N 
HETATM   10  H   UNL     1      24.728  45.823  52.118  1.00  0.00     0.166 HD
HETATM   11  C   UNL     1      26.270  46.160  53.536  1.00  0.00     0.043 A 
HETATM   12  C   UNL     1      27.411  45.409  53.836  1.00  0.00    -0.001 A 
HETATM   13  C   UNL     1      25.964  47.357  54.194  1.00  0.00     0.030 A 
HETATM   14  C   UNL     1      26.844  47.795  55.188  1.00  0.00     0.002 A 
HETATM   15  C   UNL     1      27.986  47.066  55.509  1.00  0.00     0.001 A 
HETATM   16  C   UNL     1      28.283  45.873  54.839  1.00  0.00     0.014 A 
HETATM   17  O   UNL     1      25.755  41.687  49.059  1.00  0.00    -0.247 OA
HETATM   18  H   UNL     1      28.796  41.435  49.712  1.00  0.00     0.171 HD
ENDROOT
BRANCH   1  19
HETATM   19  C   UNL     1      28.098  40.068  48.357  1.00  0.00     0.071 A 
HETATM   20  C   UNL     1      28.405  38.751  48.740  1.00  0.00     0.095 A 
HETATM   21  C   UNL     1      28.521  37.732  47.794  1.00  0.00     0.041 A 
HETATM   22  C   UNL     1      28.358  38.034  46.443  1.00  0.00     0.026 A 
HETATM   23  C   UNL     1      28.072  39.345  46.055  1.00  0.00     0.036 A 
HETATM   24  C   UNL     1      27.938  40.363  47.002  1.00  0.00     0.056 A 
HETATM   25 CL   UNL     1      27.862  39.703  44.383  1.00  0.00    -0.084 Cl
BRANCH  20  26
HETATM   26  O   UNL     1      28.561  38.470  50.077  1.00  0.00    -0.354 OA
HETATM   27  C   UNL     1      29.753  37.707  50.280  1.00  0.00     0.210 C 
ENDBRANCH  20  26
ENDBRANCH   1  19
TORSDOF 2
ENDMDL
MODEL 10
REMARK VINA RESULT:      -8.0     12.835     13.770
REMARK  2 active torsions:
REMARK  status: ('A' for Active; 'I' for Inactive)
REMARK    1  A    between atoms: O_2  and  C_3 
REMARK    2  A    between atoms: C_4  and  N_5 
REMARK       I    between atoms: N_5  and  C_6 
REMARK       I    between atoms: C_6  and  N_7 
ROOT
HETATM    1  N   UNL     1      29.499  49.962  40.313  1.00  0.00    -0.306 N 
HETATM    2  C   UNL     1      29.818  50.589  41.492  1.00  0.00     0.323 C 
HETATM    3  N   UNL     1      31.166  50.477  41.828  1.00  0.00    -0.328 N 
HETATM    4  C   UNL     1      31.616  51.312  42.947  1.00  0.00     0.185 C 
HETATM    5  C   UNL     1      33.103  51.345  42.947  1.00  0.00     0.035 A 
HETATM    6  C   UNL     1      33.953  50.530  42.228  1.00  0.00    -0.020 A 
HETATM    7  C   UNL     1      33.424  49.503  41.289  1.00  0.00     0.061 C 
HETATM    8  C   UNL     1      31.936  49.234  41.584  1.00  0.00     0.132 C 
HETATM    9  N   UNL     1      33.866  52.203  43.689  1.00  0.00    -0.357 N 
HETATM   10  H   UNL     1      33.516  52.921  44.307  1.00  0.00     0.166 HD
HETATM   11  C   UNL     1      35.204  51.947  43.469  1.00  0.00     0.043 A 
HETATM   12  C   UNL     1      35.285  50.893  42.554  1.00  0.00    -0.001 A 
HETATM   13  C   UNL     1      36.340  52.567  44.005  1.00  0.00     0.030 A 
HETATM   14  C   UNL     1      37.590  52.094  43.598  1.00  0.00     0.002 A 
HETATM   15  C   UNL     1      37.701  51.044  42.690  1.00  0.00     0.001 A 
HETATM   16  C   UNL     1      36.557  50.436  42.159  1.00  0.00     0.014 A 
HETATM   17  O   UNL     1      29.029  51.245  42.168  1.00  0.00    -0.247 OA
HETATM   18  H   UNL     1      30.261  49.865  39.654  1.00  0.00     0.171 HD
ENDROOT
BRANCH   1  19
HETATM   19  C   UNL     1      28.217  49.786  39.756  1.00  0.00     0.071 A 
HETATM   20  C   UNL     1      27.947  50.439  38.542  1.00  0.00     0.095 A 
HETATM   21  C   UNL     1      26.727  50.270  37.887  1.00  0.00     0.041 A 
HETATM   22  C   UNL     1      25.749  49.463  38.464  1.00  0.00     0.026 A 
HETATM   23  C   UNL     1      26.003  48.827  39.682  1.00  0.00     0.036 A 
HETATM   24  C   UNL     1      27.231  48.981  40.330  1.00  0.00     0.056 A 
HETATM   25 CL   UNL     1      24.790  47.824  40.379  1.00  0.00    -0.084 Cl
BRANCH  20  26
HETATM   26  O   UNL     1      28.924  51.230  37.984  1.00  0.00    -0.354 OA
HETATM   27  C   UNL     1      28.609  52.610  38.186  1.00  0.00     0.210 C 
ENDBRANCH  20  26
ENDBRANCH   1  19
TORSDOF 2
ENDMDL
