MODEL 1
REMARK VINA RESULT:      -8.3      0.000      0.000
REMARK  7 active torsions:
REMARK  status: ('A' for Active; 'I' for Inactive)
REMARK    1  A    between atoms: C_2  and  N_3 
REMARK    2  A    between atoms: C_8  and  C_9 
REMARK    3  A    between atoms: C_9  and  N_10 
REMARK       I    between atoms: N_10  and  C_11 
REMARK       I    between atoms: C_11  and  N_12 
REMARK    4  A    between atoms: N_12  and  C_13 
REMARK    5  A    between atoms: C_14  and  O_15 
REMARK    6  A    between atoms: C_18  and  O_19 
REMARK    7  A    between atoms: C_26  and  N_27 
ROOT
HETATM    1  C   UNL     1      23.855  45.642  48.850  1.00  0.00     0.118 C 
HETATM    2  C   UNL     1      23.457  44.839  47.614  1.00  0.00     0.037 C 
ENDROOT
BRANCH   1   3
HETATM    3  C   UNL     1      23.231  47.041  48.829  1.00  0.00     0.006 A 
HETATM    4  C   UNL     1      21.791  47.284  48.669  1.00  0.00    -0.031 A 
HETATM    5  C   UNL     1      21.472  48.624  48.740  1.00  0.00     0.017 A 
HETATM    6  C   UNL     1      20.693  46.264  48.498  1.00  0.00     0.068 C 
HETATM    7  C   UNL     1      20.104  49.207  48.618  1.00  0.00     0.281 C 
HETATM    8  S   UNL     1      22.823  49.598  48.976  1.00  0.00    -0.074 SA
HETATM    9  N   UNL     1      19.028  48.153  48.853  1.00  0.00    -0.067 N 
HETATM   10  H   UNL     1      18.162  48.529  48.448  1.00  0.00     0.280 HD
HETATM   11  C   UNL     1      19.355  46.893  48.064  1.00  0.00     0.240 C 
HETATM   12  C   UNL     1      23.897  48.265  48.964  1.00  0.00     0.089 A 
BRANCH   9  13
HETATM   13  C   UNL     1      18.747  47.880  50.316  1.00  0.00     0.231 C 
HETATM   14  C   UNL     1      18.766  49.176  51.108  1.00  0.00     0.034 C 
ENDBRANCH   9  13
BRANCH  12  15
HETATM   15  N   UNL     1      25.278  48.577  49.075  1.00  0.00    -0.327 N 
HETATM   16  C   UNL     1      25.950  49.628  48.454  1.00  0.00     0.097 A 
HETATM   17  C   UNL     1      27.279  49.625  48.811  1.00  0.00     0.019 A 
HETATM   18  C   UNL     1      27.468  48.529  49.664  1.00  0.00     0.019 A 
HETATM   19  C   UNL     1      26.250  47.899  49.793  1.00  0.00     0.097 A 
ENDBRANCH  12  15
ENDBRANCH   1   3
BRANCH   1  20
HETATM   20  N   UNL     1      23.596  45.055  50.166  1.00  0.00    -0.334 N 
HETATM   21  C   UNL     1      24.416  44.838  51.236  1.00  0.00     0.321 C 
HETATM   22  N   UNL     1      25.686  44.430  50.937  1.00  0.00    -0.306 N 
HETATM   23  O   UNL     1      23.909  44.862  52.353  1.00  0.00    -0.247 OA
HETATM   24  H   UNL     1      25.730  43.885  50.097  1.00  0.00     0.171 HD
HETATM   25  H   UNL     1      22.679  45.295  50.528  1.00  0.00     0.165 HD
BRANCH  22  26
HETATM   26  C   UNL     1      26.644  44.094  51.922  1.00  0.00     0.071 A 
HETATM   27  C   UNL     1      27.104  44.999  52.895  1.00  0.00     0.097 A 
HETATM   28  C   UNL     1      28.026  44.559  53.860  1.00  0.00     0.077 A 
HETATM   29  C   UNL     1      28.523  43.248  53.836  1.00  0.00     0.092 A 
HETATM   30  C   UNL     1      28.090  42.377  52.828  1.00  0.00     0.069 A 
HETATM   31 CL   UNL     1      28.654  40.744  52.728  1.00  0.00    -0.081 Cl
HETATM   32  C   UNL     1      27.174  42.801  51.866  1.00  0.00     0.059 A 
BRANCH  27  33
HETATM   33  O   UNL     1      26.657  46.291  52.790  1.00  0.00    -0.354 OA
HETATM   34  C   UNL     1      26.244  46.945  53.982  1.00  0.00     0.210 C 
ENDBRANCH  27  33
BRANCH  29  35
HETATM   35  O   UNL     1      29.414  42.734  54.742  1.00  0.00    -0.354 OA
HETATM   36  C   UNL     1      30.570  43.504  55.045  1.00  0.00     0.210 C 
ENDBRANCH  29  35
ENDBRANCH  22  26
ENDBRANCH   1  20
TORSDOF 7
ENDMDL
MODEL 2
REMARK VINA RESULT:      -8.2      1.456      2.134
REMARK  7 active torsions:
REMARK  status: ('A' for Active; 'I' for Inactive)
REMARK    1  A    between atoms: C_2  and  N_3 
REMARK    2  A    between atoms: C_8  and  C_9 
REMARK    3  A    between atoms: C_9  and  N_10 
REMARK       I    between atoms: N_10  and  C_11 
REMARK       I    between atoms: C_11  and  N_12 
REMARK    4  A    between atoms: N_12  and  C_13 
REMARK    5  A    between atoms: C_14  and  O_15 
REMARK    6  A    between atoms: C_18  and  O_19 
REMARK    7  A    between atoms: C_26  and  N_27 
ROOT
HETATM    1  C   UNL     1      24.037  45.631  49.128  1.00  0.00     0.118 C 
HETATM    2  C   UNL     1      23.622  44.676  48.010  1.00  0.00     0.037 C 
ENDROOT
BRANCH   1   3
HETATM    3  C   UNL     1      23.389  47.008  48.952  1.00  0.00     0.006 A 
HETATM    4  C   UNL     1      21.948  47.205  48.746  1.00  0.00    -0.031 A 
HETATM    5  C   UNL     1      21.605  48.539  48.671  1.00  0.00     0.017 A 
HETATM    6  C   UNL     1      20.871  46.152  48.666  1.00  0.00     0.068 C 
HETATM    7  C   UNL     1      20.228  49.080  48.469  1.00  0.00     0.281 C 
HETATM    8  S   UNL     1      22.934  49.558  48.824  1.00  0.00    -0.074 SA
HETATM    9  N   UNL     1      19.167  48.036  48.797  1.00  0.00    -0.067 N 
HETATM   10  H   UNL     1      18.302  48.352  48.342  1.00  0.00     0.280 HD
HETATM   11  C   UNL     1      19.530  46.707  48.149  1.00  0.00     0.240 C 
HETATM   12  C   UNL     1      24.031  48.252  48.968  1.00  0.00     0.089 A 
BRANCH   9  13
HETATM   13  C   UNL     1      18.867  47.912  50.276  1.00  0.00     0.231 C 
HETATM   14  C   UNL     1      18.755  49.288  50.910  1.00  0.00     0.034 C 
ENDBRANCH   9  13
BRANCH  12  15
HETATM   15  N   UNL     1      25.405  48.599  49.066  1.00  0.00    -0.327 N 
HETATM   16  C   UNL     1      26.393  47.911  49.768  1.00  0.00     0.097 A 
HETATM   17  C   UNL     1      27.610  48.536  49.619  1.00  0.00     0.019 A 
HETATM   18  C   UNL     1      27.390  49.668  48.821  1.00  0.00     0.019 A 
HETATM   19  C   UNL     1      26.047  49.695  48.516  1.00  0.00     0.097 A 
ENDBRANCH  12  15
ENDBRANCH   1   3
BRANCH   1  20
HETATM   20  N   UNL     1      23.819  45.206  50.512  1.00  0.00    -0.334 N 
HETATM   21  C   UNL     1      24.666  45.142  51.581  1.00  0.00     0.321 C 
HETATM   22  N   UNL     1      25.939  44.725  51.305  1.00  0.00    -0.306 N 
HETATM   23  O   UNL     1      24.183  45.294  52.698  1.00  0.00    -0.247 OA
HETATM   24  H   UNL     1      25.978  44.082  50.539  1.00  0.00     0.171 HD
HETATM   25  H   UNL     1      22.905  45.471  50.864  1.00  0.00     0.165 HD
BRANCH  22  26
HETATM   26  C   UNL     1      26.925  44.534  52.301  1.00  0.00     0.071 A 
HETATM   27  C   UNL     1      27.763  43.406  52.354  1.00  0.00     0.097 A 
HETATM   28  C   UNL     1      28.744  43.326  53.358  1.00  0.00     0.077 A 
HETATM   29  C   UNL     1      28.867  44.333  54.327  1.00  0.00     0.092 A 
HETATM   30  C   UNL     1      27.989  45.424  54.284  1.00  0.00     0.069 A 
HETATM   31 CL   UNL     1      28.074  46.707  55.441  1.00  0.00    -0.081 Cl
HETATM   32  C   UNL     1      27.013  45.515  53.293  1.00  0.00     0.059 A 
BRANCH  27  33
HETATM   33  O   UNL     1      27.513  42.414  51.441  1.00  0.00    -0.354 OA
HETATM   34  C   UNL     1      27.987  41.108  51.739  1.00  0.00     0.210 C 
ENDBRANCH  27  33
BRANCH  29  35
HETATM   35  O   UNL     1      29.799  44.339  55.331  1.00  0.00    -0.354 OA
HETATM   36  C   UNL     1      30.662  43.216  55.442  1.00  0.00     0.210 C 
ENDBRANCH  29  35
ENDBRANCH  22  26
ENDBRANCH   1  20
TORSDOF 7
ENDMDL
MODEL 3
REMARK VINA RESULT:      -8.1      3.280      4.739
REMARK  7 active torsions:
REMARK  status: ('A' for Active; 'I' for Inactive)
REMARK    1  A    between atoms: C_2  and  N_3 
REMARK    2  A    between atoms: C_8  and  C_9 
REMARK    3  A    between atoms: C_9  and  N_10 
REMARK       I    between atoms: N_10  and  C_11 
REMARK       I    between atoms: C_11  and  N_12 
REMARK    4  A    between atoms: N_12  and  C_13 
REMARK    5  A    between atoms: C_14  and  O_15 
REMARK    6  A    between atoms: C_18  and  O_19 
REMARK    7  A    between atoms: C_26  and  N_27 
ROOT
HETATM    1  C   UNL     1      24.388  45.023  50.846  1.00  0.00     0.118 C 
HETATM    2  C   UNL     1      25.507  45.979  50.436  1.00  0.00     0.037 C 
ENDROOT
BRANCH   1   3
HETATM    3  C   UNL     1      24.142  43.960  49.771  1.00  0.00     0.006 A 
HETATM    4  C   UNL     1      23.040  44.026  48.803  1.00  0.00    -0.031 A 
HETATM    5  C   UNL     1      23.066  42.980  47.903  1.00  0.00     0.017 A 
HETATM    6  C   UNL     1      21.981  45.092  48.676  1.00  0.00     0.068 C 
HETATM    7  C   UNL     1      22.093  42.754  46.794  1.00  0.00     0.281 C 
HETATM    8  S   UNL     1      24.344  41.922  48.180  1.00  0.00    -0.074 SA
HETATM    9  N   UNL     1      21.322  44.025  46.463  1.00  0.00    -0.067 N 
HETATM   10  H   UNL     1      20.484  43.728  45.948  1.00  0.00     0.280 HD
HETATM   11  C   UNL     1      20.825  44.679  47.746  1.00  0.00     0.240 C 
HETATM   12  C   UNL     1      24.899  42.806  49.537  1.00  0.00     0.089 A 
BRANCH   9  13
HETATM   13  C   UNL     1      22.075  44.983  45.564  1.00  0.00     0.231 C 
HETATM   14  C   UNL     1      21.123  46.002  44.962  1.00  0.00     0.034 C 
ENDBRANCH   9  13
BRANCH  12  15
HETATM   15  N   UNL     1      26.011  42.254  50.227  1.00  0.00    -0.327 N 
HETATM   16  C   UNL     1      27.284  42.811  50.341  1.00  0.00     0.097 A 
HETATM   17  C   UNL     1      28.096  41.999  51.100  1.00  0.00     0.019 A 
HETATM   18  C   UNL     1      27.330  40.881  51.460  1.00  0.00     0.019 A 
HETATM   19  C   UNL     1      26.081  41.049  50.905  1.00  0.00     0.097 A 
ENDBRANCH  12  15
ENDBRANCH   1   3
BRANCH   1  20
HETATM   20  N   UNL     1      24.504  44.339  52.136  1.00  0.00    -0.334 N 
HETATM   21  C   UNL     1      25.303  44.578  53.216  1.00  0.00     0.321 C 
HETATM   22  N   UNL     1      26.583  44.969  52.934  1.00  0.00    -0.306 N 
HETATM   23  O   UNL     1      24.871  44.267  54.322  1.00  0.00    -0.247 OA
HETATM   24  H   UNL     1      26.926  44.579  52.077  1.00  0.00     0.171 HD
HETATM   25  H   UNL     1      23.612  44.006  52.484  1.00  0.00     0.165 HD
BRANCH  22  26
HETATM   26  C   UNL     1      27.564  45.191  53.928  1.00  0.00     0.071 A 
HETATM   27  C   UNL     1      27.609  46.350  54.725  1.00  0.00     0.097 A 
HETATM   28  C   UNL     1      28.598  46.460  55.718  1.00  0.00     0.077 A 
HETATM   29  C   UNL     1      29.559  45.454  55.894  1.00  0.00     0.092 A 
HETATM   30  C   UNL     1      29.524  44.332  55.056  1.00  0.00     0.069 A 
HETATM   31 CL   UNL     1      30.673  43.046  55.207  1.00  0.00    -0.081 Cl
HETATM   32  C   UNL     1      28.548  44.209  54.068  1.00  0.00     0.059 A 
BRANCH  27  33
HETATM   33  O   UNL     1      26.706  47.336  54.424  1.00  0.00    -0.354 OA
HETATM   34  C   UNL     1      26.460  48.329  55.410  1.00  0.00     0.210 C 
ENDBRANCH  27  33
BRANCH  29  35
HETATM   35  O   UNL     1      30.547  45.477  56.842  1.00  0.00    -0.354 OA
HETATM   36  C   UNL     1      30.246  46.063  58.101  1.00  0.00     0.210 C 
ENDBRANCH  29  35
ENDBRANCH  22  26
ENDBRANCH   1  20
TORSDOF 7
ENDMDL
MODEL 4
REMARK VINA RESULT:      -8.0      3.821      8.596
REMARK  7 active torsions:
REMARK  status: ('A' for Active; 'I' for Inactive)
REMARK    1  A    between atoms: C_2  and  N_3 
REMARK    2  A    between atoms: C_8  and  C_9 
REMARK    3  A    between atoms: C_9  and  N_10 
REMARK       I    between atoms: N_10  and  C_11 
REMARK       I    between atoms: C_11  and  N_12 
REMARK    4  A    between atoms: N_12  and  C_13 
REMARK    5  A    between atoms: C_14  and  O_15 
REMARK    6  A    between atoms: C_18  and  O_19 
REMARK    7  A    between atoms: C_26  and  N_27 
ROOT
HETATM    1  C   UNL     1      26.663  45.069  52.089  1.00  0.00     0.118 C 
HETATM    2  C   UNL     1      25.289  45.146  52.750  1.00  0.00     0.037 C 
ENDROOT
BRANCH   1   3
HETATM    3  C   UNL     1      27.175  43.626  52.033  1.00  0.00     0.006 A 
HETATM    4  C   UNL     1      26.651  42.616  51.105  1.00  0.00    -0.031 A 
HETATM    5  C   UNL     1      27.312  41.410  51.211  1.00  0.00     0.017 A 
HETATM    6  C   UNL     1      25.562  42.781  50.074  1.00  0.00     0.068 C 
HETATM    7  C   UNL     1      27.028  40.182  50.412  1.00  0.00     0.281 C 
HETATM    8  S   UNL     1      28.520  41.436  52.381  1.00  0.00    -0.074 SA
HETATM    9  N   UNL     1      26.235  40.508  49.152  1.00  0.00    -0.067 N 
HETATM   10  H   UNL     1      25.812  39.626  48.841  1.00  0.00     0.280 HD
HETATM   11  C   UNL     1      25.079  41.438  49.495  1.00  0.00     0.240 C 
HETATM   12  C   UNL     1      28.187  43.058  52.816  1.00  0.00     0.089 A 
BRANCH   9  13
HETATM   13  C   UNL     1      27.086  41.018  48.008  1.00  0.00     0.231 C 
HETATM   14  C   UNL     1      28.413  40.281  47.968  1.00  0.00     0.034 C 
ENDBRANCH   9  13
BRANCH  12  15
HETATM   15  N   UNL     1      28.952  43.585  53.890  1.00  0.00    -0.327 N 
HETATM   16  C   UNL     1      30.155  43.082  54.385  1.00  0.00     0.097 A 
HETATM   17  C   UNL     1      30.612  43.866  55.420  1.00  0.00     0.019 A 
HETATM   18  C   UNL     1      29.665  44.883  55.608  1.00  0.00     0.019 A 
HETATM   19  C   UNL     1      28.663  44.680  54.686  1.00  0.00     0.097 A 
ENDBRANCH  12  15
ENDBRANCH   1   3
BRANCH   1  20
HETATM   20  N   UNL     1      26.820  45.651  50.754  1.00  0.00    -0.334 N 
HETATM   21  C   UNL     1      26.020  46.495  50.038  1.00  0.00     0.321 C 
HETATM   22  N   UNL     1      24.675  46.271  50.145  1.00  0.00    -0.306 N 
HETATM   23  O   UNL     1      26.564  47.254  49.243  1.00  0.00    -0.247 OA
HETATM   24  H   UNL     1      24.454  45.306  50.295  1.00  0.00     0.171 HD
HETATM   25  H   UNL     1      27.782  45.890  50.541  1.00  0.00     0.165 HD
BRANCH  22  26
HETATM   26  C   UNL     1      23.707  47.004  49.418  1.00  0.00     0.071 A 
HETATM   27  C   UNL     1      22.869  46.427  48.446  1.00  0.00     0.097 A 
HETATM   28  C   UNL     1      21.908  47.229  47.808  1.00  0.00     0.077 A 
HETATM   29  C   UNL     1      21.804  48.598  48.095  1.00  0.00     0.092 A 
HETATM   30  C   UNL     1      22.682  49.161  49.031  1.00  0.00     0.069 A 
HETATM   31 CL   UNL     1      22.620  50.840  49.443  1.00  0.00    -0.081 Cl
HETATM   32  C   UNL     1      23.639  48.376  49.672  1.00  0.00     0.059 A 
BRANCH  27  33
HETATM   33  O   UNL     1      23.101  45.111  48.141  1.00  0.00    -0.354 OA
HETATM   34  C   UNL     1      22.163  44.150  48.606  1.00  0.00     0.210 C 
ENDBRANCH  27  33
BRANCH  29  35
HETATM   35  O   UNL     1      20.891  49.447  47.528  1.00  0.00    -0.354 OA
HETATM   36  C   UNL     1      19.529  49.311  47.914  1.00  0.00     0.210 C 
ENDBRANCH  29  35
ENDBRANCH  22  26
ENDBRANCH   1  20
TORSDOF 7
ENDMDL
MODEL 5
REMARK VINA RESULT:      -8.0      3.716      6.457
REMARK  7 active torsions:
REMARK  status: ('A' for Active; 'I' for Inactive)
REMARK    1  A    between atoms: C_2  and  N_3 
REMARK    2  A    between atoms: C_8  and  C_9 
REMARK    3  A    between atoms: C_9  and  N_10 
REMARK       I    between atoms: N_10  and  C_11 
REMARK       I    between atoms: C_11  and  N_12 
REMARK    4  A    between atoms: N_12  and  C_13 
REMARK    5  A    between atoms: C_14  and  O_15 
REMARK    6  A    between atoms: C_18  and  O_19 
REMARK    7  A    between atoms: C_26  and  N_27 
ROOT
HETATM    1  C   UNL     1      27.882  41.493  50.130  1.00  0.00     0.118 C 
HETATM    2  C   UNL     1      28.733  40.772  49.086  1.00  0.00     0.037 C 
ENDROOT
BRANCH   1   3
HETATM    3  C   UNL     1      26.409  41.541  49.711  1.00  0.00     0.006 A 
HETATM    4  C   UNL     1      25.489  42.616  50.105  1.00  0.00    -0.031 A 
HETATM    5  C   UNL     1      24.233  42.462  49.555  1.00  0.00     0.017 A 
HETATM    6  C   UNL     1      25.787  43.824  50.958  1.00  0.00     0.068 C 
HETATM    7  C   UNL     1      23.071  43.377  49.754  1.00  0.00     0.281 C 
HETATM    8  S   UNL     1      24.110  41.081  48.602  1.00  0.00    -0.074 SA
HETATM    9  N   UNL     1      23.519  44.742  50.262  1.00  0.00    -0.067 N 
HETATM   10  H   UNL     1      22.687  45.185  50.671  1.00  0.00     0.280 HD
HETATM   11  C   UNL     1      24.514  44.570  51.402  1.00  0.00     0.240 C 
HETATM   12  C   UNL     1      25.729  40.616  48.910  1.00  0.00     0.089 A 
BRANCH   9  13
HETATM   13  C   UNL     1      24.020  45.667  49.172  1.00  0.00     0.231 C 
HETATM   14  C   UNL     1      23.825  47.117  49.580  1.00  0.00     0.034 C 
ENDBRANCH   9  13
BRANCH  12  15
HETATM   15  N   UNL     1      26.142  39.383  48.339  1.00  0.00    -0.327 N 
HETATM   16  C   UNL     1      26.221  39.076  46.982  1.00  0.00     0.097 A 
HETATM   17  C   UNL     1      26.679  37.790  46.807  1.00  0.00     0.019 A 
HETATM   18  C   UNL     1      26.876  37.252  48.087  1.00  0.00     0.019 A 
HETATM   19  C   UNL     1      26.526  38.226  48.996  1.00  0.00     0.097 A 
ENDBRANCH  12  15
ENDBRANCH   1   3
BRANCH   1  20
HETATM   20  N   UNL     1      27.939  41.017  51.513  1.00  0.00    -0.334 N 
HETATM   21  C   UNL     1      28.080  41.687  52.694  1.00  0.00     0.321 C 
HETATM   22  N   UNL     1      28.942  42.749  52.675  1.00  0.00    -0.306 N 
HETATM   23  O   UNL     1      27.567  41.193  53.693  1.00  0.00    -0.247 OA
HETATM   24  H   UNL     1      29.694  42.625  52.026  1.00  0.00     0.171 HD
HETATM   25  H   UNL     1      27.323  40.229  51.682  1.00  0.00     0.165 HD
BRANCH  22  26
HETATM   26  C   UNL     1      29.260  43.510  53.824  1.00  0.00     0.071 A 
HETATM   27  C   UNL     1      28.565  44.675  54.197  1.00  0.00     0.097 A 
HETATM   28  C   UNL     1      28.927  45.340  55.381  1.00  0.00     0.077 A 
HETATM   29  C   UNL     1      29.995  44.883  56.167  1.00  0.00     0.092 A 
HETATM   30  C   UNL     1      30.705  43.749  55.750  1.00  0.00     0.069 A 
HETATM   31 CL   UNL     1      32.034  43.120  56.662  1.00  0.00    -0.081 Cl
HETATM   32  C   UNL     1      30.355  43.080  54.578  1.00  0.00     0.059 A 
BRANCH  27  33
HETATM   33  O   UNL     1      27.606  45.122  53.325  1.00  0.00    -0.354 OA
HETATM   34  C   UNL     1      26.761  46.179  53.758  1.00  0.00     0.210 C 
ENDBRANCH  27  33
BRANCH  29  35
HETATM   35  O   UNL     1      30.407  45.463  57.337  1.00  0.00    -0.354 OA
HETATM   36  C   UNL     1      29.418  46.058  58.167  1.00  0.00     0.210 C 
ENDBRANCH  29  35
ENDBRANCH  22  26
ENDBRANCH   1  20
TORSDOF 7
ENDMDL
MODEL 6
REMARK VINA RESULT:      -7.8      3.395      6.574
REMARK  7 active torsions:
REMARK  status: ('A' for Active; 'I' for Inactive)
REMARK    1  A    between atoms: C_2  and  N_3 
REMARK    2  A    between atoms: C_8  and  C_9 
REMARK    3  A    between atoms: C_9  and  N_10 
REMARK       I    between atoms: N_10  and  C_11 
REMARK       I    between atoms: C_11  and  N_12 
REMARK    4  A    between atoms: N_12  and  C_13 
REMARK    5  A    between atoms: C_14  and  O_15 
REMARK    6  A    between atoms: C_18  and  O_19 
REMARK    7  A    between atoms: C_26  and  N_27 
ROOT
HETATM    1  C   UNL     1      25.371  44.516  50.157  1.00  0.00     0.118 C 
HETATM    2  C   UNL     1      26.681  45.225  49.821  1.00  0.00     0.037 C 
ENDROOT
BRANCH   1   3
HETATM    3  C   UNL     1      25.058  43.414  49.140  1.00  0.00     0.006 A 
HETATM    4  C   UNL     1      25.938  42.264  48.895  1.00  0.00    -0.031 A 
HETATM    5  C   UNL     1      25.409  41.383  47.974  1.00  0.00     0.017 A 
HETATM    6  C   UNL     1      27.259  41.951  49.553  1.00  0.00     0.068 C 
HETATM    7  C   UNL     1      26.047  40.118  47.505  1.00  0.00     0.281 C 
HETATM    8  S   UNL     1      23.914  41.883  47.387  1.00  0.00    -0.074 SA
HETATM    9  N   UNL     1      27.137  39.655  48.465  1.00  0.00    -0.067 N 
HETATM   10  H   UNL     1      27.726  38.999  47.938  1.00  0.00     0.280 HD
HETATM   11  C   UNL     1      28.033  40.829  48.836  1.00  0.00     0.240 C 
HETATM   12  C   UNL     1      23.927  43.317  48.321  1.00  0.00     0.089 A 
BRANCH   9  13
HETATM   13  C   UNL     1      26.613  38.906  49.672  1.00  0.00     0.231 C 
HETATM   14  C   UNL     1      26.883  37.418  49.528  1.00  0.00     0.034 C 
ENDBRANCH   9  13
BRANCH  12  15
HETATM   15  N   UNL     1      22.826  44.194  48.130  1.00  0.00    -0.327 N 
HETATM   16  C   UNL     1      22.540  44.939  46.987  1.00  0.00     0.097 A 
HETATM   17  C   UNL     1      21.381  45.660  47.163  1.00  0.00     0.019 A 
HETATM   18  C   UNL     1      20.927  45.389  48.461  1.00  0.00     0.019 A 
HETATM   19  C   UNL     1      21.827  44.517  49.032  1.00  0.00     0.097 A 
ENDBRANCH  12  15
ENDBRANCH   1   3
BRANCH   1  20
HETATM   20  N   UNL     1      25.221  43.945  51.497  1.00  0.00    -0.334 N 
HETATM   21  C   UNL     1      26.006  44.037  52.611  1.00  0.00     0.321 C 
HETATM   22  N   UNL     1      27.355  44.010  52.390  1.00  0.00    -0.306 N 
HETATM   23  O   UNL     1      25.452  43.965  53.703  1.00  0.00    -0.247 OA
HETATM   24  H   UNL     1      27.605  43.462  51.590  1.00  0.00     0.171 HD
HETATM   25  H   UNL     1      24.255  43.920  51.806  1.00  0.00     0.165 HD
BRANCH  22  26
HETATM   26  C   UNL     1      28.312  44.024  53.432  1.00  0.00     0.071 A 
HETATM   27  C   UNL     1      29.378  43.110  53.516  1.00  0.00     0.097 A 
HETATM   28  C   UNL     1      30.303  43.232  54.567  1.00  0.00     0.077 A 
HETATM   29  C   UNL     1      30.152  44.220  55.550  1.00  0.00     0.092 A 
HETATM   30  C   UNL     1      29.055  45.088  55.474  1.00  0.00     0.069 A 
HETATM   31 CL   UNL     1      28.796  46.335  56.646  1.00  0.00    -0.081 Cl
HETATM   32  C   UNL     1      28.131  44.979  54.436  1.00  0.00     0.059 A 
BRANCH  27  33
HETATM   33  O   UNL     1      29.399  42.107  52.582  1.00  0.00    -0.354 OA
HETATM   34  C   UNL     1      28.758  40.882  52.915  1.00  0.00     0.210 C 
ENDBRANCH  27  33
BRANCH  29  35
HETATM   35  O   UNL     1      31.011  44.415  56.599  1.00  0.00    -0.354 OA
HETATM   36  C   UNL     1      31.782  43.305  57.040  1.00  0.00     0.210 C 
ENDBRANCH  29  35
ENDBRANCH  22  26
ENDBRANCH   1  20
TORSDOF 7
ENDMDL
MODEL 7
REMARK VINA RESULT:      -7.8      4.059      7.095
REMARK  7 active torsions:
REMARK  status: ('A' for Active; 'I' for Inactive)
REMARK    1  A    between atoms: C_2  and  N_3 
REMARK    2  A    between atoms: C_8  and  C_9 
REMARK    3  A    between atoms: C_9  and  N_10 
REMARK       I    between atoms: N_10  and  C_11 
REMARK       I    between atoms: C_11  and  N_12 
REMARK    4  A    between atoms: N_12  and  C_13 
REMARK    5  A    between atoms: C_14  and  O_15 
REMARK    6  A    between atoms: C_18  and  O_19 
REMARK    7  A    between atoms: C_26  and  N_27 
ROOT
HETATM    1  C   UNL     1      24.734  42.625  50.519  1.00  0.00     0.118 C 
HETATM    2  C   UNL     1      23.217  42.676  50.682  1.00  0.00     0.037 C 
ENDROOT
BRANCH   1   3
HETATM    3  C   UNL     1      25.135  41.815  49.282  1.00  0.00     0.006 A 
HETATM    4  C   UNL     1      26.225  40.831  49.276  1.00  0.00    -0.031 A 
HETATM    5  C   UNL     1      26.353  40.194  48.059  1.00  0.00     0.017 A 
HETATM    6  C   UNL     1      27.126  40.439  50.420  1.00  0.00     0.068 C 
HETATM    7  C   UNL     1      27.356  39.143  47.721  1.00  0.00     0.281 C 
HETATM    8  S   UNL     1      25.233  40.736  46.926  1.00  0.00    -0.074 SA
HETATM    9  N   UNL     1      27.945  38.512  48.977  1.00  0.00    -0.067 N 
HETATM   10  H   UNL     1      28.821  38.058  48.688  1.00  0.00     0.280 HD
HETATM   11  C   UNL     1      28.336  39.600  49.968  1.00  0.00     0.240 C 
HETATM   12  C   UNL     1      24.549  41.868  48.011  1.00  0.00     0.089 A 
BRANCH   9  13
HETATM   13  C   UNL     1      27.073  37.437  49.590  1.00  0.00     0.231 C 
HETATM   14  C   UNL     1      26.466  36.566  48.503  1.00  0.00     0.034 C 
ENDBRANCH   9  13
BRANCH  12  15
HETATM   15  N   UNL     1      23.519  42.693  47.484  1.00  0.00    -0.327 N 
HETATM   16  C   UNL     1      22.293  42.273  46.972  1.00  0.00     0.097 A 
HETATM   17  C   UNL     1      21.546  43.357  46.570  1.00  0.00     0.019 A 
HETATM   18  C   UNL     1      22.324  44.498  46.808  1.00  0.00     0.019 A 
HETATM   19  C   UNL     1      23.519  44.070  47.342  1.00  0.00     0.097 A 
ENDBRANCH  12  15
ENDBRANCH   1   3
BRANCH   1  20
HETATM   20  N   UNL     1      25.465  43.894  50.480  1.00  0.00    -0.334 N 
HETATM   21  C   UNL     1      26.478  44.377  51.258  1.00  0.00     0.321 C 
HETATM   22  N   UNL     1      26.393  44.086  52.591  1.00  0.00    -0.306 N 
HETATM   23  O   UNL     1      27.270  45.156  50.738  1.00  0.00    -0.247 OA
HETATM   24  H   UNL     1      25.447  44.013  52.912  1.00  0.00     0.171 HD
HETATM   25  H   UNL     1      25.621  44.227  49.534  1.00  0.00     0.165 HD
BRANCH  22  26
HETATM   26  C   UNL     1      27.316  44.565  53.550  1.00  0.00     0.071 A 
HETATM   27  C   UNL     1      27.187  45.807  54.196  1.00  0.00     0.097 A 
HETATM   28  C   UNL     1      28.134  46.177  55.166  1.00  0.00     0.077 A 
HETATM   29  C   UNL     1      29.223  45.345  55.465  1.00  0.00     0.092 A 
HETATM   30  C   UNL     1      29.359  44.135  54.774  1.00  0.00     0.069 A 
HETATM   31 CL   UNL     1      30.672  43.051  55.083  1.00  0.00    -0.081 Cl
HETATM   32  C   UNL     1      28.426  43.755  53.810  1.00  0.00     0.059 A 
BRANCH  27  33
HETATM   33  O   UNL     1      26.161  46.613  53.774  1.00  0.00    -0.354 OA
HETATM   34  C   UNL     1      25.961  47.841  54.461  1.00  0.00     0.210 C 
ENDBRANCH  27  33
BRANCH  29  35
HETATM   35  O   UNL     1      30.183  45.623  56.402  1.00  0.00    -0.354 OA
HETATM   36  C   UNL     1      29.753  45.926  57.723  1.00  0.00     0.210 C 
ENDBRANCH  29  35
ENDBRANCH  22  26
ENDBRANCH   1  20
TORSDOF 7
ENDMDL
MODEL 8
REMARK VINA RESULT:      -7.7      2.421      4.602
REMARK  7 active torsions:
REMARK  status: ('A' for Active; 'I' for Inactive)
REMARK    1  A    between atoms: C_2  and  N_3 
REMARK    2  A    between atoms: C_8  and  C_9 
REMARK    3  A    between atoms: C_9  and  N_10 
REMARK       I    between atoms: N_10  and  C_11 
REMARK       I    between atoms: C_11  and  N_12 
REMARK    4  A    between atoms: N_12  and  C_13 
REMARK    5  A    between atoms: C_14  and  O_15 
REMARK    6  A    between atoms: C_18  and  O_19 
REMARK    7  A    between atoms: C_26  and  N_27 
ROOT
HETATM    1  C   UNL     1      24.293  46.361  50.535  1.00  0.00     0.118 C 
HETATM    2  C   UNL     1      25.528  47.212  50.244  1.00  0.00     0.037 C 
ENDROOT
BRANCH   1   3
HETATM    3  C   UNL     1      23.663  45.834  49.241  1.00  0.00     0.006 A 
HETATM    4  C   UNL     1      24.009  44.540  48.640  1.00  0.00    -0.031 A 
HETATM    5  C   UNL     1      23.266  44.268  47.510  1.00  0.00     0.017 A 
HETATM    6  C   UNL     1      25.003  43.521  49.141  1.00  0.00     0.068 C 
HETATM    7  C   UNL     1      23.369  43.042  46.667  1.00  0.00     0.281 C 
HETATM    8  S   UNL     1      22.184  45.502  47.137  1.00  0.00    -0.074 SA
HETATM    9  N   UNL     1      24.059  41.908  47.416  1.00  0.00    -0.067 N 
HETATM   10  H   UNL     1      24.377  41.241  46.701  1.00  0.00     0.280 HD
HETATM   11  C   UNL     1      25.316  42.429  48.101  1.00  0.00     0.240 C 
HETATM   12  C   UNL     1      22.689  46.465  48.458  1.00  0.00     0.089 A 
BRANCH   9  13
HETATM   13  C   UNL     1      23.146  41.148  48.354  1.00  0.00     0.231 C 
HETATM   14  C   UNL     1      22.108  40.368  47.564  1.00  0.00     0.034 C 
ENDBRANCH   9  13
BRANCH  12  15
HETATM   15  N   UNL     1      22.078  47.743  48.567  1.00  0.00    -0.327 N 
HETATM   16  C   UNL     1      20.736  48.007  48.837  1.00  0.00     0.097 A 
HETATM   17  C   UNL     1      20.515  49.364  48.884  1.00  0.00     0.019 A 
HETATM   18  C   UNL     1      21.743  49.985  48.613  1.00  0.00     0.019 A 
HETATM   19  C   UNL     1      22.667  48.986  48.405  1.00  0.00     0.097 A 
ENDBRANCH  12  15
ENDBRANCH   1   3
BRANCH   1  20
HETATM   20  N   UNL     1      24.437  45.231  51.455  1.00  0.00    -0.334 N 
HETATM   21  C   UNL     1      25.133  45.100  52.622  1.00  0.00     0.321 C 
HETATM   22  N   UNL     1      26.357  45.709  52.655  1.00  0.00    -0.306 N 
HETATM   23  O   UNL     1      24.692  44.324  53.463  1.00  0.00    -0.247 OA
HETATM   24  H   UNL     1      26.799  45.739  51.756  1.00  0.00     0.171 HD
HETATM   25  H   UNL     1      23.584  44.690  51.547  1.00  0.00     0.165 HD
BRANCH  22  26
HETATM   26  C   UNL     1      27.241  45.617  53.755  1.00  0.00     0.071 A 
HETATM   27  C   UNL     1      27.153  46.445  54.889  1.00  0.00     0.097 A 
HETATM   28  C   UNL     1      28.051  46.248  55.953  1.00  0.00     0.077 A 
HETATM   29  C   UNL     1      29.054  45.270  55.878  1.00  0.00     0.092 A 
HETATM   30  C   UNL     1      29.153  44.490  54.719  1.00  0.00     0.069 A 
HETATM   31 CL   UNL     1      30.361  43.263  54.547  1.00  0.00    -0.081 Cl
HETATM   32  C   UNL     1      28.268  44.675  53.657  1.00  0.00     0.059 A 
BRANCH  27  33
HETATM   33  O   UNL     1      26.220  47.448  54.845  1.00  0.00    -0.354 OA
HETATM   34  C   UNL     1      26.436  48.588  55.665  1.00  0.00     0.210 C 
ENDBRANCH  27  33
BRANCH  29  35
HETATM   35  O   UNL     1      29.960  45.005  56.870  1.00  0.00    -0.354 OA
HETATM   36  C   UNL     1      30.085  45.950  57.924  1.00  0.00     0.210 C 
ENDBRANCH  29  35
ENDBRANCH  22  26
ENDBRANCH   1  20
TORSDOF 7
ENDMDL
MODEL 9
REMARK VINA RESULT:      -7.7      3.297      5.739
REMARK  7 active torsions:
REMARK  status: ('A' for Active; 'I' for Inactive)
REMARK    1  A    between atoms: C_2  and  N_3 
REMARK    2  A    between atoms: C_8  and  C_9 
REMARK    3  A    between atoms: C_9  and  N_10 
REMARK       I    between atoms: N_10  and  C_11 
REMARK       I    between atoms: C_11  and  N_12 
REMARK    4  A    between atoms: N_12  and  C_13 
REMARK    5  A    between atoms: C_14  and  O_15 
REMARK    6  A    between atoms: C_18  and  O_19 
REMARK    7  A    between atoms: C_26  and  N_27 
ROOT
HETATM    1  C   UNL     1      20.220  49.488  49.616  1.00  0.00     0.118 C 
HETATM    2  C   UNL     1      19.895  50.677  50.517  1.00  0.00     0.037 C 
ENDROOT
BRANCH   1   3
HETATM    3  C   UNL     1      19.010  49.088  48.765  1.00  0.00     0.006 A 
HETATM    4  C   UNL     1      17.795  49.904  48.649  1.00  0.00    -0.031 A 
HETATM    5  C   UNL     1      16.873  49.357  47.780  1.00  0.00     0.017 A 
HETATM    6  C   UNL     1      17.503  51.229  49.309  1.00  0.00     0.068 C 
HETATM    7  C   UNL     1      15.541  49.935  47.438  1.00  0.00     0.281 C 
HETATM    8  S   UNL     1      17.398  47.905  47.113  1.00  0.00    -0.074 SA
HETATM    9  N   UNL     1      15.469  51.416  47.793  1.00  0.00    -0.067 N 
HETATM   10  H   UNL     1      14.471  51.654  47.836  1.00  0.00     0.280 HD
HETATM   11  C   UNL     1      16.023  51.641  49.193  1.00  0.00     0.240 C 
HETATM   12  C   UNL     1      18.872  47.935  47.983  1.00  0.00     0.089 A 
BRANCH   9  13
HETATM   13  C   UNL     1      16.094  52.325  46.756  1.00  0.00     0.231 C 
HETATM   14  C   UNL     1      15.023  53.144  46.057  1.00  0.00     0.034 C 
ENDBRANCH   9  13
BRANCH  12  15
HETATM   15  N   UNL     1      19.721  46.809  47.808  1.00  0.00    -0.327 N 
HETATM   16  C   UNL     1      20.406  46.452  46.648  1.00  0.00     0.097 A 
HETATM   17  C   UNL     1      21.145  45.310  46.860  1.00  0.00     0.019 A 
HETATM   18  C   UNL     1      20.907  44.913  48.184  1.00  0.00     0.019 A 
HETATM   19  C   UNL     1      20.028  45.823  48.729  1.00  0.00     0.097 A 
ENDBRANCH  12  15
ENDBRANCH   1   3
BRANCH   1  20
HETATM   20  N   UNL     1      21.378  49.593  48.726  1.00  0.00    -0.334 N 
HETATM   21  C   UNL     1      22.445  48.765  48.531  1.00  0.00     0.321 C 
HETATM   22  N   UNL     1      22.945  48.165  49.654  1.00  0.00    -0.306 N 
HETATM   23  O   UNL     1      22.962  48.758  47.418  1.00  0.00    -0.247 OA
HETATM   24  H   UNL     1      22.836  48.729  50.474  1.00  0.00     0.171 HD
HETATM   25  H   UNL     1      21.147  50.010  47.831  1.00  0.00     0.165 HD
BRANCH  22  26
HETATM   26  C   UNL     1      24.089  47.333  49.644  1.00  0.00     0.071 A 
HETATM   27  C   UNL     1      25.406  47.826  49.656  1.00  0.00     0.097 A 
HETATM   28  C   UNL     1      26.478  46.919  49.689  1.00  0.00     0.077 A 
HETATM   29  C   UNL     1      26.252  45.535  49.668  1.00  0.00     0.092 A 
HETATM   30  C   UNL     1      24.933  45.065  49.607  1.00  0.00     0.069 A 
HETATM   31 CL   UNL     1      24.568  43.374  49.578  1.00  0.00    -0.081 Cl
HETATM   32  C   UNL     1      23.860  45.955  49.575  1.00  0.00     0.059 A 
BRANCH  27  33
HETATM   33  O   UNL     1      25.550  49.187  49.566  1.00  0.00    -0.354 OA
HETATM   34  C   UNL     1      26.240  49.704  48.436  1.00  0.00     0.210 C 
ENDBRANCH  27  33
BRANCH  29  35
HETATM   35  O   UNL     1      27.236  44.582  49.708  1.00  0.00    -0.354 OA
HETATM   36  C   UNL     1      27.676  44.137  50.984  1.00  0.00     0.210 C 
ENDBRANCH  29  35
ENDBRANCH  22  26
ENDBRANCH   1  20
TORSDOF 7
ENDMDL
MODEL 10
REMARK VINA RESULT:      -7.6     12.881     16.226
REMARK  7 active torsions:
REMARK  status: ('A' for Active; 'I' for Inactive)
REMARK    1  A    between atoms: C_2  and  N_3 
REMARK    2  A    between atoms: C_8  and  C_9 
REMARK    3  A    between atoms: C_9  and  N_10 
REMARK       I    between atoms: N_10  and  C_11 
REMARK       I    between atoms: C_11  and  N_12 
REMARK    4  A    between atoms: N_12  and  C_13 
REMARK    5  A    between atoms: C_14  and  O_15 
REMARK    6  A    between atoms: C_18  and  O_19 
REMARK    7  A    between atoms: C_26  and  N_27 
ROOT
HETATM    1  C   UNL     1      36.109  51.635  43.420  1.00  0.00     0.118 C 
HETATM    2  C   UNL     1      36.072  50.517  42.379  1.00  0.00     0.037 C 
ENDROOT
BRANCH   1   3
HETATM    3  C   UNL     1      36.840  52.869  42.884  1.00  0.00     0.006 A 
HETATM    4  C   UNL     1      36.823  53.272  41.472  1.00  0.00    -0.031 A 
HETATM    5  C   UNL     1      37.509  54.448  41.251  1.00  0.00     0.017 A 
HETATM    6  C   UNL     1      36.123  52.590  40.322  1.00  0.00     0.068 C 
HETATM    7  C   UNL     1      37.680  55.129  39.934  1.00  0.00     0.281 C 
HETATM    8  S   UNL     1      38.182  55.078  42.659  1.00  0.00    -0.074 SA
HETATM    9  N   UNL     1      36.650  54.646  38.920  1.00  0.00    -0.067 N 
HETATM   10  H   UNL     1      37.017  54.897  37.994  1.00  0.00     0.280 HD
HETATM   11  C   UNL     1      36.570  53.126  38.948  1.00  0.00     0.240 C 
HETATM   12  C   UNL     1      37.604  53.784  43.619  1.00  0.00     0.089 A 
BRANCH   9  13
HETATM   13  C   UNL     1      35.298  55.314  39.054  1.00  0.00     0.231 C 
HETATM   14  C   UNL     1      35.460  56.821  39.147  1.00  0.00     0.034 C 
ENDBRANCH   9  13
BRANCH  12  15
HETATM   15  N   UNL     1      37.982  53.807  44.988  1.00  0.00    -0.327 N 
HETATM   16  C   UNL     1      37.749  54.835  45.901  1.00  0.00     0.097 A 
HETATM   17  C   UNL     1      38.243  54.495  47.140  1.00  0.00     0.019 A 
HETATM   18  C   UNL     1      38.828  53.227  47.011  1.00  0.00     0.019 A 
HETATM   19  C   UNL     1      38.675  52.841  45.698  1.00  0.00     0.097 A 
ENDBRANCH  12  15
ENDBRANCH   1   3
BRANCH   1  20
HETATM   20  N   UNL     1      34.839  52.081  43.997  1.00  0.00    -0.334 N 
HETATM   21  C   UNL     1      33.546  51.804  43.658  1.00  0.00     0.321 C 
HETATM   22  N   UNL     1      33.288  51.722  42.317  1.00  0.00    -0.306 N 
HETATM   23  O   UNL     1      32.709  51.820  44.554  1.00  0.00    -0.247 OA
HETATM   24  H   UNL     1      33.879  52.320  41.772  1.00  0.00     0.171 HD
HETATM   25  H   UNL     1      34.878  52.169  45.006  1.00  0.00     0.165 HD
BRANCH  22  26
HETATM   26  C   UNL     1      31.993  51.512  41.788  1.00  0.00     0.071 A 
HETATM   27  C   UNL     1      31.346  50.263  41.799  1.00  0.00     0.097 A 
HETATM   28  C   UNL     1      30.041  50.163  41.288  1.00  0.00     0.077 A 
HETATM   29  C   UNL     1      29.397  51.278  40.732  1.00  0.00     0.092 A 
HETATM   30  C   UNL     1      30.079  52.501  40.686  1.00  0.00     0.069 A 
HETATM   31 CL   UNL     1      29.357  53.923  40.017  1.00  0.00    -0.081 Cl
HETATM   32  C   UNL     1      31.374  52.613  41.191  1.00  0.00     0.059 A 
BRANCH  27  33
HETATM   33  O   UNL     1      32.077  49.198  42.258  1.00  0.00    -0.354 OA
HETATM   34  C   UNL     1      32.618  48.304  41.295  1.00  0.00     0.210 C 
ENDBRANCH  27  33
BRANCH  29  35
HETATM   35  O   UNL     1      28.125  51.271  40.223  1.00  0.00    -0.354 OA
HETATM   36  C   UNL     1      27.946  50.806  38.891  1.00  0.00     0.210 C 
ENDBRANCH  29  35
ENDBRANCH  22  26
ENDBRANCH   1  20
TORSDOF 7
ENDMDL
