MODEL 1
REMARK VINA RESULT:     -10.1      0.000      0.000
REMARK  9 active torsions:
REMARK  status: ('A' for Active; 'I' for Inactive)
REMARK    1  A    between atoms: C_4  and  C_5 
REMARK    2  A    between atoms: C_5  and  N_6 
REMARK    3  A    between atoms: C_11  and  C_12 
REMARK       I    between atoms: C_12  and  N_13 
REMARK    4  A    between atoms: C_15  and  N_16 
REMARK       I    between atoms: N_16  and  C_17 
REMARK    5  A    between atoms: C_17  and  C_18 
REMARK    6  A    between atoms: C_18  and  C_19 
REMARK    7  A    between atoms: C_19  and  C_20 
REMARK    8  A    between atoms: C_20  and  S_21 
REMARK    9  A    between atoms: S_21  and  C_22 
ROOT
HETATM    1  N   UNL     1      28.169  43.035  54.482  1.00  0.00    -0.063 N 
HETATM    2  H   UNL     1      28.261  42.467  55.328  1.00  0.00     0.280 HD
HETATM    3  C   UNL     1      26.872  43.824  54.655  1.00  0.00     0.282 C 
HETATM    4  C   UNL     1      26.386  44.346  53.349  1.00  0.00     0.018 C 
HETATM    5  C   UNL     1      26.828  43.939  52.107  1.00  0.00    -0.023 C 
HETATM    6  C   UNL     1      26.258  44.745  51.052  1.00  0.00     0.073 C 
HETATM    7  C   UNL     1      25.200  45.498  51.544  1.00  0.00     0.093 C 
HETATM    8  S   UNL     1      25.149  45.497  53.246  1.00  0.00    -0.074 SA
HETATM    9  C   UNL     1      27.840  42.834  51.964  1.00  0.00     0.068 C 
HETATM   10  C   UNL     1      28.056  42.080  53.295  1.00  0.00     0.240 C 
ENDROOT
BRANCH   7  11
HETATM   11  N   UNL     1      24.290  46.243  50.808  1.00  0.00    -0.320 N 
HETATM   12  C   UNL     1      24.548  47.473  50.214  1.00  0.00     0.222 C 
HETATM   13  O   UNL     1      25.600  48.098  50.259  1.00  0.00    -0.273 OA
HETATM   14  H   UNL     1      23.313  46.022  50.967  1.00  0.00     0.169 HD
BRANCH  12  15
HETATM   15  C   UNL     1      23.333  47.997  49.462  1.00  0.00     0.104 C 
BRANCH  15  16
HETATM   16  C   UNL     1      23.666  49.102  48.460  1.00  0.00     0.020 C 
BRANCH  16  17
HETATM   17  C   UNL     1      22.757  50.336  48.428  1.00  0.00     0.080 C 
BRANCH  17  18
HETATM   18  S   UNL     1      21.970  50.834  50.003  1.00  0.00    -0.130 SA
BRANCH  18  19
HETATM   19  C   UNL     1      20.284  51.179  49.536  1.00  0.00     0.000 A 
HETATM   20  C   UNL     1      19.927  52.040  48.494  1.00  0.00     0.020 A 
HETATM   21  C   UNL     1      18.579  52.275  48.199  1.00  0.00     0.025 A 
HETATM   22  C   UNL     1      17.586  51.629  48.932  1.00  0.00     0.034 A 
HETATM   23 CL   UNL     1      15.929  51.924  48.575  1.00  0.00    -0.084 Cl
HETATM   24  C   UNL     1      17.926  50.745  49.951  1.00  0.00     0.025 A 
HETATM   25  C   UNL     1      19.273  50.520  50.247  1.00  0.00     0.020 A 
ENDBRANCH  18  19
ENDBRANCH  17  18
ENDBRANCH  16  17
ENDBRANCH  15  16
ENDBRANCH  12  15
ENDBRANCH   7  11
BRANCH   6  26
HETATM   26  C   UNL     1      26.671  44.690  49.652  1.00  0.00     0.252 C 
HETATM   27  N   UNL     1      26.117  43.683  48.907  1.00  0.00    -0.366 N 
HETATM   28  H   UNL     1      25.224  43.291  49.184  1.00  0.00     0.159 HD
HETATM   29  H   UNL     1      26.267  43.767  47.907  1.00  0.00     0.159 HD
HETATM   30  O   UNL     1      27.393  45.533  49.136  1.00  0.00    -0.268 OA
ENDBRANCH   6  26
BRANCH   1  31
HETATM   31  C   UNL     1      29.423  43.879  54.403  1.00  0.00     0.273 C 
BRANCH  31  32
HETATM   32  C   UNL     1      30.101  44.176  55.711  1.00  0.00    -0.033 A 
HETATM   33  C   UNL     1      31.076  43.326  56.250  1.00  0.00     0.009 A 
HETATM   34  C   UNL     1      31.702  43.649  57.456  1.00  0.00     0.001 A 
HETATM   35  C   UNL     1      31.376  44.828  58.123  1.00  0.00     0.000 A 
HETATM   36  C   UNL     1      30.422  45.689  57.589  1.00  0.00     0.001 A 
HETATM   37  C   UNL     1      29.785  45.365  56.391  1.00  0.00     0.009 A 
ENDBRANCH  31  32
ENDBRANCH   1  31
TORSDOF 9
ENDMDL
MODEL 2
REMARK VINA RESULT:      -9.6      3.915     11.266
REMARK  9 active torsions:
REMARK  status: ('A' for Active; 'I' for Inactive)
REMARK    1  A    between atoms: C_4  and  C_5 
REMARK    2  A    between atoms: C_5  and  N_6 
REMARK    3  A    between atoms: C_11  and  C_12 
REMARK       I    between atoms: C_12  and  N_13 
REMARK    4  A    between atoms: C_15  and  N_16 
REMARK       I    between atoms: N_16  and  C_17 
REMARK    5  A    between atoms: C_17  and  C_18 
REMARK    6  A    between atoms: C_18  and  C_19 
REMARK    7  A    between atoms: C_19  and  C_20 
REMARK    8  A    between atoms: C_20  and  S_21 
REMARK    9  A    between atoms: S_21  and  C_22 
ROOT
HETATM    1  N   UNL     1      21.558  48.526  47.934  1.00  0.00    -0.063 N 
HETATM    2  H   UNL     1      21.389  49.301  47.286  1.00  0.00     0.280 HD
HETATM    3  C   UNL     1      22.952  48.766  48.508  1.00  0.00     0.282 C 
HETATM    4  C   UNL     1      23.504  47.522  49.111  1.00  0.00     0.018 C 
HETATM    5  C   UNL     1      23.006  46.249  48.921  1.00  0.00    -0.023 C 
HETATM    6  C   UNL     1      23.680  45.286  49.761  1.00  0.00     0.073 C 
HETATM    7  C   UNL     1      24.834  45.843  50.295  1.00  0.00     0.093 C 
HETATM    8  S   UNL     1      24.890  47.532  50.083  1.00  0.00    -0.074 SA
HETATM    9  C   UNL     1      21.849  45.996  47.992  1.00  0.00     0.068 C 
HETATM   10  C   UNL     1      21.533  47.233  47.121  1.00  0.00     0.240 C 
ENDROOT
BRANCH   7  11
HETATM   11  N   UNL     1      25.838  45.183  50.990  1.00  0.00    -0.320 N 
HETATM   12  C   UNL     1      26.798  44.353  50.423  1.00  0.00     0.222 C 
HETATM   13  O   UNL     1      26.901  44.059  49.239  1.00  0.00    -0.273 OA
HETATM   14  H   UNL     1      25.677  45.063  51.984  1.00  0.00     0.169 HD
BRANCH  12  15
HETATM   15  C   UNL     1      27.762  43.814  51.472  1.00  0.00     0.104 C 
BRANCH  15  16
HETATM   16  C   UNL     1      27.231  42.589  52.215  1.00  0.00     0.020 C 
BRANCH  16  17
HETATM   17  C   UNL     1      28.102  41.995  53.327  1.00  0.00     0.080 C 
BRANCH  17  18
HETATM   18  S   UNL     1      29.870  42.463  53.343  1.00  0.00    -0.130 SA
BRANCH  18  19
HETATM   19  C   UNL     1      29.994  43.581  54.726  1.00  0.00     0.000 A 
HETATM   20  C   UNL     1      29.181  44.707  54.891  1.00  0.00     0.020 A 
HETATM   21  C   UNL     1      29.351  45.548  55.997  1.00  0.00     0.025 A 
HETATM   22  C   UNL     1      30.320  45.251  56.953  1.00  0.00     0.034 A 
HETATM   23 CL   UNL     1      30.535  46.289  58.307  1.00  0.00    -0.084 Cl
HETATM   24  C   UNL     1      31.114  44.116  56.819  1.00  0.00     0.025 A 
HETATM   25  C   UNL     1      30.947  43.283  55.709  1.00  0.00     0.020 A 
ENDBRANCH  18  19
ENDBRANCH  17  18
ENDBRANCH  16  17
ENDBRANCH  15  16
ENDBRANCH  12  15
ENDBRANCH   7  11
BRANCH   6  26
HETATM   26  C   UNL     1      23.259  43.898  49.932  1.00  0.00     0.252 C 
HETATM   27  N   UNL     1      23.835  42.992  49.080  1.00  0.00    -0.366 N 
HETATM   28  H   UNL     1      24.739  43.197  48.670  1.00  0.00     0.159 HD
HETATM   29  H   UNL     1      23.675  42.021  49.327  1.00  0.00     0.159 HD
HETATM   30  O   UNL     1      22.513  43.533  50.830  1.00  0.00    -0.268 OA
ENDBRANCH   6  26
BRANCH   1  31
HETATM   31  C   UNL     1      20.435  48.571  48.946  1.00  0.00     0.273 C 
BRANCH  31  32
HETATM   32  C   UNL     1      19.722  49.888  49.082  1.00  0.00    -0.033 A 
HETATM   33  C   UNL     1      20.186  51.050  48.448  1.00  0.00     0.009 A 
HETATM   34  C   UNL     1      19.482  52.250  48.577  1.00  0.00     0.001 A 
HETATM   35  C   UNL     1      18.304  52.296  49.321  1.00  0.00     0.000 A 
HETATM   36  C   UNL     1      17.825  51.147  49.940  1.00  0.00     0.001 A 
HETATM   37  C   UNL     1      18.530  49.949  49.824  1.00  0.00     0.009 A 
ENDBRANCH  31  32
ENDBRANCH   1  31
TORSDOF 9
ENDMDL
MODEL 3
REMARK VINA RESULT:      -9.3      4.172     11.446
REMARK  9 active torsions:
REMARK  status: ('A' for Active; 'I' for Inactive)
REMARK    1  A    between atoms: C_4  and  C_5 
REMARK    2  A    between atoms: C_5  and  N_6 
REMARK    3  A    between atoms: C_11  and  C_12 
REMARK       I    between atoms: C_12  and  N_13 
REMARK    4  A    between atoms: C_15  and  N_16 
REMARK       I    between atoms: N_16  and  C_17 
REMARK    5  A    between atoms: C_17  and  C_18 
REMARK    6  A    between atoms: C_18  and  C_19 
REMARK    7  A    between atoms: C_19  and  C_20 
REMARK    8  A    between atoms: C_20  and  S_21 
REMARK    9  A    between atoms: S_21  and  C_22 
ROOT
HETATM    1  N   UNL     1      22.164  50.407  48.728  1.00  0.00    -0.063 N 
HETATM    2  H   UNL     1      22.292  51.389  48.467  1.00  0.00     0.280 HD
HETATM    3  C   UNL     1      23.541  49.916  49.170  1.00  0.00     0.282 C 
HETATM    4  C   UNL     1      23.609  48.429  49.155  1.00  0.00     0.018 C 
HETATM    5  C   UNL     1      22.701  47.591  48.540  1.00  0.00    -0.023 C 
HETATM    6  C   UNL     1      22.976  46.204  48.837  1.00  0.00     0.073 C 
HETATM    7  C   UNL     1      24.240  46.077  49.399  1.00  0.00     0.093 C 
HETATM    8  S   UNL     1      24.888  47.581  49.869  1.00  0.00    -0.074 SA
HETATM    9  C   UNL     1      21.550  48.141  47.741  1.00  0.00     0.068 C 
HETATM   10  C   UNL     1      21.707  49.656  47.479  1.00  0.00     0.240 C 
ENDROOT
BRANCH   7  11
HETATM   11  N   UNL     1      24.933  44.900  49.642  1.00  0.00    -0.320 N 
HETATM   12  C   UNL     1      24.625  43.972  50.631  1.00  0.00     0.222 C 
HETATM   13  O   UNL     1      23.716  44.052  51.448  1.00  0.00    -0.273 OA
HETATM   14  H   UNL     1      25.880  44.866  49.281  1.00  0.00     0.169 HD
BRANCH  12  15
HETATM   15  C   UNL     1      25.576  42.785  50.600  1.00  0.00     0.104 C 
BRANCH  15  16
HETATM   16  C   UNL     1      26.889  43.037  51.340  1.00  0.00     0.020 C 
BRANCH  16  17
HETATM   17  C   UNL     1      26.817  43.332  52.843  1.00  0.00     0.080 C 
BRANCH  17  18
HETATM   18  S   UNL     1      27.441  44.956  53.406  1.00  0.00    -0.130 SA
BRANCH  18  19
HETATM   19  C   UNL     1      28.797  44.534  54.483  1.00  0.00     0.000 A 
HETATM   20  C   UNL     1      29.510  43.334  54.401  1.00  0.00     0.020 A 
HETATM   21  C   UNL     1      30.553  43.067  55.295  1.00  0.00     0.025 A 
HETATM   22  C   UNL     1      30.900  44.011  56.259  1.00  0.00     0.034 A 
HETATM   23 CL   UNL     1      32.176  43.679  57.363  1.00  0.00    -0.084 Cl
HETATM   24  C   UNL     1      30.221  45.223  56.331  1.00  0.00     0.025 A 
HETATM   25  C   UNL     1      29.175  45.483  55.442  1.00  0.00     0.020 A 
ENDBRANCH  18  19
ENDBRANCH  17  18
ENDBRANCH  16  17
ENDBRANCH  15  16
ENDBRANCH  12  15
ENDBRANCH   7  11
BRANCH   6  26
HETATM   26  C   UNL     1      22.093  45.093  48.496  1.00  0.00     0.252 C 
HETATM   27  N   UNL     1      21.242  44.682  49.487  1.00  0.00    -0.366 N 
HETATM   28  H   UNL     1      20.972  45.334  50.214  1.00  0.00     0.159 HD
HETATM   29  H   UNL     1      20.516  44.041  49.181  1.00  0.00     0.159 HD
HETATM   30  O   UNL     1      22.037  44.606  47.374  1.00  0.00    -0.268 OA
ENDBRANCH   6  26
BRANCH   1  31
HETATM   31  C   UNL     1      21.105  50.393  49.808  1.00  0.00     0.273 C 
BRANCH  31  32
HETATM   32  C   UNL     1      19.812  51.081  49.472  1.00  0.00    -0.033 A 
HETATM   33  C   UNL     1      18.621  50.794  50.153  1.00  0.00     0.009 A 
HETATM   34  C   UNL     1      17.444  51.473  49.830  1.00  0.00     0.001 A 
HETATM   35  C   UNL     1      17.449  52.455  48.841  1.00  0.00     0.000 A 
HETATM   36  C   UNL     1      18.628  52.761  48.169  1.00  0.00     0.001 A 
HETATM   37  C   UNL     1      19.803  52.078  48.481  1.00  0.00     0.009 A 
ENDBRANCH  31  32
ENDBRANCH   1  31
TORSDOF 9
ENDMDL
MODEL 4
REMARK VINA RESULT:      -9.3      2.047      2.327
REMARK  9 active torsions:
REMARK  status: ('A' for Active; 'I' for Inactive)
REMARK    1  A    between atoms: C_4  and  C_5 
REMARK    2  A    between atoms: C_5  and  N_6 
REMARK    3  A    between atoms: C_11  and  C_12 
REMARK       I    between atoms: C_12  and  N_13 
REMARK    4  A    between atoms: C_15  and  N_16 
REMARK       I    between atoms: N_16  and  C_17 
REMARK    5  A    between atoms: C_17  and  C_18 
REMARK    6  A    between atoms: C_18  and  C_19 
REMARK    7  A    between atoms: C_19  and  C_20 
REMARK    8  A    between atoms: C_20  and  S_21 
REMARK    9  A    between atoms: S_21  and  C_22 
ROOT
HETATM    1  N   UNL     1      27.261  45.672  55.166  1.00  0.00    -0.063 N 
HETATM    2  H   UNL     1      27.200  46.021  56.127  1.00  0.00     0.280 HD
HETATM    3  C   UNL     1      26.363  46.589  54.338  1.00  0.00     0.282 C 
HETATM    4  C   UNL     1      26.008  45.958  53.037  1.00  0.00     0.018 C 
HETATM    5  C   UNL     1      26.175  44.625  52.720  1.00  0.00    -0.023 C 
HETATM    6  C   UNL     1      25.866  44.369  51.332  1.00  0.00     0.073 C 
HETATM    7  C   UNL     1      25.200  45.456  50.782  1.00  0.00     0.093 C 
HETATM    8  S   UNL     1      25.278  46.831  51.784  1.00  0.00    -0.074 SA
HETATM    9  C   UNL     1      26.695  43.642  53.735  1.00  0.00     0.068 C 
HETATM   10  C   UNL     1      26.716  44.245  55.158  1.00  0.00     0.240 C 
ENDROOT
BRANCH   7  11
HETATM   11  N   UNL     1      24.577  45.516  49.544  1.00  0.00    -0.320 N 
HETATM   12  C   UNL     1      23.443  44.801  49.177  1.00  0.00     0.222 C 
HETATM   13  O   UNL     1      22.830  43.998  49.870  1.00  0.00    -0.273 OA
HETATM   14  H   UNL     1      25.148  45.866  48.782  1.00  0.00     0.169 HD
BRANCH  12  15
HETATM   15  C   UNL     1      23.012  45.126  47.754  1.00  0.00     0.104 C 
BRANCH  15  16
HETATM   16  C   UNL     1      21.547  45.548  47.642  1.00  0.00     0.020 C 
BRANCH  16  17
HETATM   17  C   UNL     1      21.078  46.732  48.494  1.00  0.00     0.080 C 
BRANCH  17  18
HETATM   18  S   UNL     1      22.046  48.280  48.379  1.00  0.00    -0.130 SA
BRANCH  18  19
HETATM   19  C   UNL     1      20.853  49.549  48.758  1.00  0.00     0.000 A 
HETATM   20  C   UNL     1      20.928  50.857  48.271  1.00  0.00     0.020 A 
HETATM   21  C   UNL     1      19.961  51.803  48.628  1.00  0.00     0.025 A 
HETATM   22  C   UNL     1      18.902  51.435  49.455  1.00  0.00     0.034 A 
HETATM   23 CL   UNL     1      17.717  52.600  49.901  1.00  0.00    -0.084 Cl
HETATM   24  C   UNL     1      18.796  50.129  49.921  1.00  0.00     0.025 A 
HETATM   25  C   UNL     1      19.768  49.189  49.569  1.00  0.00     0.020 A 
ENDBRANCH  18  19
ENDBRANCH  17  18
ENDBRANCH  16  17
ENDBRANCH  15  16
ENDBRANCH  12  15
ENDBRANCH   7  11
BRANCH   6  26
HETATM   26  C   UNL     1      26.125  43.106  50.646  1.00  0.00     0.252 C 
HETATM   27  N   UNL     1      25.307  42.062  50.991  1.00  0.00    -0.366 N 
HETATM   28  H   UNL     1      24.384  42.254  51.361  1.00  0.00     0.159 HD
HETATM   29  H   UNL     1      25.377  41.253  50.382  1.00  0.00     0.159 HD
HETATM   30  O   UNL     1      26.952  42.991  49.751  1.00  0.00    -0.268 OA
ENDBRANCH   6  26
BRANCH   1  31
HETATM   31  C   UNL     1      28.728  45.713  54.796  1.00  0.00     0.273 C 
BRANCH  31  32
HETATM   32  C   UNL     1      29.669  45.052  55.764  1.00  0.00    -0.033 A 
HETATM   33  C   UNL     1      30.416  43.918  55.414  1.00  0.00     0.009 A 
HETATM   34  C   UNL     1      31.300  43.348  56.332  1.00  0.00     0.001 A 
HETATM   35  C   UNL     1      31.461  43.912  57.596  1.00  0.00     0.000 A 
HETATM   36  C   UNL     1      30.738  45.047  57.949  1.00  0.00     0.001 A 
HETATM   37  C   UNL     1      29.846  45.614  57.040  1.00  0.00     0.009 A 
ENDBRANCH  31  32
ENDBRANCH   1  31
TORSDOF 9
ENDMDL
MODEL 5
REMARK VINA RESULT:      -8.9      2.861      3.632
REMARK  9 active torsions:
REMARK  status: ('A' for Active; 'I' for Inactive)
REMARK    1  A    between atoms: C_4  and  C_5 
REMARK    2  A    between atoms: C_5  and  N_6 
REMARK    3  A    between atoms: C_11  and  C_12 
REMARK       I    between atoms: C_12  and  N_13 
REMARK    4  A    between atoms: C_15  and  N_16 
REMARK       I    between atoms: N_16  and  C_17 
REMARK    5  A    between atoms: C_17  and  C_18 
REMARK    6  A    between atoms: C_18  and  C_19 
REMARK    7  A    between atoms: C_19  and  C_20 
REMARK    8  A    between atoms: C_20  and  S_21 
REMARK    9  A    between atoms: S_21  and  C_22 
ROOT
HETATM    1  N   UNL     1      27.003  45.464  54.821  1.00  0.00    -0.063 N 
HETATM    2  H   UNL     1      26.808  45.868  55.742  1.00  0.00     0.280 HD
HETATM    3  C   UNL     1      26.073  46.189  53.849  1.00  0.00     0.282 C 
HETATM    4  C   UNL     1      25.926  45.425  52.580  1.00  0.00     0.018 C 
HETATM    5  C   UNL     1      26.295  44.109  52.388  1.00  0.00    -0.023 C 
HETATM    6  C   UNL     1      26.152  43.716  51.005  1.00  0.00     0.073 C 
HETATM    7  C   UNL     1      25.404  44.660  50.315  1.00  0.00     0.093 C 
HETATM    8  S   UNL     1      25.208  46.099  51.204  1.00  0.00    -0.074 SA
HETATM    9  C   UNL     1      26.843  43.281  53.519  1.00  0.00     0.068 C 
HETATM   10  C   UNL     1      26.652  43.979  54.885  1.00  0.00     0.240 C 
ENDROOT
BRANCH   7  11
HETATM   11  N   UNL     1      24.895  44.547  49.029  1.00  0.00    -0.320 N 
HETATM   12  C   UNL     1      23.701  43.922  48.686  1.00  0.00     0.222 C 
HETATM   13  O   UNL     1      22.926  43.362  49.450  1.00  0.00    -0.273 OA
HETATM   14  H   UNL     1      25.569  44.659  48.279  1.00  0.00     0.169 HD
BRANCH  12  15
HETATM   15  C   UNL     1      23.436  44.005  47.189  1.00  0.00     0.104 C 
BRANCH  15  16
HETATM   16  C   UNL     1      21.999  43.652  46.805  1.00  0.00     0.020 C 
BRANCH  16  17
HETATM   17  C   UNL     1      21.008  44.806  46.614  1.00  0.00     0.080 C 
BRANCH  17  18
HETATM   18  S   UNL     1      20.317  45.571  48.125  1.00  0.00    -0.130 SA
BRANCH  18  19
HETATM   19  C   UNL     1      21.074  47.184  48.160  1.00  0.00     0.000 A 
HETATM   20  C   UNL     1      20.426  48.356  47.757  1.00  0.00     0.020 A 
HETATM   21  C   UNL     1      21.094  49.585  47.798  1.00  0.00     0.025 A 
HETATM   22  C   UNL     1      22.405  49.648  48.264  1.00  0.00     0.034 A 
HETATM   23 CL   UNL     1      23.229  51.157  48.306  1.00  0.00    -0.084 Cl
HETATM   24  C   UNL     1      23.051  48.495  48.699  1.00  0.00     0.025 A 
HETATM   25  C   UNL     1      22.384  47.269  48.650  1.00  0.00     0.020 A 
ENDBRANCH  18  19
ENDBRANCH  17  18
ENDBRANCH  16  17
ENDBRANCH  15  16
ENDBRANCH  12  15
ENDBRANCH   7  11
BRANCH   6  26
HETATM   26  C   UNL     1      26.636  42.456  50.448  1.00  0.00     0.252 C 
HETATM   27  N   UNL     1      26.169  41.319  51.053  1.00  0.00    -0.366 N 
HETATM   28  H   UNL     1      25.284  41.344  51.546  1.00  0.00     0.159 HD
HETATM   29  H   UNL     1      26.365  40.461  50.546  1.00  0.00     0.159 HD
HETATM   30  O   UNL     1      27.341  42.395  49.449  1.00  0.00    -0.268 OA
ENDBRANCH   6  26
BRANCH   1  31
HETATM   31  C   UNL     1      28.479  45.680  54.571  1.00  0.00     0.273 C 
BRANCH  31  32
HETATM   32  C   UNL     1      29.407  45.205  55.654  1.00  0.00    -0.033 A 
HETATM   33  C   UNL     1      30.296  44.140  55.454  1.00  0.00     0.009 A 
HETATM   34  C   UNL     1      31.161  43.744  56.477  1.00  0.00     0.001 A 
HETATM   35  C   UNL     1      31.160  44.416  57.697  1.00  0.00     0.000 A 
HETATM   36  C   UNL     1      30.294  45.485  57.903  1.00  0.00     0.001 A 
HETATM   37  C   UNL     1      29.420  45.877  56.889  1.00  0.00     0.009 A 
ENDBRANCH  31  32
ENDBRANCH   1  31
TORSDOF 9
ENDMDL
MODEL 6
REMARK VINA RESULT:      -8.7      3.156      4.437
REMARK  9 active torsions:
REMARK  status: ('A' for Active; 'I' for Inactive)
REMARK    1  A    between atoms: C_4  and  C_5 
REMARK    2  A    between atoms: C_5  and  N_6 
REMARK    3  A    between atoms: C_11  and  C_12 
REMARK       I    between atoms: C_12  and  N_13 
REMARK    4  A    between atoms: C_15  and  N_16 
REMARK       I    between atoms: N_16  and  C_17 
REMARK    5  A    between atoms: C_17  and  C_18 
REMARK    6  A    between atoms: C_18  and  C_19 
REMARK    7  A    between atoms: C_19  and  C_20 
REMARK    8  A    between atoms: C_20  and  S_21 
REMARK    9  A    between atoms: S_21  and  C_22 
ROOT
HETATM    1  N   UNL     1      26.783  43.559  50.909  1.00  0.00    -0.063 N 
HETATM    2  H   UNL     1      27.517  42.845  50.935  1.00  0.00     0.280 HD
HETATM    3  C   UNL     1      25.489  42.806  50.608  1.00  0.00     0.282 C 
HETATM    4  C   UNL     1      24.435  43.733  50.113  1.00  0.00     0.018 C 
HETATM    5  C   UNL     1      24.644  45.024  49.672  1.00  0.00    -0.023 C 
HETATM    6  C   UNL     1      23.396  45.698  49.397  1.00  0.00     0.073 C 
HETATM    7  C   UNL     1      22.355  44.779  49.356  1.00  0.00     0.093 C 
HETATM    8  S   UNL     1      22.815  43.261  49.976  1.00  0.00    -0.074 SA
HETATM    9  C   UNL     1      26.030  45.605  49.593  1.00  0.00     0.068 C 
HETATM   10  C   UNL     1      27.116  44.520  49.770  1.00  0.00     0.240 C 
ENDROOT
BRANCH   7  11
HETATM   11  N   UNL     1      21.053  45.008  48.937  1.00  0.00    -0.320 N 
HETATM   12  C   UNL     1      20.595  44.896  47.629  1.00  0.00     0.222 C 
HETATM   13  O   UNL     1      21.262  44.600  46.646  1.00  0.00    -0.273 OA
HETATM   14  H   UNL     1      20.484  45.572  49.560  1.00  0.00     0.169 HD
BRANCH  12  15
HETATM   15  C   UNL     1      19.105  45.194  47.530  1.00  0.00     0.104 C 
BRANCH  15  16
HETATM   16  C   UNL     1      18.666  46.392  48.371  1.00  0.00     0.020 C 
BRANCH  16  17
HETATM   17  C   UNL     1      17.586  47.313  47.793  1.00  0.00     0.080 C 
BRANCH  17  18
HETATM   18  S   UNL     1      17.338  48.928  48.615  1.00  0.00    -0.130 SA
BRANCH  18  19
HETATM   19  C   UNL     1      18.979  49.619  48.682  1.00  0.00     0.000 A 
HETATM   20  C   UNL     1      19.642  49.935  49.872  1.00  0.00     0.020 A 
HETATM   21  C   UNL     1      20.926  50.491  49.842  1.00  0.00     0.025 A 
HETATM   22  C   UNL     1      21.558  50.713  48.620  1.00  0.00     0.034 A 
HETATM   23 CL   UNL     1      23.132  51.406  48.583  1.00  0.00    -0.084 Cl
HETATM   24  C   UNL     1      20.924  50.375  47.429  1.00  0.00     0.025 A 
HETATM   25  C   UNL     1      19.640  49.826  47.463  1.00  0.00     0.020 A 
ENDBRANCH  18  19
ENDBRANCH  17  18
ENDBRANCH  16  17
ENDBRANCH  15  16
ENDBRANCH  12  15
ENDBRANCH   7  11
BRANCH   6  26
HETATM   26  C   UNL     1      23.271  47.122  49.100  1.00  0.00     0.252 C 
HETATM   27  N   UNL     1      23.630  47.974  50.111  1.00  0.00    -0.366 N 
HETATM   28  H   UNL     1      24.287  47.663  50.816  1.00  0.00     0.159 HD
HETATM   29  H   UNL     1      23.713  48.947  49.833  1.00  0.00     0.159 HD
HETATM   30  O   UNL     1      22.957  47.549  47.997  1.00  0.00    -0.268 OA
ENDBRANCH   6  26
BRANCH   1  31
HETATM   31  C   UNL     1      26.821  44.251  52.254  1.00  0.00     0.273 C 
BRANCH  31  32
HETATM   32  C   UNL     1      28.044  43.999  53.091  1.00  0.00    -0.033 A 
HETATM   33  C   UNL     1      28.232  44.617  54.335  1.00  0.00     0.009 A 
HETATM   34  C   UNL     1      29.369  44.338  55.095  1.00  0.00     0.001 A 
HETATM   35  C   UNL     1      30.318  43.428  54.631  1.00  0.00     0.000 A 
HETATM   36  C   UNL     1      30.135  42.795  53.407  1.00  0.00     0.001 A 
HETATM   37  C   UNL     1      29.006  43.079  52.639  1.00  0.00     0.009 A 
ENDBRANCH  31  32
ENDBRANCH   1  31
TORSDOF 9
ENDMDL
MODEL 7
REMARK VINA RESULT:      -8.6      4.559     12.900
REMARK  9 active torsions:
REMARK  status: ('A' for Active; 'I' for Inactive)
REMARK    1  A    between atoms: C_4  and  C_5 
REMARK    2  A    between atoms: C_5  and  N_6 
REMARK    3  A    between atoms: C_11  and  C_12 
REMARK       I    between atoms: C_12  and  N_13 
REMARK    4  A    between atoms: C_15  and  N_16 
REMARK       I    between atoms: N_16  and  C_17 
REMARK    5  A    between atoms: C_17  and  C_18 
REMARK    6  A    between atoms: C_18  and  C_19 
REMARK    7  A    between atoms: C_19  and  C_20 
REMARK    8  A    between atoms: C_20  and  S_21 
REMARK    9  A    between atoms: S_21  and  C_22 
ROOT
HETATM    1  N   UNL     1      17.518  52.487  47.926  1.00  0.00    -0.063 N 
HETATM    2  H   UNL     1      17.313  53.487  47.849  1.00  0.00     0.280 HD
HETATM    3  C   UNL     1      18.712  52.384  48.873  1.00  0.00     0.282 C 
HETATM    4  C   UNL     1      19.388  51.065  48.739  1.00  0.00     0.018 C 
HETATM    5  C   UNL     1      19.199  50.167  47.707  1.00  0.00    -0.023 C 
HETATM    6  C   UNL     1      19.895  48.925  47.952  1.00  0.00     0.073 C 
HETATM    7  C   UNL     1      20.800  49.082  48.994  1.00  0.00     0.093 C 
HETATM    8  S   UNL     1      20.550  50.533  49.849  1.00  0.00    -0.074 SA
HETATM    9  C   UNL     1      18.299  50.494  46.546  1.00  0.00     0.068 C 
HETATM   10  C   UNL     1      17.898  51.986  46.534  1.00  0.00     0.240 C 
ENDROOT
BRANCH   7  11
HETATM   11  N   UNL     1      21.778  48.183  49.394  1.00  0.00    -0.320 N 
HETATM   12  C   UNL     1      23.068  48.113  48.880  1.00  0.00     0.222 C 
HETATM   13  O   UNL     1      23.537  48.810  47.989  1.00  0.00    -0.273 OA
HETATM   14  H   UNL     1      21.441  47.351  49.867  1.00  0.00     0.169 HD
BRANCH  12  15
HETATM   15  C   UNL     1      23.885  47.027  49.566  1.00  0.00     0.104 C 
BRANCH  15  16
HETATM   16  C   UNL     1      24.940  47.574  50.528  1.00  0.00     0.020 C 
BRANCH  16  17
HETATM   17  C   UNL     1      26.005  46.603  51.048  1.00  0.00     0.080 C 
BRANCH  17  18
HETATM   18  S   UNL     1      25.498  45.431  52.358  1.00  0.00    -0.130 SA
BRANCH  18  19
HETATM   19  C   UNL     1      26.851  45.488  53.517  1.00  0.00     0.000 A 
HETATM   20  C   UNL     1      27.707  44.412  53.767  1.00  0.00     0.020 A 
HETATM   21  C   UNL     1      28.738  44.530  54.706  1.00  0.00     0.025 A 
HETATM   22  C   UNL     1      28.927  45.733  55.382  1.00  0.00     0.034 A 
HETATM   23 CL   UNL     1      30.188  45.874  56.544  1.00  0.00    -0.084 Cl
HETATM   24  C   UNL     1      28.103  46.823  55.121  1.00  0.00     0.025 A 
HETATM   25  C   UNL     1      27.070  46.699  54.188  1.00  0.00     0.020 A 
ENDBRANCH  18  19
ENDBRANCH  17  18
ENDBRANCH  16  17
ENDBRANCH  15  16
ENDBRANCH  12  15
ENDBRANCH   7  11
BRANCH   6  26
HETATM   26  C   UNL     1      19.740  47.716  47.148  1.00  0.00     0.252 C 
HETATM   27  N   UNL     1      18.507  47.122  47.198  1.00  0.00    -0.366 N 
HETATM   28  H   UNL     1      17.694  47.679  47.430  1.00  0.00     0.159 HD
HETATM   29  H   UNL     1      18.359  46.398  46.502  1.00  0.00     0.159 HD
HETATM   30  O   UNL     1      20.613  47.297  46.399  1.00  0.00    -0.268 OA
ENDBRANCH   6  26
BRANCH   1  31
HETATM   31  C   UNL     1      16.248  51.835  48.427  1.00  0.00     0.273 C 
BRANCH  31  32
HETATM   32  C   UNL     1      15.212  52.762  48.999  1.00  0.00    -0.033 A 
HETATM   33  C   UNL     1      14.953  52.825  50.375  1.00  0.00     0.009 A 
HETATM   34  C   UNL     1      14.000  53.718  50.871  1.00  0.00     0.001 A 
HETATM   35  C   UNL     1      13.314  54.566  50.004  1.00  0.00     0.000 A 
HETATM   36  C   UNL     1      13.574  54.525  48.638  1.00  0.00     0.001 A 
HETATM   37  C   UNL     1      14.516  53.627  48.137  1.00  0.00     0.009 A 
ENDBRANCH  31  32
ENDBRANCH   1  31
TORSDOF 9
ENDMDL
MODEL 8
REMARK VINA RESULT:      -8.4      2.265      2.937
REMARK  9 active torsions:
REMARK  status: ('A' for Active; 'I' for Inactive)
REMARK    1  A    between atoms: C_4  and  C_5 
REMARK    2  A    between atoms: C_5  and  N_6 
REMARK    3  A    between atoms: C_11  and  C_12 
REMARK       I    between atoms: C_12  and  N_13 
REMARK    4  A    between atoms: C_15  and  N_16 
REMARK       I    between atoms: N_16  and  C_17 
REMARK    5  A    between atoms: C_17  and  C_18 
REMARK    6  A    between atoms: C_18  and  C_19 
REMARK    7  A    between atoms: C_19  and  C_20 
REMARK    8  A    between atoms: C_20  and  S_21 
REMARK    9  A    between atoms: S_21  and  C_22 
ROOT
HETATM    1  N   UNL     1      28.329  42.199  52.652  1.00  0.00    -0.063 N 
HETATM    2  H   UNL     1      29.003  41.452  52.843  1.00  0.00     0.280 HD
HETATM    3  C   UNL     1      27.242  41.561  51.790  1.00  0.00     0.282 C 
HETATM    4  C   UNL     1      26.444  42.599  51.081  1.00  0.00     0.018 C 
HETATM    5  C   UNL     1      26.798  43.926  50.941  1.00  0.00    -0.023 C 
HETATM    6  C   UNL     1      25.739  44.694  50.327  1.00  0.00     0.073 C 
HETATM    7  C   UNL     1      24.792  43.843  49.773  1.00  0.00     0.093 C 
HETATM    8  S   UNL     1      24.993  42.233  50.290  1.00  0.00    -0.074 SA
HETATM    9  C   UNL     1      28.112  44.441  51.464  1.00  0.00     0.068 C 
HETATM   10  C   UNL     1      29.059  43.289  51.869  1.00  0.00     0.240 C 
ENDROOT
BRANCH   7  11
HETATM   11  N   UNL     1      23.738  44.194  48.942  1.00  0.00    -0.320 N 
HETATM   12  C   UNL     1      22.389  44.102  49.267  1.00  0.00     0.222 C 
HETATM   13  O   UNL     1      21.920  43.686  50.319  1.00  0.00    -0.273 OA
HETATM   14  H   UNL     1      23.954  44.232  47.951  1.00  0.00     0.169 HD
BRANCH  12  15
HETATM   15  C   UNL     1      21.504  44.595  48.131  1.00  0.00     0.104 C 
BRANCH  15  16
HETATM   16  C   UNL     1      20.884  45.967  48.393  1.00  0.00     0.020 C 
BRANCH  16  17
HETATM   17  C   UNL     1      21.095  47.060  47.339  1.00  0.00     0.080 C 
BRANCH  17  18
HETATM   18  S   UNL     1      21.974  48.573  47.870  1.00  0.00    -0.130 SA
BRANCH  18  19
HETATM   19  C   UNL     1      20.668  49.626  48.472  1.00  0.00     0.000 A 
HETATM   20  C   UNL     1      19.495  49.148  49.064  1.00  0.00     0.020 A 
HETATM   21  C   UNL     1      18.506  50.038  49.498  1.00  0.00     0.025 A 
HETATM   22  C   UNL     1      18.700  51.411  49.361  1.00  0.00     0.034 A 
HETATM   23 CL   UNL     1      17.481  52.505  49.886  1.00  0.00    -0.084 Cl
HETATM   24  C   UNL     1      19.876  51.902  48.803  1.00  0.00     0.025 A 
HETATM   25  C   UNL     1      20.858  51.010  48.365  1.00  0.00     0.020 A 
ENDBRANCH  18  19
ENDBRANCH  17  18
ENDBRANCH  16  17
ENDBRANCH  15  16
ENDBRANCH  12  15
ENDBRANCH   7  11
BRANCH   6  26
HETATM   26  C   UNL     1      25.729  46.150  50.216  1.00  0.00     0.252 C 
HETATM   27  N   UNL     1      25.000  46.814  51.167  1.00  0.00    -0.366 N 
HETATM   28  H   UNL     1      24.837  46.377  52.066  1.00  0.00     0.159 HD
HETATM   29  H   UNL     1      25.150  47.818  51.188  1.00  0.00     0.159 HD
HETATM   30  O   UNL     1      26.396  46.761  49.392  1.00  0.00    -0.268 OA
ENDBRANCH   6  26
BRANCH   1  31
HETATM   31  C   UNL     1      27.862  42.698  54.002  1.00  0.00     0.273 C 
BRANCH  31  32
HETATM   32  C   UNL     1      28.824  43.579  54.748  1.00  0.00    -0.033 A 
HETATM   33  C   UNL     1      28.507  44.902  55.088  1.00  0.00     0.009 A 
HETATM   34  C   UNL     1      29.418  45.681  55.805  1.00  0.00     0.001 A 
HETATM   35  C   UNL     1      30.641  45.144  56.203  1.00  0.00     0.000 A 
HETATM   36  C   UNL     1      30.960  43.828  55.886  1.00  0.00     0.001 A 
HETATM   37  C   UNL     1      30.059  43.049  55.161  1.00  0.00     0.009 A 
ENDBRANCH  31  32
ENDBRANCH   1  31
TORSDOF 9
ENDMDL
MODEL 9
REMARK VINA RESULT:      -8.3      3.556      5.130
REMARK  9 active torsions:
REMARK  status: ('A' for Active; 'I' for Inactive)
REMARK    1  A    between atoms: C_4  and  C_5 
REMARK    2  A    between atoms: C_5  and  N_6 
REMARK    3  A    between atoms: C_11  and  C_12 
REMARK       I    between atoms: C_12  and  N_13 
REMARK    4  A    between atoms: C_15  and  N_16 
REMARK       I    between atoms: N_16  and  C_17 
REMARK    5  A    between atoms: C_17  and  C_18 
REMARK    6  A    between atoms: C_18  and  C_19 
REMARK    7  A    between atoms: C_19  and  C_20 
REMARK    8  A    between atoms: C_20  and  S_21 
REMARK    9  A    between atoms: S_21  and  C_22 
ROOT
HETATM    1  N   UNL     1      25.857  45.354  51.124  1.00  0.00    -0.063 N 
HETATM    2  H   UNL     1      26.656  44.752  51.344  1.00  0.00     0.280 HD
HETATM    3  C   UNL     1      24.907  44.490  50.297  1.00  0.00     0.282 C 
HETATM    4  C   UNL     1      23.935  45.332  49.547  1.00  0.00     0.018 C 
HETATM    5  C   UNL     1      24.041  46.693  49.346  1.00  0.00    -0.023 C 
HETATM    6  C   UNL     1      22.861  47.226  48.704  1.00  0.00     0.073 C 
HETATM    7  C   UNL     1      22.086  46.192  48.194  1.00  0.00     0.093 C 
HETATM    8  S   UNL     1      22.577  44.671  48.782  1.00  0.00    -0.074 SA
HETATM    9  C   UNL     1      25.237  47.463  49.837  1.00  0.00     0.068 C 
HETATM   10  C   UNL     1      26.377  46.522  50.288  1.00  0.00     0.240 C 
ENDROOT
BRANCH   7  11
HETATM   11  N   UNL     1      20.988  46.306  47.354  1.00  0.00    -0.320 N 
HETATM   12  C   UNL     1      21.017  46.193  45.969  1.00  0.00     0.222 C 
HETATM   13  O   UNL     1      22.007  45.997  45.274  1.00  0.00    -0.273 OA
HETATM   14  H   UNL     1      20.186  46.790  47.744  1.00  0.00     0.169 HD
BRANCH  12  15
HETATM   15  C   UNL     1      19.628  46.346  45.365  1.00  0.00     0.104 C 
BRANCH  15  16
HETATM   16  C   UNL     1      18.500  46.158  46.378  1.00  0.00     0.020 C 
BRANCH  16  17
HETATM   17  C   UNL     1      17.078  46.531  45.941  1.00  0.00     0.080 C 
BRANCH  17  18
HETATM   18  S   UNL     1      16.826  48.212  45.267  1.00  0.00    -0.130 SA
BRANCH  18  19
HETATM   19  C   UNL     1      17.602  49.269  46.475  1.00  0.00     0.000 A 
HETATM   20  C   UNL     1      18.816  49.930  46.264  1.00  0.00     0.020 A 
HETATM   21  C   UNL     1      19.371  50.730  47.269  1.00  0.00     0.025 A 
HETATM   22  C   UNL     1      18.701  50.888  48.480  1.00  0.00     0.034 A 
HETATM   23 CL   UNL     1      19.387  51.864  49.719  1.00  0.00    -0.084 Cl
HETATM   24  C   UNL     1      17.477  50.262  48.692  1.00  0.00     0.025 A 
HETATM   25  C   UNL     1      16.929  49.458  47.689  1.00  0.00     0.020 A 
ENDBRANCH  18  19
ENDBRANCH  17  18
ENDBRANCH  16  17
ENDBRANCH  15  16
ENDBRANCH  12  15
ENDBRANCH   7  11
BRANCH   6  26
HETATM   26  C   UNL     1      22.585  48.649  48.528  1.00  0.00     0.252 C 
HETATM   27  N   UNL     1      21.917  49.258  49.557  1.00  0.00    -0.366 N 
HETATM   28  H   UNL     1      21.978  48.869  50.491  1.00  0.00     0.159 HD
HETATM   29  H   UNL     1      21.895  50.271  49.504  1.00  0.00     0.159 HD
HETATM   30  O   UNL     1      22.996  49.295  47.573  1.00  0.00    -0.268 OA
ENDBRANCH   6  26
BRANCH   1  31
HETATM   31  C   UNL     1      25.303  45.820  52.453  1.00  0.00     0.273 C 
BRANCH  31  32
HETATM   32  C   UNL     1      26.319  46.196  53.495  1.00  0.00    -0.033 A 
HETATM   33  C   UNL     1      26.278  47.431  54.158  1.00  0.00     0.009 A 
HETATM   34  C   UNL     1      27.224  47.734  55.139  1.00  0.00     0.001 A 
HETATM   35  C   UNL     1      28.205  46.804  55.480  1.00  0.00     0.000 A 
HETATM   36  C   UNL     1      28.246  45.569  54.841  1.00  0.00     0.001 A 
HETATM   37  C   UNL     1      27.310  45.266  53.853  1.00  0.00     0.009 A 
ENDBRANCH  31  32
ENDBRANCH   1  31
TORSDOF 9
ENDMDL
MODEL 10
REMARK VINA RESULT:      -8.1      2.821      4.738
REMARK  9 active torsions:
REMARK  status: ('A' for Active; 'I' for Inactive)
REMARK    1  A    between atoms: C_4  and  C_5 
REMARK    2  A    between atoms: C_5  and  N_6 
REMARK    3  A    between atoms: C_11  and  C_12 
REMARK       I    between atoms: C_12  and  N_13 
REMARK    4  A    between atoms: C_15  and  N_16 
REMARK       I    between atoms: N_16  and  C_17 
REMARK    5  A    between atoms: C_17  and  C_18 
REMARK    6  A    between atoms: C_18  and  C_19 
REMARK    7  A    between atoms: C_19  and  C_20 
REMARK    8  A    between atoms: C_20  and  S_21 
REMARK    9  A    between atoms: S_21  and  C_22 
ROOT
HETATM    1  N   UNL     1      25.906  45.063  50.864  1.00  0.00    -0.063 N 
HETATM    2  H   UNL     1      26.378  44.159  50.959  1.00  0.00     0.280 HD
HETATM    3  C   UNL     1      24.623  44.779  50.087  1.00  0.00     0.282 C 
HETATM    4  C   UNL     1      24.065  46.028  49.500  1.00  0.00     0.018 C 
HETATM    5  C   UNL     1      24.737  47.228  49.380  1.00  0.00    -0.023 C 
HETATM    6  C   UNL     1      23.866  48.277  48.903  1.00  0.00     0.073 C 
HETATM    7  C   UNL     1      22.687  47.732  48.410  1.00  0.00     0.093 C 
HETATM    8  S   UNL     1      22.508  46.094  48.840  1.00  0.00    -0.074 SA
HETATM    9  C   UNL     1      26.179  47.358  49.793  1.00  0.00     0.068 C 
HETATM   10  C   UNL     1      26.825  45.979  50.058  1.00  0.00     0.240 C 
ENDROOT
BRANCH   7  11
HETATM   11  N   UNL     1      21.694  48.390  47.699  1.00  0.00    -0.320 N 
HETATM   12  C   UNL     1      20.594  49.032  48.256  1.00  0.00     0.222 C 
HETATM   13  O   UNL     1      20.318  49.103  49.447  1.00  0.00    -0.273 OA
HETATM   14  H   UNL     1      21.610  48.132  46.722  1.00  0.00     0.169 HD
BRANCH  12  15
HETATM   15  C   UNL     1      19.719  49.672  47.188  1.00  0.00     0.104 C 
BRANCH  15  16
HETATM   16  C   UNL     1      18.527  48.807  46.779  1.00  0.00     0.020 C 
BRANCH  16  17
HETATM   17  C   UNL     1      17.217  49.519  46.424  1.00  0.00     0.080 C 
BRANCH  17  18
HETATM   18  S   UNL     1      17.312  51.305  46.044  1.00  0.00    -0.130 SA
BRANCH  18  19
HETATM   19  C   UNL     1      16.594  52.077  47.482  1.00  0.00     0.000 A 
HETATM   20  C   UNL     1      15.340  52.696  47.487  1.00  0.00     0.020 A 
HETATM   21  C   UNL     1      14.851  53.296  48.653  1.00  0.00     0.025 A 
HETATM   22  C   UNL     1      15.607  53.258  49.823  1.00  0.00     0.034 A 
HETATM   23 CL   UNL     1      15.009  54.004  51.253  1.00  0.00    -0.084 Cl
HETATM   24  C   UNL     1      16.842  52.618  49.841  1.00  0.00     0.025 A 
HETATM   25  C   UNL     1      17.330  52.027  48.673  1.00  0.00     0.020 A 
ENDBRANCH  18  19
ENDBRANCH  17  18
ENDBRANCH  16  17
ENDBRANCH  15  16
ENDBRANCH  12  15
ENDBRANCH   7  11
BRANCH   6  26
HETATM   26  C   UNL     1      24.223  49.691  48.851  1.00  0.00     0.252 C 
HETATM   27  N   UNL     1      25.237  50.018  47.990  1.00  0.00    -0.366 N 
HETATM   28  H   UNL     1      25.426  49.422  47.193  1.00  0.00     0.159 HD
HETATM   29  H   UNL     1      25.350  51.014  47.830  1.00  0.00     0.159 HD
HETATM   30  O   UNL     1      23.609  50.557  49.460  1.00  0.00    -0.268 OA
ENDBRANCH   6  26
BRANCH   1  31
HETATM   31  C   UNL     1      25.698  45.578  52.272  1.00  0.00     0.273 C 
BRANCH  31  32
HETATM   32  C   UNL     1      26.821  45.324  53.239  1.00  0.00    -0.033 A 
HETATM   33  C   UNL     1      27.602  44.162  53.179  1.00  0.00     0.009 A 
HETATM   34  C   UNL     1      28.653  43.974  54.080  1.00  0.00     0.001 A 
HETATM   35  C   UNL     1      28.945  44.949  55.032  1.00  0.00     0.000 A 
HETATM   36  C   UNL     1      28.188  46.114  55.090  1.00  0.00     0.001 A 
HETATM   37  C   UNL     1      27.130  46.301  54.201  1.00  0.00     0.009 A 
ENDBRANCH  31  32
ENDBRANCH   1  31
TORSDOF 9
ENDMDL
