MODEL 1
REMARK VINA RESULT:      -9.0      0.000      0.000
REMARK  9 active torsions:
REMARK  status: ('A' for Active; 'I' for Inactive)
REMARK    1  A    between atoms: C_2  and  N_3 
REMARK    2  A    between atoms: N_3  and  C_4 
REMARK    3  A    between atoms: C_4  and  N_5 
REMARK    4  A    between atoms: N_8  and  C_10 
REMARK    5  A    between atoms: C_10  and  C_11 
REMARK    6  A    between atoms: C_11  and  N_12 
REMARK    7  A    between atoms: C_13  and  C_14 
REMARK    8  A    between atoms: N_17  and  C_18 
REMARK    9  A    between atoms: C_28  and  C_29 
ROOT
HETATM    1  C   UNL     1      26.138  44.503  51.574  1.00  0.00     0.085 C 
HETATM    2  C   UNL     1      26.637  44.977  52.908  1.00  0.00     0.278 C 
HETATM    3  O   UNL     1      26.071  45.841  53.555  1.00  0.00    -0.265 OA
HETATM    4  N   UNL     1      27.762  44.217  53.196  1.00  0.00    -0.212 N 
HETATM    5  N   UNL     1      28.005  43.350  52.132  1.00  0.00    -0.189 NA
HETATM    6  C   UNL     1      26.955  43.488  51.226  1.00  0.00     0.130 C 
HETATM    7  H   UNL     1      28.312  42.406  52.382  1.00  0.00     0.153 HD
ENDROOT
BRANCH   1   8
HETATM    8  C   UNL     1      24.999  45.073  50.807  1.00  0.00     0.042 C 
HETATM    9  N   UNL     1      25.111  46.261  50.294  1.00  0.00    -0.292 NA
HETATM   10  C   UNL     1      23.762  44.201  50.672  1.00  0.00     0.071 C 
BRANCH   9  11
HETATM   11  C   UNL     1      23.961  46.832  49.580  1.00  0.00     0.176 C 
BRANCH  11  12
HETATM   12  C   UNL     1      24.219  48.322  49.320  1.00  0.00     0.256 C 
BRANCH  12  13
HETATM   13  N   UNL     1      23.033  48.970  48.632  1.00  0.00    -0.066 N 
HETATM   14  C   UNL     1      21.760  48.130  48.705  1.00  0.00     0.254 C 
HETATM   15  C   UNL     1      20.583  48.865  48.033  1.00  0.00     0.153 C 
HETATM   16  N   UNL     1      20.393  50.186  48.649  1.00  0.00    -0.355 N 
HETATM   17  C   UNL     1      21.586  51.039  48.532  1.00  0.00     0.153 C 
HETATM   18  C   UNL     1      22.826  50.387  49.161  1.00  0.00     0.254 C 
HETATM   19  H   UNL     1      23.306  49.019  47.633  1.00  0.00     0.280 HD
BRANCH  16  20
HETATM   20  C   UNL     1      19.499  50.299  49.729  1.00  0.00     0.169 C 
HETATM   21  S   UNL     1      18.831  48.996  50.539  1.00  0.00    -0.041 SA
BRANCH  20  22
HETATM   22  N   UNL     1      19.220  51.623  50.014  1.00  0.00    -0.367 N 
HETATM   23  H   UNL     1      19.322  51.845  50.996  1.00  0.00     0.161 HD
BRANCH  22  24
HETATM   24  C   UNL     1      18.251  52.452  49.299  1.00  0.00     0.117 C 
HETATM   25  C   UNL     1      16.857  52.299  49.881  1.00  0.00     0.026 C 
ENDBRANCH  22  24
ENDBRANCH  20  22
ENDBRANCH  16  20
ENDBRANCH  12  13
ENDBRANCH  11  12
ENDBRANCH   9  11
ENDBRANCH   1   8
BRANCH   6  26
HETATM   26  C   UNL     1      26.826  42.600  50.021  1.00  0.00     0.430 C 
HETATM   27  F   UNL     1      26.671  43.326  48.882  1.00  0.00    -0.165 F 
HETATM   28  F   UNL     1      27.927  41.818  49.810  1.00  0.00    -0.165 F 
HETATM   29  F   UNL     1      25.765  41.758  50.098  1.00  0.00    -0.165 F 
ENDBRANCH   6  26
BRANCH   4  30
HETATM   30  C   UNL     1      28.636  44.341  54.258  1.00  0.00     0.192 A 
HETATM   31  S   UNL     1      29.888  43.207  54.487  1.00  0.00    -0.048 SA
HETATM   32  C   UNL     1      30.364  44.011  55.929  1.00  0.00     0.037 A 
HETATM   33  C   UNL     1      29.538  45.120  56.119  1.00  0.00     0.076 A 
HETATM   34  C   UNL     1      31.390  43.680  56.830  1.00  0.00     0.021 A 
HETATM   35  N   UNL     1      28.569  45.311  55.143  1.00  0.00    -0.222 NA
HETATM   36  C   UNL     1      29.744  45.927  57.257  1.00  0.00     0.033 A 
HETATM   37  C   UNL     1      30.758  45.604  58.166  1.00  0.00     0.002 A 
HETATM   38  C   UNL     1      31.570  44.494  57.952  1.00  0.00     0.002 A 
ENDBRANCH   4  30
TORSDOF 9
ENDMDL
MODEL 2
REMARK VINA RESULT:      -8.9      1.554      2.261
REMARK  9 active torsions:
REMARK  status: ('A' for Active; 'I' for Inactive)
REMARK    1  A    between atoms: C_2  and  N_3 
REMARK    2  A    between atoms: N_3  and  C_4 
REMARK    3  A    between atoms: C_4  and  N_5 
REMARK    4  A    between atoms: N_8  and  C_10 
REMARK    5  A    between atoms: C_10  and  C_11 
REMARK    6  A    between atoms: C_11  and  N_12 
REMARK    7  A    between atoms: C_13  and  C_14 
REMARK    8  A    between atoms: N_17  and  C_18 
REMARK    9  A    between atoms: C_28  and  C_29 
ROOT
HETATM    1  C   UNL     1      26.934  43.566  51.251  1.00  0.00     0.085 C 
HETATM    2  C   UNL     1      27.273  44.327  52.500  1.00  0.00     0.278 C 
HETATM    3  O   UNL     1      26.689  45.343  52.833  1.00  0.00    -0.265 OA
HETATM    4  N   UNL     1      28.284  43.612  53.129  1.00  0.00    -0.212 N 
HETATM    5  N   UNL     1      28.609  42.507  52.346  1.00  0.00    -0.189 NA
HETATM    6  C   UNL     1      27.712  42.464  51.280  1.00  0.00     0.130 C 
HETATM    7  H   UNL     1      28.804  41.639  52.852  1.00  0.00     0.153 HD
ENDROOT
BRANCH   1   8
HETATM    8  C   UNL     1      25.963  43.981  50.204  1.00  0.00     0.042 C 
HETATM    9  N   UNL     1      24.892  43.272  50.016  1.00  0.00    -0.292 NA
HETATM   10  C   UNL     1      26.303  45.236  49.418  1.00  0.00     0.071 C 
BRANCH   9  11
HETATM   11  C   UNL     1      23.965  43.665  48.946  1.00  0.00     0.176 C 
BRANCH  11  12
HETATM   12  C   UNL     1      22.669  44.196  49.572  1.00  0.00     0.256 C 
BRANCH  12  13
HETATM   13  N   UNL     1      22.062  45.295  48.722  1.00  0.00    -0.066 N 
HETATM   14  C   UNL     1      20.547  45.407  48.872  1.00  0.00     0.254 C 
HETATM   15  C   UNL     1      20.000  46.573  48.022  1.00  0.00     0.153 C 
HETATM   16  N   UNL     1      20.673  47.827  48.391  1.00  0.00    -0.355 N 
HETATM   17  C   UNL     1      22.129  47.765  48.192  1.00  0.00     0.153 C 
HETATM   18  C   UNL     1      22.773  46.620  48.987  1.00  0.00     0.254 C 
HETATM   19  H   UNL     1      22.248  45.002  47.745  1.00  0.00     0.280 HD
BRANCH  16  20
HETATM   20  C   UNL     1      20.091  48.632  49.387  1.00  0.00     0.169 C 
HETATM   21  S   UNL     1      18.543  48.415  49.986  1.00  0.00    -0.041 SA
BRANCH  20  22
HETATM   22  N   UNL     1      20.949  49.640  49.783  1.00  0.00    -0.367 N 
HETATM   23  H   UNL     1      21.643  49.327  50.450  1.00  0.00     0.161 HD
BRANCH  22  24
HETATM   24  C   UNL     1      20.594  51.055  49.890  1.00  0.00     0.117 C 
HETATM   25  C   UNL     1      20.303  51.655  48.527  1.00  0.00     0.026 C 
ENDBRANCH  22  24
ENDBRANCH  20  22
ENDBRANCH  16  20
ENDBRANCH  12  13
ENDBRANCH  11  12
ENDBRANCH   9  11
ENDBRANCH   1   8
BRANCH   6  26
HETATM   26  C   UNL     1      27.688  41.320  50.308  1.00  0.00     0.430 C 
HETATM   27  F   UNL     1      28.683  40.430  50.562  1.00  0.00    -0.165 F 
HETATM   28  F   UNL     1      26.528  40.596  50.361  1.00  0.00    -0.165 F 
HETATM   29  F   UNL     1      27.835  41.718  49.020  1.00  0.00    -0.165 F 
ENDBRANCH   6  26
BRANCH   4  30
HETATM   30  C   UNL     1      29.005  43.953  54.256  1.00  0.00     0.192 A 
HETATM   31  S   UNL     1      30.324  43.000  54.763  1.00  0.00    -0.048 SA
HETATM   32  C   UNL     1      30.539  44.009  56.136  1.00  0.00     0.037 A 
HETATM   33  C   UNL     1      29.592  45.034  56.093  1.00  0.00     0.076 A 
HETATM   34  C   UNL     1      31.474  43.900  57.178  1.00  0.00     0.021 A 
HETATM   35  N   UNL     1      28.736  45.004  54.999  1.00  0.00    -0.222 NA
HETATM   36  C   UNL     1      29.577  45.983  57.136  1.00  0.00     0.033 A 
HETATM   37  C   UNL     1      30.498  45.879  58.184  1.00  0.00     0.002 A 
HETATM   38  C   UNL     1      31.435  44.850  58.202  1.00  0.00     0.002 A 
ENDBRANCH   4  30
TORSDOF 9
ENDMDL
MODEL 3
REMARK VINA RESULT:      -8.9      1.795      2.617
REMARK  9 active torsions:
REMARK  status: ('A' for Active; 'I' for Inactive)
REMARK    1  A    between atoms: C_2  and  N_3 
REMARK    2  A    between atoms: N_3  and  C_4 
REMARK    3  A    between atoms: C_4  and  N_5 
REMARK    4  A    between atoms: N_8  and  C_10 
REMARK    5  A    between atoms: C_10  and  C_11 
REMARK    6  A    between atoms: C_11  and  N_12 
REMARK    7  A    between atoms: C_13  and  C_14 
REMARK    8  A    between atoms: N_17  and  C_18 
REMARK    9  A    between atoms: C_28  and  C_29 
ROOT
HETATM    1  C   UNL     1      25.946  46.461  51.377  1.00  0.00     0.085 C 
HETATM    2  C   UNL     1      26.716  46.794  52.621  1.00  0.00     0.278 C 
HETATM    3  O   UNL     1      26.848  47.934  53.030  1.00  0.00    -0.265 OA
HETATM    4  N   UNL     1      27.146  45.585  53.149  1.00  0.00    -0.212 N 
HETATM    5  N   UNL     1      26.733  44.553  52.309  1.00  0.00    -0.189 NA
HETATM    6  C   UNL     1      25.936  45.114  51.311  1.00  0.00     0.130 C 
HETATM    7  H   UNL     1      26.406  43.700  52.770  1.00  0.00     0.153 HD
ENDROOT
BRANCH   1   8
HETATM    8  C   UNL     1      25.356  47.434  50.419  1.00  0.00     0.042 C 
HETATM    9  N   UNL     1      24.066  47.574  50.371  1.00  0.00    -0.292 NA
HETATM   10  C   UNL     1      26.331  48.214  49.552  1.00  0.00     0.071 C 
BRANCH   9  11
HETATM   11  C   UNL     1      23.495  48.503  49.386  1.00  0.00     0.176 C 
BRANCH  11  12
HETATM   12  C   UNL     1      22.187  47.916  48.840  1.00  0.00     0.256 C 
BRANCH  12  13
HETATM   13  N   UNL     1      20.989  48.452  49.599  1.00  0.00    -0.066 N 
HETATM   14  C   UNL     1      20.902  49.977  49.590  1.00  0.00     0.254 C 
HETATM   15  C   UNL     1      19.638  50.455  50.333  1.00  0.00     0.153 C 
HETATM   16  N   UNL     1      18.440  49.844  49.740  1.00  0.00    -0.355 N 
HETATM   17  C   UNL     1      18.470  48.374  49.797  1.00  0.00     0.153 C 
HETATM   18  C   UNL     1      19.707  47.794  49.094  1.00  0.00     0.254 C 
HETATM   19  H   UNL     1      21.151  48.164  50.582  1.00  0.00     0.280 HD
BRANCH  16  20
HETATM   20  C   UNL     1      17.773  50.536  48.713  1.00  0.00     0.169 C 
HETATM   21  S   UNL     1      18.346  50.676  47.146  1.00  0.00    -0.041 SA
BRANCH  20  22
HETATM   22  N   UNL     1      16.603  51.111  49.171  1.00  0.00    -0.367 N 
HETATM   23  H   UNL     1      15.801  50.885  48.595  1.00  0.00     0.161 HD
BRANCH  22  24
HETATM   24  C   UNL     1      16.510  52.391  49.871  1.00  0.00     0.117 C 
HETATM   25  C   UNL     1      15.119  52.986  49.752  1.00  0.00     0.026 C 
ENDBRANCH  22  24
ENDBRANCH  20  22
ENDBRANCH  16  20
ENDBRANCH  12  13
ENDBRANCH  11  12
ENDBRANCH   9  11
ENDBRANCH   1   8
BRANCH   6  26
HETATM   26  C   UNL     1      25.208  44.266  50.307  1.00  0.00     0.430 C 
HETATM   27  F   UNL     1      25.467  42.944  50.490  1.00  0.00    -0.165 F 
HETATM   28  F   UNL     1      23.849  44.388  50.388  1.00  0.00    -0.165 F 
HETATM   29  F   UNL     1      25.546  44.560  49.027  1.00  0.00    -0.165 F 
ENDBRANCH   6  26
BRANCH   4  30
HETATM   30  C   UNL     1      27.976  45.364  54.230  1.00  0.00     0.192 A 
HETATM   31  S   UNL     1      27.868  46.345  55.621  1.00  0.00    -0.048 SA
HETATM   32  C   UNL     1      29.183  45.499  56.332  1.00  0.00     0.037 A 
HETATM   33  C   UNL     1      29.598  44.495  55.455  1.00  0.00     0.076 A 
HETATM   34  C   UNL     1      29.807  45.712  57.572  1.00  0.00     0.021 A 
HETATM   35  N   UNL     1      28.883  44.413  54.267  1.00  0.00    -0.222 NA
HETATM   36  C   UNL     1      30.682  43.675  55.833  1.00  0.00     0.033 A 
HETATM   37  C   UNL     1      31.316  43.883  57.062  1.00  0.00     0.002 A 
HETATM   38  C   UNL     1      30.881  44.888  57.920  1.00  0.00     0.002 A 
ENDBRANCH   4  30
TORSDOF 9
ENDMDL
MODEL 4
REMARK VINA RESULT:      -8.6      2.404     10.887
REMARK  9 active torsions:
REMARK  status: ('A' for Active; 'I' for Inactive)
REMARK    1  A    between atoms: C_2  and  N_3 
REMARK    2  A    between atoms: N_3  and  C_4 
REMARK    3  A    between atoms: C_4  and  N_5 
REMARK    4  A    between atoms: N_8  and  C_10 
REMARK    5  A    between atoms: C_10  and  C_11 
REMARK    6  A    between atoms: C_11  and  N_12 
REMARK    7  A    between atoms: C_13  and  C_14 
REMARK    8  A    between atoms: N_17  and  C_18 
REMARK    9  A    between atoms: C_28  and  C_29 
ROOT
HETATM    1  C   UNL     1      24.127  46.422  49.508  1.00  0.00     0.085 C 
HETATM    2  C   UNL     1      22.712  46.806  49.185  1.00  0.00     0.278 C 
HETATM    3  O   UNL     1      21.812  45.991  49.091  1.00  0.00    -0.265 OA
HETATM    4  N   UNL     1      22.699  48.190  49.082  1.00  0.00    -0.212 N 
HETATM    5  N   UNL     1      23.992  48.670  49.279  1.00  0.00    -0.189 NA
HETATM    6  C   UNL     1      24.797  47.587  49.626  1.00  0.00     0.130 C 
HETATM    7  H   UNL     1      24.074  49.532  49.826  1.00  0.00     0.153 HD
ENDROOT
BRANCH   1   8
HETATM    8  C   UNL     1      24.656  45.038  49.635  1.00  0.00     0.042 C 
HETATM    9  N   UNL     1      25.141  44.646  50.774  1.00  0.00    -0.292 NA
HETATM   10  C   UNL     1      24.583  44.164  48.394  1.00  0.00     0.071 C 
BRANCH   9  11
HETATM   11  C   UNL     1      25.705  43.293  50.872  1.00  0.00     0.176 C 
BRANCH  11  12
HETATM   12  C   UNL     1      27.236  43.387  50.913  1.00  0.00     0.256 C 
BRANCH  12  13
HETATM   13  N   UNL     1      27.769  43.028  52.286  1.00  0.00    -0.066 N 
HETATM   14  C   UNL     1      29.250  43.351  52.462  1.00  0.00     0.254 C 
HETATM   15  C   UNL     1      29.716  43.010  53.892  1.00  0.00     0.153 C 
HETATM   16  N   UNL     1      28.889  43.720  54.878  1.00  0.00    -0.355 N 
HETATM   17  C   UNL     1      27.462  43.373  54.771  1.00  0.00     0.153 C 
HETATM   18  C   UNL     1      26.901  43.662  53.371  1.00  0.00     0.254 C 
HETATM   19  H   UNL     1      27.676  41.996  52.340  1.00  0.00     0.280 HD
BRANCH  16  20
HETATM   20  C   UNL     1      29.317  44.982  55.327  1.00  0.00     0.169 C 
HETATM   21  S   UNL     1      28.422  46.388  55.175  1.00  0.00    -0.041 SA
BRANCH  20  22
HETATM   22  N   UNL     1      30.581  44.916  55.882  1.00  0.00    -0.367 N 
HETATM   23  H   UNL     1      31.306  44.760  55.192  1.00  0.00     0.161 HD
BRANCH  22  24
HETATM   24  C   UNL     1      30.890  44.408  57.217  1.00  0.00     0.117 C 
HETATM   25  C   UNL     1      31.957  43.330  57.165  1.00  0.00     0.026 C 
ENDBRANCH  22  24
ENDBRANCH  20  22
ENDBRANCH  16  20
ENDBRANCH  12  13
ENDBRANCH  11  12
ENDBRANCH   9  11
ENDBRANCH   1   8
BRANCH   6  26
HETATM   26  C   UNL     1      26.229  47.763  50.042  1.00  0.00     0.430 C 
HETATM   27  F   UNL     1      26.389  47.558  51.376  1.00  0.00    -0.165 F 
HETATM   28  F   UNL     1      27.078  46.882  49.432  1.00  0.00    -0.165 F 
HETATM   29  F   UNL     1      26.706  49.005  49.775  1.00  0.00    -0.165 F 
ENDBRANCH   6  26
BRANCH   4  30
HETATM   30  C   UNL     1      21.658  49.015  48.700  1.00  0.00     0.192 A 
HETATM   31  S   UNL     1      20.704  48.632  47.340  1.00  0.00    -0.048 SA
HETATM   32  C   UNL     1      19.814  50.087  47.543  1.00  0.00     0.037 A 
HETATM   33  C   UNL     1      20.298  50.757  48.669  1.00  0.00     0.076 A 
HETATM   34  C   UNL     1      18.768  50.603  46.761  1.00  0.00     0.021 A 
HETATM   35  N   UNL     1      21.337  50.120  49.336  1.00  0.00    -0.222 NA
HETATM   36  C   UNL     1      19.715  51.991  49.022  1.00  0.00     0.033 A 
HETATM   37  C   UNL     1      18.677  52.518  48.246  1.00  0.00     0.002 A 
HETATM   38  C   UNL     1      18.211  51.830  47.130  1.00  0.00     0.002 A 
ENDBRANCH   4  30
TORSDOF 9
ENDMDL
MODEL 5
REMARK VINA RESULT:      -8.6      1.761      2.277
REMARK  9 active torsions:
REMARK  status: ('A' for Active; 'I' for Inactive)
REMARK    1  A    between atoms: C_2  and  N_3 
REMARK    2  A    between atoms: N_3  and  C_4 
REMARK    3  A    between atoms: C_4  and  N_5 
REMARK    4  A    between atoms: N_8  and  C_10 
REMARK    5  A    between atoms: C_10  and  C_11 
REMARK    6  A    between atoms: C_11  and  N_12 
REMARK    7  A    between atoms: C_13  and  C_14 
REMARK    8  A    between atoms: N_17  and  C_18 
REMARK    9  A    between atoms: C_28  and  C_29 
ROOT
HETATM    1  C   UNL     1      24.959  44.068  50.543  1.00  0.00     0.085 C 
HETATM    2  C   UNL     1      25.603  44.572  51.801  1.00  0.00     0.278 C 
HETATM    3  O   UNL     1      25.127  45.471  52.471  1.00  0.00    -0.265 OA
HETATM    4  N   UNL     1      26.732  43.790  52.001  1.00  0.00    -0.212 N 
HETATM    5  N   UNL     1      26.845  42.883  50.950  1.00  0.00    -0.189 NA
HETATM    6  C   UNL     1      25.712  43.019  50.150  1.00  0.00     0.130 C 
HETATM    7  H   UNL     1      27.153  41.939  51.201  1.00  0.00     0.153 HD
ENDROOT
BRANCH   1   8
HETATM    8  C   UNL     1      23.762  44.644  49.874  1.00  0.00     0.042 C 
HETATM    9  N   UNL     1      23.877  45.759  49.219  1.00  0.00    -0.292 NA
HETATM   10  C   UNL     1      22.465  43.863  50.007  1.00  0.00     0.071 C 
BRANCH   9  11
HETATM   11  C   UNL     1      22.677  46.342  48.604  1.00  0.00     0.176 C 
BRANCH  11  12
HETATM   12  C   UNL     1      22.808  47.871  48.595  1.00  0.00     0.256 C 
BRANCH  12  13
HETATM   13  N   UNL     1      21.738  48.516  49.454  1.00  0.00    -0.066 N 
HETATM   14  C   UNL     1      21.735  50.040  49.371  1.00  0.00     0.254 C 
HETATM   15  C   UNL     1      20.594  50.630  50.225  1.00  0.00     0.153 C 
HETATM   16  N   UNL     1      19.303  50.065  49.807  1.00  0.00    -0.355 N 
HETATM   17  C   UNL     1      19.259  48.601  49.940  1.00  0.00     0.153 C 
HETATM   18  C   UNL     1      20.371  47.913  49.135  1.00  0.00     0.254 C 
HETATM   19  H   UNL     1      21.998  48.266  50.426  1.00  0.00     0.280 HD
BRANCH  16  20
HETATM   20  C   UNL     1      18.561  50.747  48.825  1.00  0.00     0.169 C 
HETATM   21  S   UNL     1      18.798  52.350  48.410  1.00  0.00    -0.041 SA
BRANCH  20  22
HETATM   22  N   UNL     1      17.592  49.931  48.272  1.00  0.00    -0.367 N 
HETATM   23  H   UNL     1      17.973  49.244  47.633  1.00  0.00     0.161 HD
BRANCH  22  24
HETATM   24  C   UNL     1      16.215  50.332  47.986  1.00  0.00     0.117 C 
HETATM   25  C   UNL     1      15.371  49.146  47.557  1.00  0.00     0.026 C 
ENDBRANCH  22  24
ENDBRANCH  20  22
ENDBRANCH  16  20
ENDBRANCH  12  13
ENDBRANCH  11  12
ENDBRANCH   9  11
ENDBRANCH   1   8
BRANCH   6  26
HETATM   26  C   UNL     1      25.439  42.096  48.997  1.00  0.00     0.430 C 
HETATM   27  F   UNL     1      24.606  41.084  49.356  1.00  0.00    -0.165 F 
HETATM   28  F   UNL     1      24.825  42.719  47.945  1.00  0.00    -0.165 F 
HETATM   29  F   UNL     1      26.565  41.524  48.502  1.00  0.00    -0.165 F 
ENDBRANCH   6  26
BRANCH   4  30
HETATM   30  C   UNL     1      27.713  43.925  52.964  1.00  0.00     0.192 A 
HETATM   31  S   UNL     1      28.896  42.716  53.173  1.00  0.00    -0.048 SA
HETATM   32  C   UNL     1      29.569  43.587  54.492  1.00  0.00     0.037 A 
HETATM   33  C   UNL     1      28.848  44.770  54.663  1.00  0.00     0.076 A 
HETATM   34  C   UNL     1      30.651  43.246  55.319  1.00  0.00     0.021 A 
HETATM   35  N   UNL     1      27.804  44.963  53.766  1.00  0.00    -0.222 NA
HETATM   36  C   UNL     1      29.222  45.644  55.705  1.00  0.00     0.033 A 
HETATM   37  C   UNL     1      30.293  45.310  56.541  1.00  0.00     0.002 A 
HETATM   38  C   UNL     1      30.998  44.126  56.348  1.00  0.00     0.002 A 
ENDBRANCH   4  30
TORSDOF 9
ENDMDL
MODEL 6
REMARK VINA RESULT:      -8.5      2.563     10.592
REMARK  9 active torsions:
REMARK  status: ('A' for Active; 'I' for Inactive)
REMARK    1  A    between atoms: C_2  and  N_3 
REMARK    2  A    between atoms: N_3  and  C_4 
REMARK    3  A    between atoms: C_4  and  N_5 
REMARK    4  A    between atoms: N_8  and  C_10 
REMARK    5  A    between atoms: C_10  and  C_11 
REMARK    6  A    between atoms: C_11  and  N_12 
REMARK    7  A    between atoms: C_13  and  C_14 
REMARK    8  A    between atoms: N_17  and  C_18 
REMARK    9  A    between atoms: C_28  and  C_29 
ROOT
HETATM    1  C   UNL     1      23.497  46.327  49.311  1.00  0.00     0.085 C 
HETATM    2  C   UNL     1      22.172  46.906  48.910  1.00  0.00     0.278 C 
HETATM    3  O   UNL     1      21.202  46.216  48.651  1.00  0.00    -0.265 OA
HETATM    4  N   UNL     1      22.319  48.286  48.958  1.00  0.00    -0.212 N 
HETATM    5  N   UNL     1      23.630  48.588  49.318  1.00  0.00    -0.189 NA
HETATM    6  C   UNL     1      24.275  47.388  49.613  1.00  0.00     0.130 C 
HETATM    7  H   UNL     1      23.751  49.376  49.960  1.00  0.00     0.153 HD
ENDROOT
BRANCH   1   8
HETATM    8  C   UNL     1      23.858  44.885  49.332  1.00  0.00     0.042 C 
HETATM    9  N   UNL     1      24.054  44.296  50.473  1.00  0.00    -0.292 NA
HETATM   10  C   UNL     1      23.969  44.190  47.985  1.00  0.00     0.071 C 
BRANCH   9  11
HETATM   11  C   UNL     1      24.457  42.884  50.477  1.00  0.00     0.176 C 
BRANCH  11  12
HETATM   12  C   UNL     1      25.975  42.794  50.687  1.00  0.00     0.256 C 
BRANCH  12  13
HETATM   13  N   UNL     1      26.312  42.578  52.149  1.00  0.00    -0.066 N 
HETATM   14  C   UNL     1      27.699  41.976  52.366  1.00  0.00     0.254 C 
HETATM   15  C   UNL     1      27.999  41.828  53.871  1.00  0.00     0.153 C 
HETATM   16  N   UNL     1      27.865  43.128  54.544  1.00  0.00    -0.355 N 
HETATM   17  C   UNL     1      26.515  43.698  54.405  1.00  0.00     0.153 C 
HETATM   18  C   UNL     1      26.111  43.872  52.934  1.00  0.00     0.254 C 
HETATM   19  H   UNL     1      25.623  41.875  52.474  1.00  0.00     0.280 HD
BRANCH  16  20
HETATM   20  C   UNL     1      29.007  43.939  54.668  1.00  0.00     0.169 C 
HETATM   21  S   UNL     1      30.532  43.365  55.049  1.00  0.00    -0.041 SA
BRANCH  20  22
HETATM   22  N   UNL     1      28.701  45.272  54.465  1.00  0.00    -0.367 N 
HETATM   23  H   UNL     1      29.109  45.645  53.617  1.00  0.00     0.161 HD
BRANCH  22  24
HETATM   24  C   UNL     1      28.487  46.258  55.523  1.00  0.00     0.117 C 
HETATM   25  C   UNL     1      27.679  47.440  55.022  1.00  0.00     0.026 C 
ENDBRANCH  22  24
ENDBRANCH  20  22
ENDBRANCH  16  20
ENDBRANCH  12  13
ENDBRANCH  11  12
ENDBRANCH   9  11
ENDBRANCH   1   8
BRANCH   6  26
HETATM   26  C   UNL     1      25.670  47.352  50.169  1.00  0.00     0.430 C 
HETATM   27  F   UNL     1      26.433  46.418  49.542  1.00  0.00    -0.165 F 
HETATM   28  F   UNL     1      26.339  48.535  50.014  1.00  0.00    -0.165 F 
HETATM   29  F   UNL     1      25.702  47.062  51.494  1.00  0.00    -0.165 F 
ENDBRANCH   6  26
BRANCH   4  30
HETATM   30  C   UNL     1      21.417  49.261  48.579  1.00  0.00     0.192 A 
HETATM   31  S   UNL     1      21.217  50.669  49.518  1.00  0.00    -0.048 SA
HETATM   32  C   UNL     1      19.977  51.211  48.460  1.00  0.00     0.037 A 
HETATM   33  C   UNL     1      19.822  50.277  47.434  1.00  0.00     0.076 A 
HETATM   34  C   UNL     1      19.194  52.375  48.535  1.00  0.00     0.021 A 
HETATM   35  N   UNL     1      20.669  49.177  47.501  1.00  0.00    -0.222 NA
HETATM   36  C   UNL     1      18.842  50.514  46.448  1.00  0.00     0.033 A 
HETATM   37  C   UNL     1      18.051  51.666  46.517  1.00  0.00     0.002 A 
HETATM   38  C   UNL     1      18.227  52.583  47.548  1.00  0.00     0.002 A 
ENDBRANCH   4  30
TORSDOF 9
ENDMDL
MODEL 7
REMARK VINA RESULT:      -8.5      3.590      5.148
REMARK  9 active torsions:
REMARK  status: ('A' for Active; 'I' for Inactive)
REMARK    1  A    between atoms: C_2  and  N_3 
REMARK    2  A    between atoms: N_3  and  C_4 
REMARK    3  A    between atoms: C_4  and  N_5 
REMARK    4  A    between atoms: N_8  and  C_10 
REMARK    5  A    between atoms: C_10  and  C_11 
REMARK    6  A    between atoms: C_11  and  N_12 
REMARK    7  A    between atoms: C_13  and  C_14 
REMARK    8  A    between atoms: N_17  and  C_18 
REMARK    9  A    between atoms: C_28  and  C_29 
ROOT
HETATM    1  C   UNL     1      23.591  47.623  49.026  1.00  0.00     0.085 C 
HETATM    2  C   UNL     1      24.071  46.362  49.683  1.00  0.00     0.278 C 
HETATM    3  O   UNL     1      23.437  45.322  49.657  1.00  0.00    -0.265 OA
HETATM    4  N   UNL     1      25.315  46.653  50.224  1.00  0.00    -0.212 N 
HETATM    5  N   UNL     1      25.610  47.993  49.982  1.00  0.00    -0.189 NA
HETATM    6  C   UNL     1      24.595  48.511  49.179  1.00  0.00     0.130 C 
HETATM    7  H   UNL     1      26.581  48.202  49.734  1.00  0.00     0.153 HD
ENDROOT
BRANCH   1   8
HETATM    8  C   UNL     1      22.270  47.830  48.377  1.00  0.00     0.042 C 
HETATM    9  N   UNL     1      22.004  47.212  47.267  1.00  0.00    -0.292 NA
HETATM   10  C   UNL     1      21.304  48.769  49.082  1.00  0.00     0.071 C 
BRANCH   9  11
HETATM   11  C   UNL     1      20.713  47.463  46.611  1.00  0.00     0.176 C 
BRANCH  11  12
HETATM   12  C   UNL     1      19.623  46.643  47.314  1.00  0.00     0.256 C 
BRANCH  12  13
HETATM   13  N   UNL     1      18.284  47.351  47.256  1.00  0.00    -0.066 N 
HETATM   14  C   UNL     1      17.577  47.419  48.608  1.00  0.00     0.254 C 
HETATM   15  C   UNL     1      16.249  48.193  48.490  1.00  0.00     0.153 C 
HETATM   16  N   UNL     1      16.492  49.535  47.942  1.00  0.00    -0.355 N 
HETATM   17  C   UNL     1      17.113  49.495  46.608  1.00  0.00     0.153 C 
HETATM   18  C   UNL     1      18.443  48.727  46.614  1.00  0.00     0.254 C 
HETATM   19  H   UNL     1      17.700  46.756  46.639  1.00  0.00     0.280 HD
BRANCH  16  20
HETATM   20  C   UNL     1      16.721  50.594  48.839  1.00  0.00     0.169 C 
HETATM   21  S   UNL     1      15.684  51.890  49.050  1.00  0.00    -0.041 SA
BRANCH  20  22
HETATM   22  N   UNL     1      17.926  50.441  49.500  1.00  0.00    -0.367 N 
HETATM   23  H   UNL     1      17.910  49.689  50.178  1.00  0.00     0.161 HD
BRANCH  22  24
HETATM   24  C   UNL     1      18.860  51.521  49.809  1.00  0.00     0.117 C 
HETATM   25  C   UNL     1      19.444  52.125  48.545  1.00  0.00     0.026 C 
ENDBRANCH  22  24
ENDBRANCH  20  22
ENDBRANCH  16  20
ENDBRANCH  12  13
ENDBRANCH  11  12
ENDBRANCH   9  11
ENDBRANCH   1   8
BRANCH   6  26
HETATM   26  C   UNL     1      24.663  49.900  48.612  1.00  0.00     0.430 C 
HETATM   27  F   UNL     1      23.902  50.769  49.329  1.00  0.00    -0.165 F 
HETATM   28  F   UNL     1      25.927  50.423  48.625  1.00  0.00    -0.165 F 
HETATM   29  F   UNL     1      24.233  49.966  47.327  1.00  0.00    -0.165 F 
ENDBRANCH   6  26
BRANCH   4  30
HETATM   30  C   UNL     1      26.118  45.855  51.016  1.00  0.00     0.192 A 
HETATM   31  S   UNL     1      27.038  44.596  50.327  1.00  0.00    -0.048 SA
HETATM   32  C   UNL     1      27.594  44.136  51.885  1.00  0.00     0.037 A 
HETATM   33  C   UNL     1      27.051  45.007  52.832  1.00  0.00     0.076 A 
HETATM   34  C   UNL     1      28.443  43.077  52.246  1.00  0.00     0.021 A 
HETATM   35  N   UNL     1      26.227  46.001  52.318  1.00  0.00    -0.222 NA
HETATM   36  C   UNL     1      27.367  44.808  54.191  1.00  0.00     0.033 A 
HETATM   37  C   UNL     1      28.206  43.752  54.563  1.00  0.00     0.002 A 
HETATM   38  C   UNL     1      28.737  42.899  53.601  1.00  0.00     0.002 A 
ENDBRANCH   4  30
TORSDOF 9
ENDMDL
MODEL 8
REMARK VINA RESULT:      -8.4      3.476      5.034
REMARK  9 active torsions:
REMARK  status: ('A' for Active; 'I' for Inactive)
REMARK    1  A    between atoms: C_2  and  N_3 
REMARK    2  A    between atoms: N_3  and  C_4 
REMARK    3  A    between atoms: C_4  and  N_5 
REMARK    4  A    between atoms: N_8  and  C_10 
REMARK    5  A    between atoms: C_10  and  C_11 
REMARK    6  A    between atoms: C_11  and  N_12 
REMARK    7  A    between atoms: C_13  and  C_14 
REMARK    8  A    between atoms: N_17  and  C_18 
REMARK    9  A    between atoms: C_28  and  C_29 
ROOT
HETATM    1  C   UNL     1      23.121  46.865  49.184  1.00  0.00     0.085 C 
HETATM    2  C   UNL     1      23.894  45.836  49.955  1.00  0.00     0.278 C 
HETATM    3  O   UNL     1      23.694  44.639  49.841  1.00  0.00    -0.265 OA
HETATM    4  N   UNL     1      24.827  46.533  50.709  1.00  0.00    -0.212 N 
HETATM    5  N   UNL     1      24.657  47.898  50.488  1.00  0.00    -0.189 NA
HETATM    6  C   UNL     1      23.690  48.048  49.496  1.00  0.00     0.130 C 
HETATM    7  H   UNL     1      25.515  48.453  50.420  1.00  0.00     0.153 HD
ENDROOT
BRANCH   1   8
HETATM    8  C   UNL     1      21.956  46.610  48.295  1.00  0.00     0.042 C 
HETATM    9  N   UNL     1      20.775  46.996  48.671  1.00  0.00    -0.292 NA
HETATM   10  C   UNL     1      22.244  45.904  46.981  1.00  0.00     0.071 C 
BRANCH   9  11
HETATM   11  C   UNL     1      19.626  46.694  47.806  1.00  0.00     0.176 C 
BRANCH  11  12
HETATM   12  C   UNL     1      19.169  47.982  47.109  1.00  0.00     0.256 C 
BRANCH  12  13
HETATM   13  N   UNL     1      19.236  49.167  48.052  1.00  0.00    -0.066 N 
HETATM   14  C   UNL     1      19.389  50.504  47.331  1.00  0.00     0.254 C 
HETATM   15  C   UNL     1      19.401  51.670  48.340  1.00  0.00     0.153 C 
HETATM   16  N   UNL     1      18.184  51.638  49.165  1.00  0.00    -0.355 N 
HETATM   17  C   UNL     1      18.049  50.383  49.922  1.00  0.00     0.153 C 
HETATM   18  C   UNL     1      18.043  49.152  49.004  1.00  0.00     0.254 C 
HETATM   19  H   UNL     1      20.105  49.017  48.598  1.00  0.00     0.280 HD
BRANCH  16  20
HETATM   20  C   UNL     1      17.065  52.373  48.736  1.00  0.00     0.169 C 
HETATM   21  S   UNL     1      16.113  51.958  47.423  1.00  0.00    -0.041 SA
BRANCH  20  22
HETATM   22  N   UNL     1      16.871  53.496  49.518  1.00  0.00    -0.367 N 
HETATM   23  H   UNL     1      17.732  53.855  49.912  1.00  0.00     0.161 HD
BRANCH  22  24
HETATM   24  C   UNL     1      15.674  53.776  50.310  1.00  0.00     0.117 C 
HETATM   25  C   UNL     1      15.189  55.198  50.095  1.00  0.00     0.026 C 
ENDBRANCH  22  24
ENDBRANCH  20  22
ENDBRANCH  16  20
ENDBRANCH  12  13
ENDBRANCH  11  12
ENDBRANCH   9  11
ENDBRANCH   1   8
BRANCH   6  26
HETATM   26  C   UNL     1      23.354  49.391  48.912  1.00  0.00     0.430 C 
HETATM   27  F   UNL     1      23.121  49.308  47.576  1.00  0.00    -0.165 F 
HETATM   28  F   UNL     1      22.223  49.941  49.448  1.00  0.00    -0.165 F 
HETATM   29  F   UNL     1      24.345  50.302  49.084  1.00  0.00    -0.165 F 
ENDBRANCH   6  26
BRANCH   4  30
HETATM   30  C   UNL     1      25.703  46.045  51.659  1.00  0.00     0.192 A 
HETATM   31  S   UNL     1      25.870  46.823  53.167  1.00  0.00    -0.048 SA
HETATM   32  C   UNL     1      27.094  45.706  53.620  1.00  0.00     0.037 A 
HETATM   33  C   UNL     1      27.270  44.788  52.582  1.00  0.00     0.076 A 
HETATM   34  C   UNL     1      27.848  45.649  54.803  1.00  0.00     0.021 A 
HETATM   35  N   UNL     1      26.451  44.979  51.477  1.00  0.00    -0.222 NA
HETATM   36  C   UNL     1      28.241  43.777  52.734  1.00  0.00     0.033 A 
HETATM   37  C   UNL     1      29.004  43.715  53.906  1.00  0.00     0.002 A 
HETATM   38  C   UNL     1      28.807  44.641  54.926  1.00  0.00     0.002 A 
ENDBRANCH   4  30
TORSDOF 9
ENDMDL
MODEL 9
REMARK VINA RESULT:      -8.3      3.514      5.322
REMARK  9 active torsions:
REMARK  status: ('A' for Active; 'I' for Inactive)
REMARK    1  A    between atoms: C_2  and  N_3 
REMARK    2  A    between atoms: N_3  and  C_4 
REMARK    3  A    between atoms: C_4  and  N_5 
REMARK    4  A    between atoms: N_8  and  C_10 
REMARK    5  A    between atoms: C_10  and  C_11 
REMARK    6  A    between atoms: C_11  and  N_12 
REMARK    7  A    between atoms: C_13  and  C_14 
REMARK    8  A    between atoms: N_17  and  C_18 
REMARK    9  A    between atoms: C_28  and  C_29 
ROOT
HETATM    1  C   UNL     1      23.526  47.345  49.271  1.00  0.00     0.085 C 
HETATM    2  C   UNL     1      24.054  46.157  50.022  1.00  0.00     0.278 C 
HETATM    3  O   UNL     1      23.483  45.081  50.040  1.00  0.00    -0.265 OA
HETATM    4  N   UNL     1      25.258  46.556  50.584  1.00  0.00    -0.212 N 
HETATM    5  N   UNL     1      25.483  47.894  50.269  1.00  0.00    -0.189 NA
HETATM    6  C   UNL     1      24.470  48.300  49.402  1.00  0.00     0.130 C 
HETATM    7  H   UNL     1      26.449  48.147  50.041  1.00  0.00     0.153 HD
ENDROOT
BRANCH   1   8
HETATM    8  C   UNL     1      22.219  47.432  48.567  1.00  0.00     0.042 C 
HETATM    9  N   UNL     1      21.282  48.183  49.061  1.00  0.00    -0.292 NA
HETATM   10  C   UNL     1      22.077  46.621  47.290  1.00  0.00     0.071 C 
BRANCH   9  11
HETATM   11  C   UNL     1      19.979  48.223  48.383  1.00  0.00     0.176 C 
BRANCH  11  12
HETATM   12  C   UNL     1      18.877  47.870  49.389  1.00  0.00     0.256 C 
BRANCH  12  13
HETATM   13  N   UNL     1      17.759  48.893  49.356  1.00  0.00    -0.066 N 
HETATM   14  C   UNL     1      18.256  50.334  49.445  1.00  0.00     0.254 C 
HETATM   15  C   UNL     1      17.077  51.324  49.355  1.00  0.00     0.153 C 
HETATM   16  N   UNL     1      16.314  51.092  48.120  1.00  0.00    -0.355 N 
HETATM   17  C   UNL     1      15.767  49.728  48.042  1.00  0.00     0.153 C 
HETATM   18  C   UNL     1      16.866  48.660  48.139  1.00  0.00     0.254 C 
HETATM   19  H   UNL     1      17.210  48.709  50.217  1.00  0.00     0.280 HD
BRANCH  16  20
HETATM   20  C   UNL     1      16.665  51.821  46.969  1.00  0.00     0.169 C 
HETATM   21  S   UNL     1      17.841  51.346  45.877  1.00  0.00    -0.041 SA
BRANCH  20  22
HETATM   22  N   UNL     1      15.937  52.992  46.874  1.00  0.00    -0.367 N 
HETATM   23  H   UNL     1      16.144  53.647  47.617  1.00  0.00     0.161 HD
BRANCH  22  24
HETATM   24  C   UNL     1      14.587  53.102  46.323  1.00  0.00     0.117 C 
HETATM   25  C   UNL     1      14.328  52.032  45.278  1.00  0.00     0.026 C 
ENDBRANCH  22  24
ENDBRANCH  20  22
ENDBRANCH  16  20
ENDBRANCH  12  13
ENDBRANCH  11  12
ENDBRANCH   9  11
ENDBRANCH   1   8
BRANCH   6  26
HETATM   26  C   UNL     1      24.478  49.654  48.751  1.00  0.00     0.430 C 
HETATM   27  F   UNL     1      23.618  50.507  49.368  1.00  0.00    -0.165 F 
HETATM   28  F   UNL     1      25.699  50.266  48.801  1.00  0.00    -0.165 F 
HETATM   29  F   UNL     1      24.121  49.612  47.443  1.00  0.00    -0.165 F 
ENDBRANCH   6  26
BRANCH   4  30
HETATM   30  C   UNL     1      26.076  45.857  51.451  1.00  0.00     0.192 A 
HETATM   31  S   UNL     1      26.133  46.261  53.106  1.00  0.00    -0.048 SA
HETATM   32  C   UNL     1      27.338  45.065  53.367  1.00  0.00     0.037 A 
HETATM   33  C   UNL     1      27.594  44.414  52.159  1.00  0.00     0.076 A 
HETATM   34  C   UNL     1      28.013  44.732  54.553  1.00  0.00     0.021 A 
HETATM   35  N   UNL     1      26.848  44.861  51.076  1.00  0.00    -0.222 NA
HETATM   36  C   UNL     1      28.566  43.393  52.136  1.00  0.00     0.033 A 
HETATM   37  C   UNL     1      29.250  43.057  53.309  1.00  0.00     0.002 A 
HETATM   38  C   UNL     1      28.975  43.719  54.502  1.00  0.00     0.002 A 
ENDBRANCH   4  30
TORSDOF 9
ENDMDL
MODEL 10
REMARK VINA RESULT:      -8.2     13.198     14.172
REMARK  9 active torsions:
REMARK  status: ('A' for Active; 'I' for Inactive)
REMARK    1  A    between atoms: C_2  and  N_3 
REMARK    2  A    between atoms: N_3  and  C_4 
REMARK    3  A    between atoms: C_4  and  N_5 
REMARK    4  A    between atoms: N_8  and  C_10 
REMARK    5  A    between atoms: C_10  and  C_11 
REMARK    6  A    between atoms: C_11  and  N_12 
REMARK    7  A    between atoms: C_13  and  C_14 
REMARK    8  A    between atoms: N_17  and  C_18 
REMARK    9  A    between atoms: C_28  and  C_29 
ROOT
HETATM    1  C   UNL     1      34.225  51.235  42.283  1.00  0.00     0.085 C 
HETATM    2  C   UNL     1      35.686  51.578  42.280  1.00  0.00     0.278 C 
HETATM    3  O   UNL     1      36.397  51.430  41.302  1.00  0.00    -0.265 OA
HETATM    4  N   UNL     1      35.966  52.100  43.536  1.00  0.00    -0.212 N 
HETATM    5  N   UNL     1      34.807  52.065  44.308  1.00  0.00    -0.189 NA
HETATM    6  C   UNL     1      33.766  51.630  43.489  1.00  0.00     0.130 C 
HETATM    7  H   UNL     1      34.644  52.876  44.912  1.00  0.00     0.153 HD
ENDROOT
BRANCH   1   8
HETATM    8  C   UNL     1      33.474  50.571  41.184  1.00  0.00     0.042 C 
HETATM    9  N   UNL     1      32.941  51.299  40.250  1.00  0.00    -0.292 NA
HETATM   10  C   UNL     1      33.389  49.055  41.236  1.00  0.00     0.071 C 
BRANCH   9  11
HETATM   11  C   UNL     1      32.161  50.634  39.198  1.00  0.00     0.176 C 
BRANCH  11  12
HETATM   12  C   UNL     1      31.336  51.684  38.443  1.00  0.00     0.256 C 
BRANCH  12  13
HETATM   13  N   UNL     1      29.877  51.628  38.851  1.00  0.00    -0.066 N 
HETATM   14  C   UNL     1      29.178  50.342  38.417  1.00  0.00     0.254 C 
HETATM   15  C   UNL     1      27.715  50.325  38.905  1.00  0.00     0.153 C 
HETATM   16  N   UNL     1      27.665  50.500  40.364  1.00  0.00    -0.355 N 
HETATM   17  C   UNL     1      28.275  51.766  40.801  1.00  0.00     0.153 C 
HETATM   18  C   UNL     1      29.737  51.889  40.349  1.00  0.00     0.254 C 
HETATM   19  H   UNL     1      29.430  52.405  38.330  1.00  0.00     0.280 HD
BRANCH  16  20
HETATM   20  C   UNL     1      27.669  49.352  41.176  1.00  0.00     0.169 C 
HETATM   21  S   UNL     1      29.024  48.753  41.953  1.00  0.00    -0.041 SA
BRANCH  20  22
HETATM   22  N   UNL     1      26.417  48.767  41.225  1.00  0.00    -0.367 N 
HETATM   23  H   UNL     1      25.884  49.043  42.040  1.00  0.00     0.161 HD
BRANCH  22  24
HETATM   24  C   UNL     1      26.084  47.444  40.698  1.00  0.00     0.117 C 
HETATM   25  C   UNL     1      24.598  47.160  40.818  1.00  0.00     0.026 C 
ENDBRANCH  22  24
ENDBRANCH  20  22
ENDBRANCH  16  20
ENDBRANCH  12  13
ENDBRANCH  11  12
ENDBRANCH   9  11
ENDBRANCH   1   8
BRANCH   6  26
HETATM   26  C   UNL     1      32.342  51.604  43.963  1.00  0.00     0.430 C 
HETATM   27  F   UNL     1      31.819  50.351  43.903  1.00  0.00    -0.165 F 
HETATM   28  F   UNL     1      32.203  51.997  45.265  1.00  0.00    -0.165 F 
HETATM   29  F   UNL     1      31.528  52.405  43.230  1.00  0.00    -0.165 F 
ENDBRANCH   6  26
BRANCH   4  30
HETATM   30  C   UNL     1      37.190  52.467  44.062  1.00  0.00     0.192 A 
HETATM   31  S   UNL     1      37.792  54.045  43.835  1.00  0.00    -0.048 SA
HETATM   32  C   UNL     1      39.238  53.622  44.661  1.00  0.00     0.037 A 
HETATM   33  C   UNL     1      39.143  52.294  45.081  1.00  0.00     0.076 A 
HETATM   34  C   UNL     1      40.376  54.406  44.913  1.00  0.00     0.021 A 
HETATM   35  N   UNL     1      37.956  51.652  44.753  1.00  0.00    -0.222 NA
HETATM   36  C   UNL     1      40.231  51.727  45.777  1.00  0.00     0.033 A 
HETATM   37  C   UNL     1      41.373  52.496  46.028  1.00  0.00     0.002 A 
HETATM   38  C   UNL     1      41.442  53.818  45.601  1.00  0.00     0.002 A 
ENDBRANCH   4  30
TORSDOF 9
ENDMDL
