MODEL 1
REMARK VINA RESULT:      -9.4      0.000      0.000
REMARK  7 active torsions:
REMARK  status: ('A' for Active; 'I' for Inactive)
REMARK    1  A    between atoms: C_4  and  O_5 
REMARK    2  A    between atoms: O_5  and  C_6 
REMARK    3  A    between atoms: C_9  and  N_10 
REMARK       I    between atoms: N_10  and  C_11 
REMARK    4  A    between atoms: C_11  and  C_12 
REMARK    5  A    between atoms: C_12  and  C_13 
REMARK    6  A    between atoms: C_13  and  N_14 
REMARK       I    between atoms: N_14  and  C_15 
REMARK    7  A    between atoms: C_15  and  C_16 
ROOT
HETATM    1  N   UNL     1      24.572  45.620  50.531  1.00  0.00    -0.327 N 
HETATM    2  C   UNL     1      24.474  46.981  50.304  1.00  0.00     0.223 C 
HETATM    3  O   UNL     1      25.159  47.858  50.819  1.00  0.00    -0.273 OA
HETATM    4  H   UNL     1      23.903  45.027  50.056  1.00  0.00     0.169 HD
ENDROOT
BRANCH   1   5
HETATM    5  C   UNL     1      25.533  44.948  51.317  1.00  0.00     0.034 A 
HETATM    6  C   UNL     1      25.350  44.605  52.659  1.00  0.00     0.032 A 
HETATM    7  C   UNL     1      26.373  43.977  53.382  1.00  0.00     0.039 A 
HETATM    8  C   UNL     1      27.580  43.665  52.759  1.00  0.00     0.076 A 
HETATM    9  C   UNL     1      27.773  44.008  51.422  1.00  0.00     0.039 A 
HETATM   10  C   UNL     1      26.755  44.641  50.704  1.00  0.00     0.032 A 
BRANCH   8  11
HETATM   11  O   UNL     1      28.665  43.110  53.401  1.00  0.00    -0.311 OA
BRANCH  11  12
HETATM   12  C   UNL     1      29.225  43.784  54.458  1.00  0.00     0.076 A 
HETATM   13  C   UNL     1      30.242  43.242  55.249  1.00  0.00     0.044 A 
HETATM   14  C   UNL     1      30.814  44.000  56.279  1.00  0.00    -0.059 A 
HETATM   15  C   UNL     1      31.920  43.427  57.115  1.00  0.00     0.048 C 
HETATM   16  C   UNL     1      30.386  45.320  56.474  1.00  0.00     0.007 A 
HETATM   17  C   UNL     1      29.389  45.868  55.666  1.00  0.00     0.003 A 
HETATM   18  C   UNL     1      28.811  45.102  54.656  1.00  0.00     0.037 A 
ENDBRANCH  11  12
ENDBRANCH   8  11
ENDBRANCH   1   5
BRANCH   2  19
HETATM   19  C   UNL     1      23.388  47.339  49.309  1.00  0.00     0.123 C 
BRANCH  19  20
HETATM   20  C   UNL     1      23.556  48.799  48.907  1.00  0.00     0.132 C 
BRANCH  20  21
HETATM   21  N   UNL     1      22.297  49.506  48.792  1.00  0.00    -0.355 N 
HETATM   22  C   UNL     1      21.968  50.572  49.603  1.00  0.00     0.275 C 
HETATM   23  O   UNL     1      22.782  51.100  50.356  1.00  0.00    -0.265 OA
HETATM   24  H   UNL     1      21.538  49.089  48.262  1.00  0.00     0.162 HD
BRANCH  22  25
HETATM   25  C   UNL     1      20.585  50.991  49.492  1.00  0.00     0.142 A 
HETATM   26  O   UNL     1      19.646  50.447  50.332  1.00  0.00    -0.317 OA
HETATM   27  C   UNL     1      18.456  51.027  50.031  1.00  0.00     0.143 A 
HETATM   28  C   UNL     1      18.605  51.935  49.009  1.00  0.00     0.027 A 
HETATM   29  C   UNL     1      19.976  51.912  48.660  1.00  0.00     0.045 A 
ENDBRANCH  22  25
ENDBRANCH  20  21
ENDBRANCH  19  20
ENDBRANCH   2  19
TORSDOF 7
ENDMDL
MODEL 2
REMARK VINA RESULT:      -9.2      1.616      2.479
REMARK  7 active torsions:
REMARK  status: ('A' for Active; 'I' for Inactive)
REMARK    1  A    between atoms: C_4  and  O_5 
REMARK    2  A    between atoms: O_5  and  C_6 
REMARK    3  A    between atoms: C_9  and  N_10 
REMARK       I    between atoms: N_10  and  C_11 
REMARK    4  A    between atoms: C_11  and  C_12 
REMARK    5  A    between atoms: C_12  and  C_13 
REMARK    6  A    between atoms: C_13  and  N_14 
REMARK       I    between atoms: N_14  and  C_15 
REMARK    7  A    between atoms: C_15  and  C_16 
ROOT
HETATM    1  N   UNL     1      25.566  48.296  49.588  1.00  0.00    -0.327 N 
HETATM    2  C   UNL     1      24.284  48.631  49.195  1.00  0.00     0.223 C 
HETATM    3  O   UNL     1      23.278  47.938  49.316  1.00  0.00    -0.273 OA
HETATM    4  H   UNL     1      26.298  48.965  49.381  1.00  0.00     0.169 HD
ENDROOT
BRANCH   1   5
HETATM    5  C   UNL     1      25.975  47.143  50.293  1.00  0.00     0.034 A 
HETATM    6  C   UNL     1      26.570  46.029  49.697  1.00  0.00     0.032 A 
HETATM    7  C   UNL     1      26.906  44.903  50.463  1.00  0.00     0.039 A 
HETATM    8  C   UNL     1      26.671  44.896  51.836  1.00  0.00     0.076 A 
HETATM    9  C   UNL     1      26.073  46.003  52.438  1.00  0.00     0.039 A 
HETATM   10  C   UNL     1      25.731  47.121  51.672  1.00  0.00     0.032 A 
BRANCH   8  11
HETATM   11  O   UNL     1      26.905  43.817  52.659  1.00  0.00    -0.311 OA
BRANCH  11  12
HETATM   12  C   UNL     1      28.136  43.696  53.258  1.00  0.00     0.076 A 
HETATM   13  C   UNL     1      28.467  44.353  54.446  1.00  0.00     0.044 A 
HETATM   14  C   UNL     1      29.720  44.146  55.039  1.00  0.00    -0.059 A 
HETATM   15  C   UNL     1      30.070  44.834  56.326  1.00  0.00     0.048 C 
HETATM   16  C   UNL     1      30.612  43.239  54.453  1.00  0.00     0.007 A 
HETATM   17  C   UNL     1      30.267  42.564  53.280  1.00  0.00     0.003 A 
HETATM   18  C   UNL     1      29.028  42.790  52.685  1.00  0.00     0.037 A 
ENDBRANCH  11  12
ENDBRANCH   8  11
ENDBRANCH   1   5
BRANCH   2  19
HETATM   19  C   UNL     1      24.197  50.005  48.561  1.00  0.00     0.123 C 
BRANCH  19  20
HETATM   20  C   UNL     1      22.973  50.049  47.654  1.00  0.00     0.132 C 
BRANCH  20  21
HETATM   21  N   UNL     1      21.791  50.557  48.319  1.00  0.00    -0.355 N 
HETATM   22  C   UNL     1      20.519  50.129  47.999  1.00  0.00     0.275 C 
HETATM   23  O   UNL     1      20.315  49.172  47.256  1.00  0.00    -0.265 OA
HETATM   24  H   UNL     1      21.858  51.401  48.878  1.00  0.00     0.162 HD
BRANCH  22  25
HETATM   25  C   UNL     1      19.464  50.916  48.605  1.00  0.00     0.142 A 
HETATM   26  O   UNL     1      18.519  50.293  49.382  1.00  0.00    -0.317 OA
HETATM   27  C   UNL     1      17.676  51.257  49.836  1.00  0.00     0.143 A 
HETATM   28  C   UNL     1      18.056  52.492  49.366  1.00  0.00     0.027 A 
HETATM   29  C   UNL     1      19.206  52.274  48.571  1.00  0.00     0.045 A 
ENDBRANCH  22  25
ENDBRANCH  20  21
ENDBRANCH  19  20
ENDBRANCH   2  19
TORSDOF 7
ENDMDL
MODEL 3
REMARK VINA RESULT:      -9.1      1.251      2.017
REMARK  7 active torsions:
REMARK  status: ('A' for Active; 'I' for Inactive)
REMARK    1  A    between atoms: C_4  and  O_5 
REMARK    2  A    between atoms: O_5  and  C_6 
REMARK    3  A    between atoms: C_9  and  N_10 
REMARK       I    between atoms: N_10  and  C_11 
REMARK    4  A    between atoms: C_11  and  C_12 
REMARK    5  A    between atoms: C_12  and  C_13 
REMARK    6  A    between atoms: C_13  and  N_14 
REMARK       I    between atoms: N_14  and  C_15 
REMARK    7  A    between atoms: C_15  and  C_16 
ROOT
HETATM    1  N   UNL     1      24.079  46.213  49.885  1.00  0.00    -0.327 N 
HETATM    2  C   UNL     1      23.295  45.779  48.832  1.00  0.00     0.223 C 
HETATM    3  O   UNL     1      23.337  44.675  48.298  1.00  0.00    -0.273 OA
HETATM    4  H   UNL     1      23.950  47.171  50.188  1.00  0.00     0.169 HD
ENDROOT
BRANCH   1   5
HETATM    5  C   UNL     1      25.015  45.461  50.627  1.00  0.00     0.034 A 
HETATM    6  C   UNL     1      26.360  45.317  50.279  1.00  0.00     0.032 A 
HETATM    7  C   UNL     1      27.214  44.513  51.047  1.00  0.00     0.039 A 
HETATM    8  C   UNL     1      26.733  43.867  52.184  1.00  0.00     0.076 A 
HETATM    9  C   UNL     1      25.390  44.001  52.536  1.00  0.00     0.039 A 
HETATM   10  C   UNL     1      24.538  44.797  51.765  1.00  0.00     0.032 A 
BRANCH   8  11
HETATM   11  O   UNL     1      27.476  43.008  52.962  1.00  0.00    -0.311 OA
BRANCH  11  12
HETATM   12  C   UNL     1      28.402  43.533  53.830  1.00  0.00     0.076 A 
HETATM   13  C   UNL     1      28.139  44.643  54.638  1.00  0.00     0.044 A 
HETATM   14  C   UNL     1      29.105  45.099  55.544  1.00  0.00    -0.059 A 
HETATM   15  C   UNL     1      28.817  46.276  56.428  1.00  0.00     0.048 C 
HETATM   16  C   UNL     1      30.314  44.401  55.662  1.00  0.00     0.007 A 
HETATM   17  C   UNL     1      30.564  43.277  54.872  1.00  0.00     0.003 A 
HETATM   18  C   UNL     1      29.607  42.841  53.959  1.00  0.00     0.037 A 
ENDBRANCH  11  12
ENDBRANCH   8  11
ENDBRANCH   1   5
BRANCH   2  19
HETATM   19  C   UNL     1      22.314  46.829  48.350  1.00  0.00     0.123 C 
BRANCH  19  20
HETATM   20  C   UNL     1      22.618  48.144  49.058  1.00  0.00     0.132 C 
BRANCH  20  21
HETATM   21  N   UNL     1      21.600  49.152  48.847  1.00  0.00    -0.355 N 
HETATM   22  C   UNL     1      21.598  50.357  49.519  1.00  0.00     0.275 C 
HETATM   23  O   UNL     1      22.546  50.726  50.208  1.00  0.00    -0.265 OA
HETATM   24  H   UNL     1      20.742  48.900  48.366  1.00  0.00     0.162 HD
BRANCH  22  25
HETATM   25  C   UNL     1      20.382  51.125  49.347  1.00  0.00     0.142 A 
HETATM   26  O   UNL     1      19.408  51.073  50.313  1.00  0.00    -0.317 OA
HETATM   27  C   UNL     1      18.403  51.894  49.913  1.00  0.00     0.143 A 
HETATM   28  C   UNL     1      18.706  52.476  48.704  1.00  0.00     0.027 A 
HETATM   29  C   UNL     1      19.980  51.980  48.338  1.00  0.00     0.045 A 
ENDBRANCH  22  25
ENDBRANCH  20  21
ENDBRANCH  19  20
ENDBRANCH   2  19
TORSDOF 7
ENDMDL
MODEL 4
REMARK VINA RESULT:      -9.1      1.610      2.180
REMARK  7 active torsions:
REMARK  status: ('A' for Active; 'I' for Inactive)
REMARK    1  A    between atoms: C_4  and  O_5 
REMARK    2  A    between atoms: O_5  and  C_6 
REMARK    3  A    between atoms: C_9  and  N_10 
REMARK       I    between atoms: N_10  and  C_11 
REMARK    4  A    between atoms: C_11  and  C_12 
REMARK    5  A    between atoms: C_12  and  C_13 
REMARK    6  A    between atoms: C_13  and  N_14 
REMARK       I    between atoms: N_14  and  C_15 
REMARK    7  A    between atoms: C_15  and  C_16 
ROOT
HETATM    1  N   UNL     1      24.317  47.480  50.730  1.00  0.00    -0.327 N 
HETATM    2  C   UNL     1      24.930  48.093  49.653  1.00  0.00     0.223 C 
HETATM    3  O   UNL     1      26.123  48.044  49.367  1.00  0.00    -0.273 OA
HETATM    4  H   UNL     1      23.326  47.651  50.851  1.00  0.00     0.169 HD
ENDROOT
BRANCH   1   5
HETATM    5  C   UNL     1      24.902  46.598  51.664  1.00  0.00     0.034 A 
HETATM    6  C   UNL     1      25.760  46.997  52.691  1.00  0.00     0.032 A 
HETATM    7  C   UNL     1      26.335  46.051  53.550  1.00  0.00     0.039 A 
HETATM    8  C   UNL     1      26.036  44.697  53.402  1.00  0.00     0.076 A 
HETATM    9  C   UNL     1      25.184  44.290  52.376  1.00  0.00     0.039 A 
HETATM   10  C   UNL     1      24.617  45.234  51.515  1.00  0.00     0.032 A 
BRANCH   8  11
HETATM   11  O   UNL     1      26.600  43.690  54.152  1.00  0.00    -0.311 OA
BRANCH  11  12
HETATM   12  C   UNL     1      27.956  43.483  54.070  1.00  0.00     0.076 A 
HETATM   13  C   UNL     1      28.839  43.838  55.093  1.00  0.00     0.044 A 
HETATM   14  C   UNL     1      30.205  43.550  54.976  1.00  0.00    -0.059 A 
HETATM   15  C   UNL     1      31.152  43.911  56.082  1.00  0.00     0.048 C 
HETATM   16  C   UNL     1      30.663  42.862  53.844  1.00  0.00     0.007 A 
HETATM   17  C   UNL     1      29.774  42.486  52.836  1.00  0.00     0.003 A 
HETATM   18  C   UNL     1      28.420  42.793  52.951  1.00  0.00     0.037 A 
ENDBRANCH  11  12
ENDBRANCH   8  11
ENDBRANCH   1   5
BRANCH   2  19
HETATM   19  C   UNL     1      23.966  48.883  48.791  1.00  0.00     0.123 C 
BRANCH  19  20
HETATM   20  C   UNL     1      22.552  48.379  49.052  1.00  0.00     0.132 C 
BRANCH  20  21
HETATM   21  N   UNL     1      21.599  49.448  49.271  1.00  0.00    -0.355 N 
HETATM   22  C   UNL     1      20.243  49.286  49.066  1.00  0.00     0.275 C 
HETATM   23  O   UNL     1      19.738  48.188  48.851  1.00  0.00    -0.265 OA
HETATM   24  H   UNL     1      21.932  50.402  49.365  1.00  0.00     0.162 HD
BRANCH  22  25
HETATM   25  C   UNL     1      19.490  50.523  49.113  1.00  0.00     0.142 A 
HETATM   26  O   UNL     1      18.479  50.662  50.030  1.00  0.00    -0.317 OA
HETATM   27  C   UNL     1      17.965  51.910  49.873  1.00  0.00     0.143 A 
HETATM   28  C   UNL     1      18.623  52.581  48.869  1.00  0.00     0.027 A 
HETATM   29  C   UNL     1      19.605  51.688  48.378  1.00  0.00     0.045 A 
ENDBRANCH  22  25
ENDBRANCH  20  21
ENDBRANCH  19  20
ENDBRANCH   2  19
TORSDOF 7
ENDMDL
MODEL 5
REMARK VINA RESULT:      -8.8      2.040      2.913
REMARK  7 active torsions:
REMARK  status: ('A' for Active; 'I' for Inactive)
REMARK    1  A    between atoms: C_4  and  O_5 
REMARK    2  A    between atoms: O_5  and  C_6 
REMARK    3  A    between atoms: C_9  and  N_10 
REMARK       I    between atoms: N_10  and  C_11 
REMARK    4  A    between atoms: C_11  and  C_12 
REMARK    5  A    between atoms: C_12  and  C_13 
REMARK    6  A    between atoms: C_13  and  N_14 
REMARK       I    between atoms: N_14  and  C_15 
REMARK    7  A    between atoms: C_15  and  C_16 
ROOT
HETATM    1  N   UNL     1      25.471  45.679  51.271  1.00  0.00    -0.327 N 
HETATM    2  C   UNL     1      25.976  45.211  50.072  1.00  0.00     0.223 C 
HETATM    3  O   UNL     1      27.148  44.942  49.829  1.00  0.00    -0.273 OA
HETATM    4  H   UNL     1      24.481  45.893  51.298  1.00  0.00     0.169 HD
ENDROOT
BRANCH   1   5
HETATM    5  C   UNL     1      26.166  45.854  52.487  1.00  0.00     0.034 A 
HETATM    6  C   UNL     1      26.598  44.805  53.302  1.00  0.00     0.032 A 
HETATM    7  C   UNL     1      27.244  45.066  54.519  1.00  0.00     0.039 A 
HETATM    8  C   UNL     1      27.483  46.380  54.917  1.00  0.00     0.076 A 
HETATM    9  C   UNL     1      27.050  47.433  54.111  1.00  0.00     0.039 A 
HETATM   10  C   UNL     1      26.400  47.171  52.901  1.00  0.00     0.032 A 
BRANCH   8  11
HETATM   11  O   UNL     1      28.049  46.737  56.120  1.00  0.00    -0.311 OA
BRANCH  11  12
HETATM   12  C   UNL     1      29.023  45.932  56.658  1.00  0.00     0.076 A 
HETATM   13  C   UNL     1      29.766  45.028  55.893  1.00  0.00     0.044 A 
HETATM   14  C   UNL     1      30.786  44.274  56.489  1.00  0.00    -0.059 A 
HETATM   15  C   UNL     1      31.599  43.319  55.665  1.00  0.00     0.048 C 
HETATM   16  C   UNL     1      31.080  44.472  57.844  1.00  0.00     0.007 A 
HETATM   17  C   UNL     1      30.353  45.394  58.599  1.00  0.00     0.003 A 
HETATM   18  C   UNL     1      29.328  46.127  58.005  1.00  0.00     0.037 A 
ENDBRANCH  11  12
ENDBRANCH   8  11
ENDBRANCH   1   5
BRANCH   2  19
HETATM   19  C   UNL     1      24.912  45.040  49.005  1.00  0.00     0.123 C 
BRANCH  19  20
HETATM   20  C   UNL     1      23.565  45.447  49.589  1.00  0.00     0.132 C 
BRANCH  20  21
HETATM   21  N   UNL     1      23.008  46.629  48.965  1.00  0.00    -0.355 N 
HETATM   22  C   UNL     1      23.287  47.905  49.412  1.00  0.00     0.275 C 
HETATM   23  O   UNL     1      24.153  48.132  50.253  1.00  0.00    -0.265 OA
HETATM   24  H   UNL     1      22.224  46.534  48.327  1.00  0.00     0.162 HD
BRANCH  22  25
HETATM   25  C   UNL     1      22.459  48.932  48.812  1.00  0.00     0.142 A 
HETATM   26  O   UNL     1      21.126  48.684  48.599  1.00  0.00    -0.317 OA
HETATM   27  C   UNL     1      20.591  49.809  48.056  1.00  0.00     0.143 A 
HETATM   28  C   UNL     1      21.554  50.780  47.910  1.00  0.00     0.027 A 
HETATM   29  C   UNL     1      22.758  50.215  48.395  1.00  0.00     0.045 A 
ENDBRANCH  22  25
ENDBRANCH  20  21
ENDBRANCH  19  20
ENDBRANCH   2  19
TORSDOF 7
ENDMDL
MODEL 6
REMARK VINA RESULT:      -8.8      2.124     10.662
REMARK  7 active torsions:
REMARK  status: ('A' for Active; 'I' for Inactive)
REMARK    1  A    between atoms: C_4  and  O_5 
REMARK    2  A    between atoms: O_5  and  C_6 
REMARK    3  A    between atoms: C_9  and  N_10 
REMARK       I    between atoms: N_10  and  C_11 
REMARK    4  A    between atoms: C_11  and  C_12 
REMARK    5  A    between atoms: C_12  and  C_13 
REMARK    6  A    between atoms: C_13  and  N_14 
REMARK       I    between atoms: N_14  and  C_15 
REMARK    7  A    between atoms: C_15  and  C_16 
ROOT
HETATM    1  N   UNL     1      26.336  45.770  51.255  1.00  0.00    -0.327 N 
HETATM    2  C   UNL     1      27.124  44.716  50.829  1.00  0.00     0.223 C 
HETATM    3  O   UNL     1      27.228  44.300  49.680  1.00  0.00    -0.273 OA
HETATM    4  H   UNL     1      26.330  45.965  52.248  1.00  0.00     0.169 HD
ENDROOT
BRANCH   1   5
HETATM    5  C   UNL     1      25.567  46.645  50.457  1.00  0.00     0.034 A 
HETATM    6  C   UNL     1      24.255  46.391  50.053  1.00  0.00     0.032 A 
HETATM    7  C   UNL     1      23.575  47.292  49.221  1.00  0.00     0.039 A 
HETATM    8  C   UNL     1      24.199  48.468  48.808  1.00  0.00     0.076 A 
HETATM    9  C   UNL     1      25.511  48.727  49.202  1.00  0.00     0.039 A 
HETATM   10  C   UNL     1      26.190  47.824  50.025  1.00  0.00     0.032 A 
BRANCH   8  11
HETATM   11  O   UNL     1      23.640  49.380  47.941  1.00  0.00    -0.311 OA
BRANCH  11  12
HETATM   12  C   UNL     1      22.491  50.033  48.318  1.00  0.00     0.076 A 
HETATM   13  C   UNL     1      21.381  50.157  47.478  1.00  0.00     0.044 A 
HETATM   14  C   UNL     1      20.216  50.786  47.938  1.00  0.00    -0.059 A 
HETATM   15  C   UNL     1      19.016  50.902  47.046  1.00  0.00     0.048 C 
HETATM   16  C   UNL     1      20.165  51.244  49.262  1.00  0.00     0.007 A 
HETATM   17  C   UNL     1      21.267  51.095  50.106  1.00  0.00     0.003 A 
HETATM   18  C   UNL     1      22.428  50.486  49.635  1.00  0.00     0.037 A 
ENDBRANCH  11  12
ENDBRANCH   8  11
ENDBRANCH   1   5
BRANCH   2  19
HETATM   19  C   UNL     1      27.904  44.066  51.955  1.00  0.00     0.123 C 
BRANCH  19  20
HETATM   20  C   UNL     1      27.344  44.557  53.285  1.00  0.00     0.132 C 
BRANCH  20  21
HETATM   21  N   UNL     1      28.212  44.270  54.408  1.00  0.00    -0.355 N 
HETATM   22  C   UNL     1      28.936  45.251  55.055  1.00  0.00     0.275 C 
HETATM   23  O   UNL     1      28.763  46.447  54.837  1.00  0.00    -0.265 OA
HETATM   24  H   UNL     1      28.479  43.310  54.598  1.00  0.00     0.162 HD
BRANCH  22  25
HETATM   25  C   UNL     1      29.914  44.737  55.993  1.00  0.00     0.142 A 
HETATM   26  O   UNL     1      30.599  43.586  55.690  1.00  0.00    -0.317 OA
HETATM   27  C   UNL     1      31.457  43.349  56.716  1.00  0.00     0.143 A 
HETATM   28  C   UNL     1      31.339  44.323  57.680  1.00  0.00     0.027 A 
HETATM   29  C   UNL     1      30.344  45.217  57.216  1.00  0.00     0.045 A 
ENDBRANCH  22  25
ENDBRANCH  20  21
ENDBRANCH  19  20
ENDBRANCH   2  19
TORSDOF 7
ENDMDL
MODEL 7
REMARK VINA RESULT:      -8.7      2.341      3.764
REMARK  7 active torsions:
REMARK  status: ('A' for Active; 'I' for Inactive)
REMARK    1  A    between atoms: C_4  and  O_5 
REMARK    2  A    between atoms: O_5  and  C_6 
REMARK    3  A    between atoms: C_9  and  N_10 
REMARK       I    between atoms: N_10  and  C_11 
REMARK    4  A    between atoms: C_11  and  C_12 
REMARK    5  A    between atoms: C_12  and  C_13 
REMARK    6  A    between atoms: C_13  and  N_14 
REMARK       I    between atoms: N_14  and  C_15 
REMARK    7  A    between atoms: C_15  and  C_16 
ROOT
HETATM    1  N   UNL     1      26.021  42.491  51.306  1.00  0.00    -0.327 N 
HETATM    2  C   UNL     1      24.895  43.269  51.501  1.00  0.00     0.223 C 
HETATM    3  O   UNL     1      24.688  44.032  52.439  1.00  0.00    -0.273 OA
HETATM    4  H   UNL     1      26.022  41.880  50.498  1.00  0.00     0.169 HD
ENDROOT
BRANCH   1   5
HETATM    5  C   UNL     1      27.201  42.479  52.081  1.00  0.00     0.034 A 
HETATM    6  C   UNL     1      27.473  41.546  53.084  1.00  0.00     0.032 A 
HETATM    7  C   UNL     1      28.651  41.631  53.840  1.00  0.00     0.039 A 
HETATM    8  C   UNL     1      29.578  42.639  53.578  1.00  0.00     0.076 A 
HETATM    9  C   UNL     1      29.313  43.577  52.581  1.00  0.00     0.039 A 
HETATM   10  C   UNL     1      28.134  43.495  51.834  1.00  0.00     0.032 A 
BRANCH   8  11
HETATM   11  O   UNL     1      30.729  42.843  54.306  1.00  0.00    -0.311 OA
BRANCH  11  12
HETATM   12  C   UNL     1      30.670  43.632  55.429  1.00  0.00     0.076 A 
HETATM   13  C   UNL     1      29.720  44.643  55.595  1.00  0.00     0.044 A 
HETATM   14  C   UNL     1      29.675  45.378  56.788  1.00  0.00    -0.059 A 
HETATM   15  C   UNL     1      28.642  46.449  56.978  1.00  0.00     0.048 C 
HETATM   16  C   UNL     1      30.561  45.053  57.824  1.00  0.00     0.007 A 
HETATM   17  C   UNL     1      31.492  44.025  57.664  1.00  0.00     0.003 A 
HETATM   18  C   UNL     1      31.544  43.312  56.469  1.00  0.00     0.037 A 
ENDBRANCH  11  12
ENDBRANCH   8  11
ENDBRANCH   1   5
BRANCH   2  19
HETATM   19  C   UNL     1      23.863  43.105  50.402  1.00  0.00     0.123 C 
BRANCH  19  20
HETATM   20  C   UNL     1      24.379  43.785  49.141  1.00  0.00     0.132 C 
BRANCH  20  21
HETATM   21  N   UNL     1      23.761  45.070  48.893  1.00  0.00    -0.355 N 
HETATM   22  C   UNL     1      24.264  46.247  49.409  1.00  0.00     0.275 C 
HETATM   23  O   UNL     1      25.358  46.306  49.964  1.00  0.00    -0.265 OA
HETATM   24  H   UNL     1      22.817  45.106  48.522  1.00  0.00     0.162 HD
BRANCH  22  25
HETATM   25  C   UNL     1      23.383  47.385  49.246  1.00  0.00     0.142 A 
HETATM   26  O   UNL     1      23.740  48.598  49.782  1.00  0.00    -0.317 OA
HETATM   27  C   UNL     1      22.758  49.481  49.464  1.00  0.00     0.143 A 
HETATM   28  C   UNL     1      21.769  48.863  48.735  1.00  0.00     0.027 A 
HETATM   29  C   UNL     1      22.170  47.513  48.595  1.00  0.00     0.045 A 
ENDBRANCH  22  25
ENDBRANCH  20  21
ENDBRANCH  19  20
ENDBRANCH   2  19
TORSDOF 7
ENDMDL
MODEL 8
REMARK VINA RESULT:      -8.5      1.788     10.674
REMARK  7 active torsions:
REMARK  status: ('A' for Active; 'I' for Inactive)
REMARK    1  A    between atoms: C_4  and  O_5 
REMARK    2  A    between atoms: O_5  and  C_6 
REMARK    3  A    between atoms: C_9  and  N_10 
REMARK       I    between atoms: N_10  and  C_11 
REMARK    4  A    between atoms: C_11  and  C_12 
REMARK    5  A    between atoms: C_12  and  C_13 
REMARK    6  A    between atoms: C_13  and  N_14 
REMARK       I    between atoms: N_14  and  C_15 
REMARK    7  A    between atoms: C_15  and  C_16 
ROOT
HETATM    1  N   UNL     1      25.438  46.716  50.069  1.00  0.00    -0.327 N 
HETATM    2  C   UNL     1      25.708  46.589  51.419  1.00  0.00     0.223 C 
HETATM    3  O   UNL     1      25.357  47.357  52.309  1.00  0.00    -0.273 OA
HETATM    4  H   UNL     1      25.834  46.016  49.454  1.00  0.00     0.169 HD
ENDROOT
BRANCH   1   5
HETATM    5  C   UNL     1      24.629  47.689  49.442  1.00  0.00     0.034 A 
HETATM    6  C   UNL     1      25.064  48.973  49.104  1.00  0.00     0.032 A 
HETATM    7  C   UNL     1      24.183  49.896  48.524  1.00  0.00     0.039 A 
HETATM    8  C   UNL     1      22.865  49.532  48.256  1.00  0.00     0.076 A 
HETATM    9  C   UNL     1      22.421  48.254  48.595  1.00  0.00     0.039 A 
HETATM   10  C   UNL     1      23.299  47.337  49.180  1.00  0.00     0.032 A 
BRANCH   8  11
HETATM   11  O   UNL     1      21.911  50.386  47.750  1.00  0.00    -0.311 OA
BRANCH  11  12
HETATM   12  C   UNL     1      20.762  50.599  48.473  1.00  0.00     0.076 A 
HETATM   13  C   UNL     1      20.300  49.703  49.441  1.00  0.00     0.044 A 
HETATM   14  C   UNL     1      19.152  50.002  50.187  1.00  0.00    -0.059 A 
HETATM   15  C   UNL     1      18.666  49.052  51.241  1.00  0.00     0.048 C 
HETATM   16  C   UNL     1      18.504  51.228  49.982  1.00  0.00     0.007 A 
HETATM   17  C   UNL     1      18.984  52.132  49.032  1.00  0.00     0.003 A 
HETATM   18  C   UNL     1      20.114  51.819  48.281  1.00  0.00     0.037 A 
ENDBRANCH  11  12
ENDBRANCH   8  11
ENDBRANCH   1   5
BRANCH   2  19
HETATM   19  C   UNL     1      26.522  45.353  51.747  1.00  0.00     0.123 C 
BRANCH  19  20
HETATM   20  C   UNL     1      26.096  44.837  53.116  1.00  0.00     0.132 C 
BRANCH  20  21
HETATM   21  N   UNL     1      27.208  44.376  53.922  1.00  0.00    -0.355 N 
HETATM   22  C   UNL     1      28.040  45.242  54.602  1.00  0.00     0.275 C 
HETATM   23  O   UNL     1      27.794  46.441  54.710  1.00  0.00    -0.265 OA
HETATM   24  H   UNL     1      27.533  43.420  53.821  1.00  0.00     0.162 HD
BRANCH  22  25
HETATM   25  C   UNL     1      29.221  44.610  55.154  1.00  0.00     0.142 A 
HETATM   26  O   UNL     1      29.888  45.216  56.190  1.00  0.00    -0.317 OA
HETATM   27  C   UNL     1      30.927  44.408  56.523  1.00  0.00     0.143 A 
HETATM   28  C   UNL     1      30.948  43.291  55.722  1.00  0.00     0.027 A 
HETATM   29  C   UNL     1      29.850  43.421  54.838  1.00  0.00     0.045 A 
ENDBRANCH  22  25
ENDBRANCH  20  21
ENDBRANCH  19  20
ENDBRANCH   2  19
TORSDOF 7
ENDMDL
MODEL 9
REMARK VINA RESULT:      -8.4      2.059      2.366
REMARK  7 active torsions:
REMARK  status: ('A' for Active; 'I' for Inactive)
REMARK    1  A    between atoms: C_4  and  O_5 
REMARK    2  A    between atoms: O_5  and  C_6 
REMARK    3  A    between atoms: C_9  and  N_10 
REMARK       I    between atoms: N_10  and  C_11 
REMARK    4  A    between atoms: C_11  and  C_12 
REMARK    5  A    between atoms: C_12  and  C_13 
REMARK    6  A    between atoms: C_13  and  N_14 
REMARK       I    between atoms: N_14  and  C_15 
REMARK    7  A    between atoms: C_15  and  C_16 
ROOT
HETATM    1  N   UNL     1      23.067  45.269  49.475  1.00  0.00    -0.327 N 
HETATM    2  C   UNL     1      22.041  44.562  48.874  1.00  0.00     0.223 C 
HETATM    3  O   UNL     1      22.023  43.358  48.642  1.00  0.00    -0.273 OA
HETATM    4  H   UNL     1      22.945  46.271  49.560  1.00  0.00     0.169 HD
ENDROOT
BRANCH   1   5
HETATM    5  C   UNL     1      24.256  44.751  50.032  1.00  0.00     0.034 A 
HETATM    6  C   UNL     1      24.296  43.793  51.048  1.00  0.00     0.032 A 
HETATM    7  C   UNL     1      25.521  43.364  51.578  1.00  0.00     0.039 A 
HETATM    8  C   UNL     1      26.717  43.874  51.076  1.00  0.00     0.076 A 
HETATM    9  C   UNL     1      26.686  44.834  50.066  1.00  0.00     0.039 A 
HETATM   10  C   UNL     1      25.464  45.266  49.543  1.00  0.00     0.032 A 
BRANCH   8  11
HETATM   11  O   UNL     1      27.963  43.564  51.574  1.00  0.00    -0.311 OA
BRANCH  11  12
HETATM   12  C   UNL     1      28.286  43.965  52.848  1.00  0.00     0.076 A 
HETATM   13  C   UNL     1      29.329  43.393  53.580  1.00  0.00     0.044 A 
HETATM   14  C   UNL     1      29.648  43.883  54.854  1.00  0.00    -0.059 A 
HETATM   15  C   UNL     1      30.781  43.285  55.633  1.00  0.00     0.048 C 
HETATM   16  C   UNL     1      28.939  44.981  55.360  1.00  0.00     0.007 A 
HETATM   17  C   UNL     1      27.914  45.567  54.614  1.00  0.00     0.003 A 
HETATM   18  C   UNL     1      27.590  45.062  53.357  1.00  0.00     0.037 A 
ENDBRANCH  11  12
ENDBRANCH   8  11
ENDBRANCH   1   5
BRANCH   2  19
HETATM   19  C   UNL     1      20.861  45.436  48.496  1.00  0.00     0.123 C 
BRANCH  19  20
HETATM   20  C   UNL     1      21.324  46.469  47.476  1.00  0.00     0.132 C 
BRANCH  20  21
HETATM   21  N   UNL     1      20.818  47.799  47.744  1.00  0.00    -0.355 N 
HETATM   22  C   UNL     1      21.378  48.629  48.694  1.00  0.00     0.275 C 
HETATM   23  O   UNL     1      22.441  48.366  49.251  1.00  0.00    -0.265 OA
HETATM   24  H   UNL     1      19.901  48.062  47.397  1.00  0.00     0.162 HD
BRANCH  22  25
HETATM   25  C   UNL     1      20.594  49.814  48.975  1.00  0.00     0.142 A 
HETATM   26  O   UNL     1      19.606  49.759  49.926  1.00  0.00    -0.317 OA
HETATM   27  C   UNL     1      19.054  50.998  50.002  1.00  0.00     0.143 A 
HETATM   28  C   UNL     1      19.665  51.855  49.116  1.00  0.00     0.027 A 
HETATM   29  C   UNL     1      20.656  51.093  48.453  1.00  0.00     0.045 A 
ENDBRANCH  22  25
ENDBRANCH  20  21
ENDBRANCH  19  20
ENDBRANCH   2  19
TORSDOF 7
ENDMDL
MODEL 10
REMARK VINA RESULT:      -8.4      2.057      2.626
REMARK  7 active torsions:
REMARK  status: ('A' for Active; 'I' for Inactive)
REMARK    1  A    between atoms: C_4  and  O_5 
REMARK    2  A    between atoms: O_5  and  C_6 
REMARK    3  A    between atoms: C_9  and  N_10 
REMARK       I    between atoms: N_10  and  C_11 
REMARK    4  A    between atoms: C_11  and  C_12 
REMARK    5  A    between atoms: C_12  and  C_13 
REMARK    6  A    between atoms: C_13  and  N_14 
REMARK       I    between atoms: N_14  and  C_15 
REMARK    7  A    between atoms: C_15  and  C_16 
ROOT
HETATM    1  N   UNL     1      23.648  45.369  50.243  1.00  0.00    -0.327 N 
HETATM    2  C   UNL     1      22.741  44.386  49.891  1.00  0.00     0.223 C 
HETATM    3  O   UNL     1      22.678  43.251  50.353  1.00  0.00    -0.273 OA
HETATM    4  H   UNL     1      23.593  46.245  49.738  1.00  0.00     0.169 HD
ENDROOT
BRANCH   1   5
HETATM    5  C   UNL     1      24.622  45.314  51.264  1.00  0.00     0.034 A 
HETATM    6  C   UNL     1      24.834  44.207  52.088  1.00  0.00     0.032 A 
HETATM    7  C   UNL     1      25.793  44.250  53.110  1.00  0.00     0.039 A 
HETATM    8  C   UNL     1      26.564  45.396  53.298  1.00  0.00     0.076 A 
HETATM    9  C   UNL     1      26.354  46.508  52.483  1.00  0.00     0.039 A 
HETATM   10  C   UNL     1      25.393  46.466  51.469  1.00  0.00     0.032 A 
BRANCH   8  11
HETATM   11  O   UNL     1      27.481  45.558  54.312  1.00  0.00    -0.311 OA
BRANCH  11  12
HETATM   12  C   UNL     1      28.584  44.739  54.344  1.00  0.00     0.076 A 
HETATM   13  C   UNL     1      29.419  44.638  55.460  1.00  0.00     0.044 A 
HETATM   14  C   UNL     1      30.498  43.743  55.453  1.00  0.00    -0.059 A 
HETATM   15  C   UNL     1      31.383  43.617  56.658  1.00  0.00     0.048 C 
HETATM   16  C   UNL     1      30.696  42.920  54.337  1.00  0.00     0.007 A 
HETATM   17  C   UNL     1      29.843  43.005  53.234  1.00  0.00     0.003 A 
HETATM   18  C   UNL     1      28.785  43.911  53.240  1.00  0.00     0.037 A 
ENDBRANCH  11  12
ENDBRANCH   8  11
ENDBRANCH   1   5
BRANCH   2  19
HETATM   19  C   UNL     1      21.763  44.836  48.824  1.00  0.00     0.123 C 
BRANCH  19  20
HETATM   20  C   UNL     1      22.499  45.723  47.828  1.00  0.00     0.132 C 
BRANCH  20  21
HETATM   21  N   UNL     1      21.932  47.051  47.722  1.00  0.00    -0.355 N 
HETATM   22  C   UNL     1      22.551  48.167  48.250  1.00  0.00     0.275 C 
HETATM   23  O   UNL     1      23.697  48.135  48.691  1.00  0.00    -0.265 OA
HETATM   24  H   UNL     1      20.959  47.158  47.454  1.00  0.00     0.162 HD
BRANCH  22  25
HETATM   25  C   UNL     1      21.723  49.356  48.246  1.00  0.00     0.142 A 
HETATM   26  O   UNL     1      20.712  49.470  47.324  1.00  0.00    -0.317 OA
HETATM   27  C   UNL     1      20.090  50.655  47.559  1.00  0.00     0.143 A 
HETATM   28  C   UNL     1      20.680  51.311  48.613  1.00  0.00     0.027 A 
HETATM   29  C   UNL     1      21.733  50.476  49.056  1.00  0.00     0.045 A 
ENDBRANCH  22  25
ENDBRANCH  20  21
ENDBRANCH  19  20
ENDBRANCH   2  19
TORSDOF 7
ENDMDL
