MODEL 1
REMARK VINA RESULT:      -8.2      0.000      0.000
REMARK  4 active torsions:
REMARK  status: ('A' for Active; 'I' for Inactive)
REMARK    1  A    between atoms: C_4  and  C_5 
REMARK    2  A    between atoms: C_5  and  C_6 
REMARK       I    between atoms: C_6  and  N_7 
REMARK    3  A    between atoms: N_7  and  N_8 
REMARK       I    between atoms: N_8  and  C_9 
REMARK    4  A    between atoms: C_9  and  C_10 
ROOT
HETATM    1  N   UNL     1      27.323  42.170  52.896  1.00  0.00    -0.263 N 
HETATM    2  C   UNL     1      28.621  42.575  53.150  1.00  0.00     0.272 C 
HETATM    3  O   UNL     1      29.584  41.976  52.670  1.00  0.00    -0.266 OA
HETATM    4  H   UNL     1      26.514  42.580  53.352  1.00  0.00     0.190 HD
ENDROOT
BRANCH   1   5
HETATM    5  N   UNL     1      27.110  40.955  52.232  1.00  0.00    -0.267 N 
HETATM    6  C   UNL     1      26.809  41.000  50.887  1.00  0.00     0.240 C 
HETATM    7  O   UNL     1      26.865  42.049  50.240  1.00  0.00    -0.271 OA
HETATM    8  H   UNL     1      26.951  40.132  52.815  1.00  0.00     0.190 HD
BRANCH   6   9
HETATM    9  C   UNL     1      26.307  39.703  50.285  1.00  0.00     0.150 C 
BRANCH   9  10
HETATM   10  C   UNL     1      27.367  39.007  49.486  1.00  0.00    -0.008 A 
HETATM   11  S   UNL     1      26.992  38.342  47.953  1.00  0.00    -0.099 SA
HETATM   12  C   UNL     1      28.604  37.838  47.696  1.00  0.00    -0.021 A 
HETATM   13  C   UNL     1      28.986  37.144  46.433  1.00  0.00     0.056 C 
HETATM   14  C   UNL     1      29.411  38.152  48.769  1.00  0.00     0.015 A 
HETATM   15  C   UNL     1      28.699  38.830  49.800  1.00  0.00     0.016 A 
ENDBRANCH   9  10
ENDBRANCH   6   9
ENDBRANCH   1   5
BRANCH   2  16
HETATM   16  C   UNL     1      28.755  43.739  54.026  1.00  0.00     0.061 A 
HETATM   17  C   UNL     1      29.663  43.879  55.134  1.00  0.00     0.008 A 
HETATM   18  C   UNL     1      29.447  45.134  55.707  1.00  0.00     0.043 A 
HETATM   19  C   UNL     1      30.655  43.053  55.704  1.00  0.00     0.015 A 
HETATM   20  C   UNL     1      30.164  45.599  56.816  1.00  0.00     0.030 A 
HETATM   21  N   UNL     1      28.449  45.741  54.984  1.00  0.00    -0.364 N 
HETATM   22  C   UNL     1      31.139  44.758  57.358  1.00  0.00     0.002 A 
HETATM   23  C   UNL     1      31.385  43.502  56.811  1.00  0.00     0.001 A 
HETATM   24  H   UNL     1      28.082  46.662  55.182  1.00  0.00     0.165 HD
HETATM   25  C   UNL     1      28.027  44.920  53.972  1.00  0.00     0.106 A 
ENDBRANCH   2  16
TORSDOF 4
ENDMDL
MODEL 2
REMARK VINA RESULT:      -8.2      1.308      1.532
REMARK  4 active torsions:
REMARK  status: ('A' for Active; 'I' for Inactive)
REMARK    1  A    between atoms: C_4  and  C_5 
REMARK    2  A    between atoms: C_5  and  C_6 
REMARK       I    between atoms: C_6  and  N_7 
REMARK    3  A    between atoms: N_7  and  N_8 
REMARK       I    between atoms: N_8  and  C_9 
REMARK    4  A    between atoms: C_9  and  C_10 
ROOT
HETATM    1  N   UNL     1      27.276  43.216  53.226  1.00  0.00    -0.263 N 
HETATM    2  C   UNL     1      28.578  43.674  53.310  1.00  0.00     0.272 C 
HETATM    3  O   UNL     1      29.426  43.348  52.479  1.00  0.00    -0.266 OA
HETATM    4  H   UNL     1      26.579  43.386  53.945  1.00  0.00     0.190 HD
ENDROOT
BRANCH   1   5
HETATM    5  N   UNL     1      26.965  42.225  52.285  1.00  0.00    -0.267 N 
HETATM    6  C   UNL     1      26.191  42.586  51.202  1.00  0.00     0.240 C 
HETATM    7  O   UNL     1      25.896  43.761  50.972  1.00  0.00    -0.271 OA
HETATM    8  H   UNL     1      27.117  41.257  52.568  1.00  0.00     0.190 HD
BRANCH   6   9
HETATM    9  C   UNL     1      25.645  41.437  50.377  1.00  0.00     0.150 C 
BRANCH   9  10
HETATM   10  C   UNL     1      26.702  40.805  49.524  1.00  0.00    -0.008 A 
HETATM   11  S   UNL     1      26.988  39.119  49.617  1.00  0.00    -0.099 SA
HETATM   12  C   UNL     1      28.184  39.182  48.398  1.00  0.00    -0.021 A 
HETATM   13  C   UNL     1      28.880  37.939  47.958  1.00  0.00     0.056 C 
HETATM   14  C   UNL     1      28.377  40.469  47.943  1.00  0.00     0.015 A 
HETATM   15  C   UNL     1      27.520  41.405  48.589  1.00  0.00     0.016 A 
ENDBRANCH   9  10
ENDBRANCH   6   9
ENDBRANCH   1   5
BRANCH   2  16
HETATM   16  C   UNL     1      28.865  44.547  54.449  1.00  0.00     0.061 A 
HETATM   17  C   UNL     1      29.805  44.295  55.507  1.00  0.00     0.008 A 
HETATM   18  C   UNL     1      29.748  45.372  56.395  1.00  0.00     0.043 A 
HETATM   19  C   UNL     1      30.708  43.248  55.793  1.00  0.00     0.015 A 
HETATM   20  C   UNL     1      30.537  45.451  57.548  1.00  0.00     0.030 A 
HETATM   21  N   UNL     1      28.812  46.249  55.905  1.00  0.00    -0.364 N 
HETATM   22  C   UNL     1      31.421  44.400  57.804  1.00  0.00     0.002 A 
HETATM   23  C   UNL     1      31.509  43.312  56.940  1.00  0.00     0.001 A 
HETATM   24  H   UNL     1      28.558  47.119  56.351  1.00  0.00     0.165 HD
HETATM   25  C   UNL     1      28.276  45.771  54.738  1.00  0.00     0.106 A 
ENDBRANCH   2  16
TORSDOF 4
ENDMDL
MODEL 3
REMARK VINA RESULT:      -8.2      5.549      7.437
REMARK  4 active torsions:
REMARK  status: ('A' for Active; 'I' for Inactive)
REMARK    1  A    between atoms: C_4  and  C_5 
REMARK    2  A    between atoms: C_5  and  C_6 
REMARK       I    between atoms: C_6  and  N_7 
REMARK    3  A    between atoms: N_7  and  N_8 
REMARK       I    between atoms: N_8  and  C_9 
REMARK    4  A    between atoms: C_9  and  C_10 
ROOT
HETATM    1  N   UNL     1      25.857  46.363  52.258  1.00  0.00    -0.263 N 
HETATM    2  C   UNL     1      26.003  45.446  53.283  1.00  0.00     0.272 C 
HETATM    3  O   UNL     1      25.234  44.492  53.402  1.00  0.00    -0.266 OA
HETATM    4  H   UNL     1      26.412  47.211  52.188  1.00  0.00     0.190 HD
ENDROOT
BRANCH   1   5
HETATM    5  N   UNL     1      24.711  46.305  51.454  1.00  0.00    -0.267 N 
HETATM    6  C   UNL     1      24.885  46.212  50.090  1.00  0.00     0.240 C 
HETATM    7  O   UNL     1      25.996  46.038  49.583  1.00  0.00    -0.271 OA
HETATM    8  H   UNL     1      23.828  46.574  51.891  1.00  0.00     0.190 HD
BRANCH   6   9
HETATM    9  C   UNL     1      23.642  46.443  49.254  1.00  0.00     0.150 C 
BRANCH   9  10
HETATM   10  C   UNL     1      23.377  47.900  49.031  1.00  0.00    -0.008 A 
HETATM   11  S   UNL     1      21.769  48.472  48.893  1.00  0.00    -0.099 SA
HETATM   12  C   UNL     1      22.281  50.094  48.736  1.00  0.00    -0.021 A 
HETATM   13  C   UNL     1      21.283  51.190  48.582  1.00  0.00     0.056 C 
HETATM   14  C   UNL     1      23.657  50.197  48.768  1.00  0.00     0.015 A 
HETATM   15  C   UNL     1      24.289  48.933  48.942  1.00  0.00     0.016 A 
ENDBRANCH   9  10
ENDBRANCH   6   9
ENDBRANCH   1   5
BRANCH   2  16
HETATM   16  C   UNL     1      27.113  45.702  54.202  1.00  0.00     0.061 A 
HETATM   17  C   UNL     1      28.233  44.836  54.456  1.00  0.00     0.008 A 
HETATM   18  C   UNL     1      29.043  45.454  55.412  1.00  0.00     0.043 A 
HETATM   19  C   UNL     1      28.639  43.580  53.957  1.00  0.00     0.015 A 
HETATM   20  C   UNL     1      30.225  44.880  55.895  1.00  0.00     0.030 A 
HETATM   21  N   UNL     1      28.446  46.648  55.734  1.00  0.00    -0.364 N 
HETATM   22  C   UNL     1      30.600  43.636  55.382  1.00  0.00     0.002 A 
HETATM   23  C   UNL     1      29.821  42.992  54.425  1.00  0.00     0.001 A 
HETATM   24  H   UNL     1      28.813  47.304  56.410  1.00  0.00     0.165 HD
HETATM   25  C   UNL     1      27.291  46.813  55.015  1.00  0.00     0.106 A 
ENDBRANCH   2  16
TORSDOF 4
ENDMDL
MODEL 4
REMARK VINA RESULT:      -8.2      4.827      6.251
REMARK  4 active torsions:
REMARK  status: ('A' for Active; 'I' for Inactive)
REMARK    1  A    between atoms: C_4  and  C_5 
REMARK    2  A    between atoms: C_5  and  C_6 
REMARK       I    between atoms: C_6  and  N_7 
REMARK    3  A    between atoms: N_7  and  N_8 
REMARK       I    between atoms: N_8  and  C_9 
REMARK    4  A    between atoms: C_9  and  C_10 
ROOT
HETATM    1  N   UNL     1      25.927  45.346  53.994  1.00  0.00    -0.263 N 
HETATM    2  C   UNL     1      26.857  46.352  54.181  1.00  0.00     0.272 C 
HETATM    3  O   UNL     1      26.781  47.416  53.566  1.00  0.00    -0.266 OA
HETATM    4  H   UNL     1      26.015  44.424  54.411  1.00  0.00     0.190 HD
ENDROOT
BRANCH   1   5
HETATM    5  N   UNL     1      24.990  45.471  52.960  1.00  0.00    -0.267 N 
HETATM    6  C   UNL     1      25.234  44.792  51.785  1.00  0.00     0.240 C 
HETATM    7  O   UNL     1      26.159  43.983  51.677  1.00  0.00    -0.271 OA
HETATM    8  H   UNL     1      24.317  46.234  53.039  1.00  0.00     0.190 HD
BRANCH   6   9
HETATM    9  C   UNL     1      24.359  45.183  50.610  1.00  0.00     0.150 C 
BRANCH   9  10
HETATM   10  C   UNL     1      24.709  46.538  50.076  1.00  0.00    -0.008 A 
HETATM   11  S   UNL     1      26.349  46.980  49.860  1.00  0.00    -0.099 SA
HETATM   12  C   UNL     1      25.929  48.505  49.213  1.00  0.00    -0.021 A 
HETATM   13  C   UNL     1      26.988  49.456  48.773  1.00  0.00     0.056 C 
HETATM   14  C   UNL     1      24.561  48.683  49.183  1.00  0.00     0.015 A 
HETATM   15  C   UNL     1      23.858  47.548  49.677  1.00  0.00     0.016 A 
ENDBRANCH   9  10
ENDBRANCH   6   9
ENDBRANCH   1   5
BRANCH   2  16
HETATM   16  C   UNL     1      27.924  46.052  55.136  1.00  0.00     0.061 A 
HETATM   17  C   UNL     1      28.899  45.000  55.031  1.00  0.00     0.008 A 
HETATM   18  C   UNL     1      29.714  45.057  56.164  1.00  0.00     0.043 A 
HETATM   19  C   UNL     1      29.169  44.000  54.072  1.00  0.00     0.015 A 
HETATM   20  C   UNL     1      30.773  44.169  56.388  1.00  0.00     0.030 A 
HETATM   21  N   UNL     1      29.260  46.100  56.935  1.00  0.00    -0.364 N 
HETATM   22  C   UNL     1      31.015  43.191  55.420  1.00  0.00     0.002 A 
HETATM   23  C   UNL     1      30.226  43.105  54.276  1.00  0.00     0.001 A 
HETATM   24  H   UNL     1      29.662  46.370  57.822  1.00  0.00     0.165 HD
HETATM   25  C   UNL     1      28.191  46.707  56.331  1.00  0.00     0.106 A 
ENDBRANCH   2  16
TORSDOF 4
ENDMDL
MODEL 5
REMARK VINA RESULT:      -8.0      4.511      5.957
REMARK  4 active torsions:
REMARK  status: ('A' for Active; 'I' for Inactive)
REMARK    1  A    between atoms: C_4  and  C_5 
REMARK    2  A    between atoms: C_5  and  C_6 
REMARK       I    between atoms: C_6  and  N_7 
REMARK    3  A    between atoms: N_7  and  N_8 
REMARK       I    between atoms: N_8  and  C_9 
REMARK    4  A    between atoms: C_9  and  C_10 
ROOT
HETATM    1  N   UNL     1      26.498  44.190  53.400  1.00  0.00    -0.263 N 
HETATM    2  C   UNL     1      27.477  45.079  53.802  1.00  0.00     0.272 C 
HETATM    3  O   UNL     1      27.333  46.294  53.667  1.00  0.00    -0.266 OA
HETATM    4  H   UNL     1      26.625  43.182  53.407  1.00  0.00     0.190 HD
ENDROOT
BRANCH   1   5
HETATM    5  N   UNL     1      25.406  44.670  52.665  1.00  0.00    -0.267 N 
HETATM    6  C   UNL     1      25.324  44.324  51.333  1.00  0.00     0.240 C 
HETATM    7  O   UNL     1      26.091  43.505  50.822  1.00  0.00    -0.271 OA
HETATM    8  H   UNL     1      24.871  45.433  53.081  1.00  0.00     0.190 HD
BRANCH   6   9
HETATM    9  C   UNL     1      24.302  45.093  50.519  1.00  0.00     0.150 C 
BRANCH   9  10
HETATM   10  C   UNL     1      24.821  46.429  50.083  1.00  0.00    -0.008 A 
HETATM   11  S   UNL     1      26.507  46.697  49.957  1.00  0.00    -0.099 SA
HETATM   12  C   UNL     1      26.285  48.294  49.389  1.00  0.00    -0.021 A 
HETATM   13  C   UNL     1      27.460  49.144  49.049  1.00  0.00     0.056 C 
HETATM   14  C   UNL     1      24.948  48.625  49.317  1.00  0.00     0.015 A 
HETATM   15  C   UNL     1      24.103  47.548  49.713  1.00  0.00     0.016 A 
ENDBRANCH   9  10
ENDBRANCH   6   9
ENDBRANCH   1   5
BRANCH   2  16
HETATM   16  C   UNL     1      28.679  44.473  54.377  1.00  0.00     0.061 A 
HETATM   17  C   UNL     1      29.303  44.822  55.625  1.00  0.00     0.008 A 
HETATM   18  C   UNL     1      30.432  44.015  55.780  1.00  0.00     0.043 A 
HETATM   19  C   UNL     1      29.010  45.752  56.646  1.00  0.00     0.015 A 
HETATM   20  C   UNL     1      31.279  44.093  56.891  1.00  0.00     0.030 A 
HETATM   21  N   UNL     1      30.501  43.204  54.673  1.00  0.00    -0.364 N 
HETATM   22  C   UNL     1      30.962  45.024  57.884  1.00  0.00     0.002 A 
HETATM   23  C   UNL     1      29.843  45.843  57.767  1.00  0.00     0.001 A 
HETATM   24  H   UNL     1      31.227  42.518  54.514  1.00  0.00     0.165 HD
HETATM   25  C   UNL     1      29.457  43.464  53.826  1.00  0.00     0.106 A 
ENDBRANCH   2  16
TORSDOF 4
ENDMDL
MODEL 6
REMARK VINA RESULT:      -7.7      6.158      8.778
REMARK  4 active torsions:
REMARK  status: ('A' for Active; 'I' for Inactive)
REMARK    1  A    between atoms: C_4  and  C_5 
REMARK    2  A    between atoms: C_5  and  C_6 
REMARK       I    between atoms: C_6  and  N_7 
REMARK    3  A    between atoms: N_7  and  N_8 
REMARK       I    between atoms: N_8  and  C_9 
REMARK    4  A    between atoms: C_9  and  C_10 
ROOT
HETATM    1  N   UNL     1      26.712  46.299  49.657  1.00  0.00    -0.263 N 
HETATM    2  C   UNL     1      26.307  47.477  50.258  1.00  0.00     0.272 C 
HETATM    3  O   UNL     1      26.317  47.606  51.482  1.00  0.00    -0.266 OA
HETATM    4  H   UNL     1      26.625  46.125  48.660  1.00  0.00     0.190 HD
ENDROOT
BRANCH   1   5
HETATM    5  N   UNL     1      26.964  45.179  50.460  1.00  0.00    -0.267 N 
HETATM    6  C   UNL     1      25.887  44.415  50.856  1.00  0.00     0.240 C 
HETATM    7  O   UNL     1      24.752  44.605  50.412  1.00  0.00    -0.271 OA
HETATM    8  H   UNL     1      27.882  45.127  50.903  1.00  0.00     0.190 HD
BRANCH   6   9
HETATM    9  C   UNL     1      26.170  43.400  51.946  1.00  0.00     0.150 C 
BRANCH   9  10
HETATM   10  C   UNL     1      27.135  43.925  52.964  1.00  0.00    -0.008 A 
HETATM   11  S   UNL     1      26.648  45.147  54.061  1.00  0.00    -0.099 SA
HETATM   12  C   UNL     1      28.161  45.139  54.855  1.00  0.00    -0.021 A 
HETATM   13  C   UNL     1      28.410  46.044  56.013  1.00  0.00     0.056 C 
HETATM   14  C   UNL     1      29.030  44.235  54.282  1.00  0.00     0.015 A 
HETATM   15  C   UNL     1      28.438  43.532  53.194  1.00  0.00     0.016 A 
ENDBRANCH   9  10
ENDBRANCH   6   9
ENDBRANCH   1   5
BRANCH   2  16
HETATM   16  C   UNL     1      25.864  48.529  49.343  1.00  0.00     0.061 A 
HETATM   17  C   UNL     1      24.504  48.883  49.037  1.00  0.00     0.008 A 
HETATM   18  C   UNL     1      24.531  49.922  48.105  1.00  0.00     0.043 A 
HETATM   19  C   UNL     1      23.244  48.417  49.472  1.00  0.00     0.015 A 
HETATM   20  C   UNL     1      23.373  50.511  47.584  1.00  0.00     0.030 A 
HETATM   21  N   UNL     1      25.852  50.196  47.846  1.00  0.00    -0.364 N 
HETATM   22  C   UNL     1      22.141  50.028  48.034  1.00  0.00     0.002 A 
HETATM   23  C   UNL     1      22.074  48.996  48.965  1.00  0.00     0.001 A 
HETATM   24  H   UNL     1      26.171  50.905  47.199  1.00  0.00     0.165 HD
HETATM   25  C   UNL     1      26.662  49.372  48.582  1.00  0.00     0.106 A 
ENDBRANCH   2  16
TORSDOF 4
ENDMDL
MODEL 7
REMARK VINA RESULT:      -7.7      5.400      6.995
REMARK  4 active torsions:
REMARK  status: ('A' for Active; 'I' for Inactive)
REMARK    1  A    between atoms: C_4  and  C_5 
REMARK    2  A    between atoms: C_5  and  C_6 
REMARK       I    between atoms: C_6  and  N_7 
REMARK    3  A    between atoms: N_7  and  N_8 
REMARK       I    between atoms: N_8  and  C_9 
REMARK    4  A    between atoms: C_9  and  C_10 
ROOT
HETATM    1  N   UNL     1      26.575  45.370  51.976  1.00  0.00    -0.263 N 
HETATM    2  C   UNL     1      26.669  45.168  53.341  1.00  0.00     0.272 C 
HETATM    3  O   UNL     1      25.946  45.778  54.129  1.00  0.00    -0.266 OA
HETATM    4  H   UNL     1      27.220  44.958  51.308  1.00  0.00     0.190 HD
ENDROOT
BRANCH   1   5
HETATM    5  N   UNL     1      25.773  46.415  51.498  1.00  0.00    -0.267 N 
HETATM    6  C   UNL     1      25.885  46.756  50.167  1.00  0.00     0.240 C 
HETATM    7  O   UNL     1      26.552  46.087  49.375  1.00  0.00    -0.271 OA
HETATM    8  H   UNL     1      25.336  47.017  52.198  1.00  0.00     0.190 HD
BRANCH   6   9
HETATM    9  C   UNL     1      25.224  48.061  49.769  1.00  0.00     0.150 C 
BRANCH   9  10
HETATM   10  C   UNL     1      23.837  47.851  49.243  1.00  0.00    -0.008 A 
HETATM   11  S   UNL     1      22.837  49.195  48.893  1.00  0.00    -0.099 SA
HETATM   12  C   UNL     1      21.569  48.198  48.329  1.00  0.00    -0.021 A 
HETATM   13  C   UNL     1      20.303  48.799  47.823  1.00  0.00     0.056 C 
HETATM   14  C   UNL     1      21.894  46.861  48.426  1.00  0.00     0.015 A 
HETATM   15  C   UNL     1      23.204  46.660  48.949  1.00  0.00     0.016 A 
ENDBRANCH   9  10
ENDBRANCH   6   9
ENDBRANCH   1   5
BRANCH   2  16
HETATM   16  C   UNL     1      27.682  44.202  53.765  1.00  0.00     0.061 A 
HETATM   17  C   UNL     1      28.777  44.446  54.666  1.00  0.00     0.008 A 
HETATM   18  C   UNL     1      29.510  43.263  54.779  1.00  0.00     0.043 A 
HETATM   19  C   UNL     1      29.213  45.568  55.403  1.00  0.00     0.015 A 
HETATM   20  C   UNL     1      30.652  43.148  55.581  1.00  0.00     0.030 A 
HETATM   21  N   UNL     1      28.895  42.330  53.982  1.00  0.00    -0.364 N 
HETATM   22  C   UNL     1      31.059  44.276  56.298  1.00  0.00     0.002 A 
HETATM   23  C   UNL     1      30.351  45.471  56.214  1.00  0.00     0.001 A 
HETATM   24  H   UNL     1      29.216  41.379  53.865  1.00  0.00     0.165 HD
HETATM   25  C   UNL     1      27.797  42.876  53.370  1.00  0.00     0.106 A 
ENDBRANCH   2  16
TORSDOF 4
ENDMDL
MODEL 8
REMARK VINA RESULT:      -7.6      7.187      9.282
REMARK  4 active torsions:
REMARK  status: ('A' for Active; 'I' for Inactive)
REMARK    1  A    between atoms: C_4  and  C_5 
REMARK    2  A    between atoms: C_5  and  C_6 
REMARK       I    between atoms: C_6  and  N_7 
REMARK    3  A    between atoms: N_7  and  N_8 
REMARK       I    between atoms: N_8  and  C_9 
REMARK    4  A    between atoms: C_9  and  C_10 
ROOT
HETATM    1  N   UNL     1      23.999  46.122  50.504  1.00  0.00    -0.263 N 
HETATM    2  C   UNL     1      25.244  45.547  50.322  1.00  0.00     0.272 C 
HETATM    3  O   UNL     1      25.830  45.618  49.242  1.00  0.00    -0.266 OA
HETATM    4  H   UNL     1      23.449  45.999  51.349  1.00  0.00     0.190 HD
ENDROOT
BRANCH   1   5
HETATM    5  N   UNL     1      23.320  46.635  49.391  1.00  0.00    -0.267 N 
HETATM    6  C   UNL     1      23.259  48.005  49.249  1.00  0.00     0.240 C 
HETATM    7  O   UNL     1      23.895  48.766  49.982  1.00  0.00    -0.271 OA
HETATM    8  H   UNL     1      22.711  45.990  48.886  1.00  0.00     0.190 HD
BRANCH   6   9
HETATM    9  C   UNL     1      22.281  48.511  48.207  1.00  0.00     0.150 C 
BRANCH   9  10
HETATM   10  C   UNL     1      21.082  49.158  48.830  1.00  0.00    -0.008 A 
HETATM   11  S   UNL     1      20.889  50.858  48.764  1.00  0.00    -0.099 SA
HETATM   12  C   UNL     1      19.381  50.792  49.566  1.00  0.00    -0.021 A 
HETATM   13  C   UNL     1      18.612  52.040  49.832  1.00  0.00     0.056 C 
HETATM   14  C   UNL     1      19.040  49.497  49.897  1.00  0.00     0.015 A 
HETATM   15  C   UNL     1      20.019  48.554  49.470  1.00  0.00     0.016 A 
ENDBRANCH   9  10
ENDBRANCH   6   9
ENDBRANCH   1   5
BRANCH   2  16
HETATM   16  C   UNL     1      25.791  44.851  51.488  1.00  0.00     0.061 A 
HETATM   17  C   UNL     1      26.345  45.459  52.668  1.00  0.00     0.008 A 
HETATM   18  C   UNL     1      26.768  44.436  53.518  1.00  0.00     0.043 A 
HETATM   19  C   UNL     1      26.524  46.792  53.097  1.00  0.00     0.015 A 
HETATM   20  C   UNL     1      27.361  44.675  54.763  1.00  0.00     0.030 A 
HETATM   21  N   UNL     1      26.488  43.247  52.889  1.00  0.00    -0.364 N 
HETATM   22  C   UNL     1      27.525  46.005  55.160  1.00  0.00     0.002 A 
HETATM   23  C   UNL     1      27.112  47.051  54.341  1.00  0.00     0.001 A 
HETATM   24  H   UNL     1      26.694  42.336  53.274  1.00  0.00     0.165 HD
HETATM   25  C   UNL     1      25.900  43.480  51.673  1.00  0.00     0.106 A 
ENDBRANCH   2  16
TORSDOF 4
ENDMDL
MODEL 9
REMARK VINA RESULT:      -7.4      5.094      6.734
REMARK  4 active torsions:
REMARK  status: ('A' for Active; 'I' for Inactive)
REMARK    1  A    between atoms: C_4  and  C_5 
REMARK    2  A    between atoms: C_5  and  C_6 
REMARK       I    between atoms: C_6  and  N_7 
REMARK    3  A    between atoms: N_7  and  N_8 
REMARK       I    between atoms: N_8  and  C_9 
REMARK    4  A    between atoms: C_9  and  C_10 
ROOT
HETATM    1  N   UNL     1      26.553  46.321  52.770  1.00  0.00    -0.263 N 
HETATM    2  C   UNL     1      26.572  46.552  54.134  1.00  0.00     0.272 C 
HETATM    3  O   UNL     1      25.662  47.166  54.691  1.00  0.00    -0.266 OA
HETATM    4  H   UNL     1      27.331  45.905  52.267  1.00  0.00     0.190 HD
ENDROOT
BRANCH   1   5
HETATM    5  N   UNL     1      25.576  46.950  51.989  1.00  0.00    -0.267 N 
HETATM    6  C   UNL     1      25.756  46.967  50.622  1.00  0.00     0.240 C 
HETATM    7  O   UNL     1      26.660  46.332  50.074  1.00  0.00    -0.271 OA
HETATM    8  H   UNL     1      24.920  47.562  52.477  1.00  0.00     0.190 HD
BRANCH   6   9
HETATM    9  C   UNL     1      24.838  47.897  49.853  1.00  0.00     0.150 C 
BRANCH   9  10
HETATM   10  C   UNL     1      23.640  47.181  49.310  1.00  0.00    -0.008 A 
HETATM   11  S   UNL     1      22.276  48.068  48.775  1.00  0.00    -0.099 SA
HETATM   12  C   UNL     1      21.453  46.652  48.289  1.00  0.00    -0.021 A 
HETATM   13  C   UNL     1      20.098  46.739  47.675  1.00  0.00     0.056 C 
HETATM   14  C   UNL     1      22.196  45.519  48.550  1.00  0.00     0.015 A 
HETATM   15  C   UNL     1      23.459  45.824  49.135  1.00  0.00     0.016 A 
ENDBRANCH   9  10
ENDBRANCH   6   9
ENDBRANCH   1   5
BRANCH   2  16
HETATM   16  C   UNL     1      27.741  46.032  54.843  1.00  0.00     0.061 A 
HETATM   17  C   UNL     1      28.551  44.908  54.454  1.00  0.00     0.008 A 
HETATM   18  C   UNL     1      29.546  44.743  55.420  1.00  0.00     0.043 A 
HETATM   19  C   UNL     1      28.533  44.013  53.363  1.00  0.00     0.015 A 
HETATM   20  C   UNL     1      30.513  43.733  55.353  1.00  0.00     0.030 A 
HETATM   21  N   UNL     1      29.358  45.722  56.364  1.00  0.00    -0.364 N 
HETATM   22  C   UNL     1      30.469  42.863  54.261  1.00  0.00     0.002 A 
HETATM   23  C   UNL     1      29.494  42.999  53.277  1.00  0.00     0.001 A 
HETATM   24  H   UNL     1      29.933  45.839  57.187  1.00  0.00     0.165 HD
HETATM   25  C   UNL     1      28.282  46.504  56.031  1.00  0.00     0.106 A 
ENDBRANCH   2  16
TORSDOF 4
ENDMDL
MODEL 10
REMARK VINA RESULT:      -7.4      9.058     11.484
REMARK  4 active torsions:
REMARK  status: ('A' for Active; 'I' for Inactive)
REMARK    1  A    between atoms: C_4  and  C_5 
REMARK    2  A    between atoms: C_5  and  C_6 
REMARK       I    between atoms: C_6  and  N_7 
REMARK    3  A    between atoms: N_7  and  N_8 
REMARK       I    between atoms: N_8  and  C_9 
REMARK    4  A    between atoms: C_9  and  C_10 
ROOT
HETATM    1  N   UNL     1      21.840  47.616  49.192  1.00  0.00    -0.263 N 
HETATM    2  C   UNL     1      21.461  47.676  47.863  1.00  0.00     0.272 C 
HETATM    3  O   UNL     1      22.163  47.190  46.976  1.00  0.00    -0.266 OA
HETATM    4  H   UNL     1      21.335  48.089  49.936  1.00  0.00     0.190 HD
ENDROOT
BRANCH   1   5
HETATM    5  N   UNL     1      23.125  47.158  49.511  1.00  0.00    -0.267 N 
HETATM    6  C   UNL     1      24.108  48.098  49.733  1.00  0.00     0.240 C 
HETATM    7  O   UNL     1      23.856  49.304  49.798  1.00  0.00    -0.271 OA
HETATM    8  H   UNL     1      23.321  46.173  49.327  1.00  0.00     0.190 HD
BRANCH   6   9
HETATM    9  C   UNL     1      25.525  47.563  49.786  1.00  0.00     0.150 C 
BRANCH   9  10
HETATM   10  C   UNL     1      25.770  46.742  51.015  1.00  0.00    -0.008 A 
HETATM   11  S   UNL     1      26.460  45.180  50.882  1.00  0.00    -0.099 SA
HETATM   12  C   UNL     1      26.469  44.961  52.577  1.00  0.00    -0.021 A 
HETATM   13  C   UNL     1      27.004  43.704  53.173  1.00  0.00     0.056 C 
HETATM   14  C   UNL     1      25.935  46.051  53.233  1.00  0.00     0.015 A 
HETATM   15  C   UNL     1      25.535  47.080  52.332  1.00  0.00     0.016 A 
ENDBRANCH   9  10
ENDBRANCH   6   9
ENDBRANCH   1   5
BRANCH   2  16
HETATM   16  C   UNL     1      20.193  48.358  47.601  1.00  0.00     0.061 A 
HETATM   17  C   UNL     1      19.890  49.738  47.872  1.00  0.00     0.008 A 
HETATM   18  C   UNL     1      18.567  49.968  47.490  1.00  0.00     0.043 A 
HETATM   19  C   UNL     1      20.622  50.820  48.406  1.00  0.00     0.015 A 
HETATM   20  C   UNL     1      17.941  51.214  47.619  1.00  0.00     0.030 A 
HETATM   21  N   UNL     1      18.075  48.781  47.006  1.00  0.00    -0.364 N 
HETATM   22  C   UNL     1      18.692  52.265  48.150  1.00  0.00     0.002 A 
HETATM   23  C   UNL     1      20.015  52.075  48.538  1.00  0.00     0.001 A 
HETATM   24  H   UNL     1      17.133  48.652  46.662  1.00  0.00     0.165 HD
HETATM   25  C   UNL     1      19.038  47.808  47.063  1.00  0.00     0.106 A 
ENDBRANCH   2  16
TORSDOF 4
ENDMDL
