MODEL 1
REMARK VINA RESULT:     -10.0      0.000      0.000
REMARK  4 active torsions:
REMARK  status: ('A' for Active; 'I' for Inactive)
REMARK    1  A    between atoms: C_2  and  C_3 
REMARK    2  A    between atoms: C_6  and  N_7 
REMARK       I    between atoms: N_7  and  C_8 
REMARK       I    between atoms: C_8  and  N_9 
REMARK    3  A    between atoms: N_9  and  C_10 
REMARK       I    between atoms: N_19  and  C_20 
REMARK       I    between atoms: C_20  and  N_21 
REMARK    4  A    between atoms: N_21  and  C_22 
ROOT
HETATM    1  C   UNL     1      21.555  49.181  49.007  1.00  0.00     0.105 A 
HETATM    2  C   UNL     1      20.116  49.008  49.439  1.00  0.00     0.274 A 
HETATM    3  O   UNL     1      19.792  47.961  50.006  1.00  0.00    -0.265 OA
HETATM    4  N   UNL     1      19.239  50.073  49.188  1.00  0.00    -0.315 N 
HETATM    5  C   UNL     1      19.666  51.258  48.595  1.00  0.00     0.020 A 
HETATM    6  C   UNL     1      18.694  52.415  48.448  1.00  0.00     0.054 C 
HETATM    7  C   UNL     1      17.647  52.389  49.554  1.00  0.00     0.020 C 
HETATM    8  C   UNL     1      16.900  51.072  49.426  1.00  0.00     0.023 C 
HETATM    9  C   UNL     1      16.191  50.990  48.067  1.00  0.00     0.134 C 
HETATM   10  N   UNL     1      17.020  51.317  46.907  1.00  0.00    -0.333 N 
HETATM   11  C   UNL     1      16.511  50.920  45.671  1.00  0.00     0.318 C 
HETATM   12  N   UNL     1      17.160  51.427  44.573  1.00  0.00    -0.338 N 
HETATM   13  O   UNL     1      15.550  50.160  45.564  1.00  0.00    -0.247 OA
HETATM   14  C   UNL     1      18.009  52.387  47.072  1.00  0.00     0.138 C 
HETATM   15  C   UNL     1      17.865  49.901  49.661  1.00  0.00     0.138 C 
HETATM   16  C   UNL     1      20.941  51.380  48.191  1.00  0.00     0.028 A 
HETATM   17  C   UNL     1      21.891  50.317  48.380  1.00  0.00     0.037 A 
HETATM   18  H   UNL     1      17.650  52.294  44.697  1.00  0.00     0.164 HD
ENDROOT
BRANCH   1  19
HETATM   19  N   UNL     1      22.408  48.145  49.345  1.00  0.00    -0.304 N 
HETATM   20  C   UNL     1      22.785  47.079  48.586  1.00  0.00     0.325 C 
HETATM   21  N   UNL     1      23.771  46.268  49.063  1.00  0.00    -0.309 N 
HETATM   22  O   UNL     1      22.368  46.839  47.453  1.00  0.00    -0.247 OA
HETATM   23  H   UNL     1      24.137  45.700  48.308  1.00  0.00     0.170 HD
HETATM   24  H   UNL     1      22.919  48.318  50.202  1.00  0.00     0.171 HD
BRANCH  21  25
HETATM   25  C   UNL     1      24.372  46.086  50.317  1.00  0.00     0.036 A 
HETATM   26  C   UNL     1      24.276  44.924  51.085  1.00  0.00     0.030 A 
HETATM   27  C   UNL     1      24.940  44.832  52.320  1.00  0.00     0.017 A 
HETATM   28  C   UNL     1      25.718  45.896  52.789  1.00  0.00     0.009 A 
HETATM   29  C   UNL     1      25.830  47.051  52.010  1.00  0.00     0.017 A 
HETATM   30  C   UNL     1      25.175  47.136  50.780  1.00  0.00     0.030 A 
BRANCH  28  31
HETATM   31  C   UNL     1      26.449  45.850  54.090  1.00  0.00     0.155 C 
HETATM   32  C   UNL     1      27.068  47.115  54.625  1.00  0.00     0.096 C 
HETATM   33  O   UNL     1      26.538  44.789  54.703  1.00  0.00    -0.293 OA
ENDBRANCH  28  31
ENDBRANCH  21  25
ENDBRANCH   1  19
BRANCH  12  34
HETATM   34  C   UNL     1      16.695  51.157  43.216  1.00  0.00     0.086 C 
HETATM   35  C   UNL     1      16.388  52.463  42.468  1.00  0.00     0.025 C 
HETATM   36  C   UNL     1      17.653  53.244  42.106  1.00  0.00     0.002 C 
HETATM   37  C   UNL     1      18.649  52.381  41.337  1.00  0.00     0.000 C 
HETATM   38  C   UNL     1      18.983  51.096  42.086  1.00  0.00     0.002 C 
HETATM   39  C   UNL     1      17.724  50.312  42.454  1.00  0.00     0.025 C 
ENDBRANCH  12  34
TORSDOF 4
ENDMDL
MODEL 2
REMARK VINA RESULT:      -9.5      1.307      1.512
REMARK  4 active torsions:
REMARK  status: ('A' for Active; 'I' for Inactive)
REMARK    1  A    between atoms: C_2  and  C_3 
REMARK    2  A    between atoms: C_6  and  N_7 
REMARK       I    between atoms: N_7  and  C_8 
REMARK       I    between atoms: C_8  and  N_9 
REMARK    3  A    between atoms: N_9  and  C_10 
REMARK       I    between atoms: N_19  and  C_20 
REMARK       I    between atoms: C_20  and  N_21 
REMARK    4  A    between atoms: N_21  and  C_22 
ROOT
HETATM    1  C   UNL     1      21.483  49.607  48.729  1.00  0.00     0.105 A 
HETATM    2  C   UNL     1      20.183  48.849  48.884  1.00  0.00     0.274 A 
HETATM    3  O   UNL     1      20.227  47.673  49.259  1.00  0.00    -0.265 OA
HETATM    4  N   UNL     1      18.998  49.546  48.613  1.00  0.00    -0.315 N 
HETATM    5  C   UNL     1      18.998  50.889  48.246  1.00  0.00     0.020 A 
HETATM    6  C   UNL     1      17.679  51.619  48.071  1.00  0.00     0.054 C 
HETATM    7  C   UNL     1      16.604  51.021  48.970  1.00  0.00     0.020 C 
HETATM    8  C   UNL     1      16.443  49.566  48.561  1.00  0.00     0.023 C 
HETATM    9  C   UNL     1      15.983  49.470  47.100  1.00  0.00     0.134 C 
HETATM   10  N   UNL     1      16.747  50.273  46.147  1.00  0.00    -0.333 N 
HETATM   11  C   UNL     1      16.576  49.941  44.803  1.00  0.00     0.318 C 
HETATM   12  N   UNL     1      17.100  50.833  43.902  1.00  0.00    -0.338 N 
HETATM   13  O   UNL     1      16.003  48.914  44.444  1.00  0.00    -0.247 OA
HETATM   14  C   UNL     1      17.220  51.584  46.604  1.00  0.00     0.138 C 
HETATM   15  C   UNL     1      17.752  48.805  48.818  1.00  0.00     0.138 C 
HETATM   16  C   UNL     1      20.164  51.536  48.085  1.00  0.00     0.028 A 
HETATM   17  C   UNL     1      21.423  50.877  48.308  1.00  0.00     0.037 A 
HETATM   18  H   UNL     1      17.199  51.782  44.209  1.00  0.00     0.164 HD
ENDROOT
BRANCH   1  19
HETATM   19  N   UNL     1      22.625  48.910  49.085  1.00  0.00    -0.304 N 
HETATM   20  C   UNL     1      23.873  49.003  48.547  1.00  0.00     0.325 C 
HETATM   21  N   UNL     1      24.890  48.344  49.170  1.00  0.00    -0.309 N 
HETATM   22  O   UNL     1      24.176  49.715  47.590  1.00  0.00    -0.247 OA
HETATM   23  H   UNL     1      25.779  48.708  48.844  1.00  0.00     0.170 HD
HETATM   24  H   UNL     1      22.523  48.402  49.955  1.00  0.00     0.171 HD
BRANCH  21  25
HETATM   25  C   UNL     1      24.957  47.332  50.139  1.00  0.00     0.036 A 
HETATM   26  C   UNL     1      24.269  46.119  50.074  1.00  0.00     0.030 A 
HETATM   27  C   UNL     1      24.426  45.158  51.086  1.00  0.00     0.017 A 
HETATM   28  C   UNL     1      25.286  45.397  52.165  1.00  0.00     0.009 A 
HETATM   29  C   UNL     1      25.991  46.602  52.218  1.00  0.00     0.017 A 
HETATM   30  C   UNL     1      25.838  47.552  51.206  1.00  0.00     0.030 A 
BRANCH  28  31
HETATM   31  C   UNL     1      25.496  44.408  53.264  1.00  0.00     0.155 C 
HETATM   32  C   UNL     1      26.788  43.634  53.313  1.00  0.00     0.096 C 
HETATM   33  O   UNL     1      24.620  44.239  54.109  1.00  0.00    -0.293 OA
ENDBRANCH  28  31
ENDBRANCH  21  25
ENDBRANCH   1  19
BRANCH  12  34
HETATM   34  C   UNL     1      16.934  50.653  42.462  1.00  0.00     0.086 C 
HETATM   35  C   UNL     1      16.652  51.994  41.768  1.00  0.00     0.025 C 
HETATM   36  C   UNL     1      17.881  52.904  41.726  1.00  0.00     0.002 C 
HETATM   37  C   UNL     1      19.086  52.199  41.110  1.00  0.00     0.000 C 
HETATM   38  C   UNL     1      19.392  50.881  41.813  1.00  0.00     0.002 C 
HETATM   39  C   UNL     1      18.168  49.968  41.861  1.00  0.00     0.025 C 
ENDBRANCH  12  34
TORSDOF 4
ENDMDL
MODEL 3
REMARK VINA RESULT:      -9.2      2.180      3.409
REMARK  4 active torsions:
REMARK  status: ('A' for Active; 'I' for Inactive)
REMARK    1  A    between atoms: C_2  and  C_3 
REMARK    2  A    between atoms: C_6  and  N_7 
REMARK       I    between atoms: N_7  and  C_8 
REMARK       I    between atoms: C_8  and  N_9 
REMARK    3  A    between atoms: N_9  and  C_10 
REMARK       I    between atoms: N_19  and  C_20 
REMARK       I    between atoms: C_20  and  N_21 
REMARK    4  A    between atoms: N_21  and  C_22 
ROOT
HETATM    1  C   UNL     1      21.532  48.751  48.754  1.00  0.00     0.105 A 
HETATM    2  C   UNL     1      20.127  48.736  49.313  1.00  0.00     0.274 A 
HETATM    3  O   UNL     1      19.731  47.717  49.886  1.00  0.00    -0.265 OA
HETATM    4  N   UNL     1      19.366  49.903  49.166  1.00  0.00    -0.315 N 
HETATM    5  C   UNL     1      19.877  51.048  48.560  1.00  0.00     0.020 A 
HETATM    6  C   UNL     1      19.043  52.315  48.526  1.00  0.00     0.054 C 
HETATM    7  C   UNL     1      18.103  52.379  49.723  1.00  0.00     0.020 C 
HETATM    8  C   UNL     1      17.194  51.164  49.638  1.00  0.00     0.023 C 
HETATM    9  C   UNL     1      16.362  51.208  48.348  1.00  0.00     0.134 C 
HETATM   10  N   UNL     1      17.118  51.471  47.124  1.00  0.00    -0.333 N 
HETATM   11  C   UNL     1      16.457  51.176  45.932  1.00  0.00     0.318 C 
HETATM   12  N   UNL     1      17.063  51.636  44.790  1.00  0.00    -0.338 N 
HETATM   13  O   UNL     1      15.407  50.538  45.898  1.00  0.00    -0.247 OA
HETATM   14  C   UNL     1      18.239  52.411  47.219  1.00  0.00     0.138 C 
HETATM   15  C   UNL     1      18.028  49.880  49.759  1.00  0.00     0.138 C 
HETATM   16  C   UNL     1      21.117  51.032  48.043  1.00  0.00     0.028 A 
HETATM   17  C   UNL     1      21.946  49.858  48.122  1.00  0.00     0.037 A 
HETATM   18  H   UNL     1      17.662  52.435  44.885  1.00  0.00     0.164 HD
ENDROOT
BRANCH   1  19
HETATM   19  N   UNL     1      22.281  47.611  48.992  1.00  0.00    -0.304 N 
HETATM   20  C   UNL     1      23.469  47.503  49.647  1.00  0.00     0.325 C 
HETATM   21  N   UNL     1      23.943  46.253  49.914  1.00  0.00    -0.309 N 
HETATM   22  O   UNL     1      24.110  48.449  50.105  1.00  0.00    -0.247 OA
HETATM   23  H   UNL     1      24.665  46.309  50.623  1.00  0.00     0.170 HD
HETATM   24  H   UNL     1      21.777  46.758  48.784  1.00  0.00     0.171 HD
BRANCH  21  25
HETATM   25  C   UNL     1      23.635  44.966  49.449  1.00  0.00     0.036 A 
HETATM   26  C   UNL     1      23.330  43.875  50.265  1.00  0.00     0.030 A 
HETATM   27  C   UNL     1      23.009  42.631  49.698  1.00  0.00     0.017 A 
HETATM   28  C   UNL     1      22.975  42.472  48.307  1.00  0.00     0.009 A 
HETATM   29  C   UNL     1      23.260  43.570  47.491  1.00  0.00     0.017 A 
HETATM   30  C   UNL     1      23.572  44.807  48.059  1.00  0.00     0.030 A 
BRANCH  28  31
HETATM   31  C   UNL     1      22.633  41.176  47.651  1.00  0.00     0.155 C 
HETATM   32  C   UNL     1      23.746  40.237  47.265  1.00  0.00     0.096 C 
HETATM   33  O   UNL     1      21.457  40.892  47.434  1.00  0.00    -0.293 OA
ENDBRANCH  28  31
ENDBRANCH  21  25
ENDBRANCH   1  19
BRANCH  12  34
HETATM   34  C   UNL     1      16.449  51.465  43.475  1.00  0.00     0.086 C 
HETATM   35  C   UNL     1      16.107  52.824  42.846  1.00  0.00     0.025 C 
HETATM   36  C   UNL     1      17.351  53.595  42.400  1.00  0.00     0.002 C 
HETATM   37  C   UNL     1      18.233  52.759  41.477  1.00  0.00     0.000 C 
HETATM   38  C   UNL     1      18.604  51.421  42.107  1.00  0.00     0.002 C 
HETATM   39  C   UNL     1      17.367  50.646  42.558  1.00  0.00     0.025 C 
ENDBRANCH  12  34
TORSDOF 4
ENDMDL
MODEL 4
REMARK VINA RESULT:      -8.6      7.411     11.530
REMARK  4 active torsions:
REMARK  status: ('A' for Active; 'I' for Inactive)
REMARK    1  A    between atoms: C_2  and  C_3 
REMARK    2  A    between atoms: C_6  and  N_7 
REMARK       I    between atoms: N_7  and  C_8 
REMARK       I    between atoms: C_8  and  N_9 
REMARK    3  A    between atoms: N_9  and  C_10 
REMARK       I    between atoms: N_19  and  C_20 
REMARK       I    between atoms: C_20  and  N_21 
REMARK    4  A    between atoms: N_21  and  C_22 
ROOT
HETATM    1  C   UNL     1      23.287  42.293  48.180  1.00  0.00     0.105 A 
HETATM    2  C   UNL     1      22.090  42.339  47.257  1.00  0.00     0.274 A 
HETATM    3  O   UNL     1      21.418  43.373  47.213  1.00  0.00    -0.265 OA
HETATM    4  N   UNL     1      21.833  41.199  46.483  1.00  0.00    -0.315 N 
HETATM    5  C   UNL     1      22.654  40.075  46.528  1.00  0.00     0.020 A 
HETATM    6  C   UNL     1      22.387  38.913  45.588  1.00  0.00     0.054 C 
HETATM    7  C   UNL     1      21.740  39.397  44.297  1.00  0.00     0.020 C 
HETATM    8  C   UNL     1      20.426  40.059  44.680  1.00  0.00     0.023 C 
HETATM    9  C   UNL     1      19.494  39.043  45.356  1.00  0.00     0.134 C 
HETATM   10  N   UNL     1      20.098  38.255  46.430  1.00  0.00    -0.333 N 
HETATM   11  C   UNL     1      19.202  37.594  47.270  1.00  0.00     0.318 C 
HETATM   12  N   UNL     1      19.760  36.674  48.123  1.00  0.00    -0.338 N 
HETATM   13  O   UNL     1      17.994  37.821  47.258  1.00  0.00    -0.247 OA
HETATM   14  C   UNL     1      21.498  37.854  46.259  1.00  0.00     0.138 C 
HETATM   15  C   UNL     1      20.699  41.286  45.562  1.00  0.00     0.138 C 
HETATM   16  C   UNL     1      23.695  40.042  47.377  1.00  0.00     0.028 A 
HETATM   17  C   UNL     1      23.999  41.160  48.230  1.00  0.00     0.037 A 
HETATM   18  H   UNL     1      20.631  36.264  47.841  1.00  0.00     0.164 HD
ENDROOT
BRANCH   1  19
HETATM   19  N   UNL     1      23.556  43.465  48.866  1.00  0.00    -0.304 N 
HETATM   20  C   UNL     1      23.029  43.895  50.045  1.00  0.00     0.325 C 
HETATM   21  N   UNL     1      23.568  45.005  50.623  1.00  0.00    -0.309 N 
HETATM   22  O   UNL     1      22.159  43.303  50.684  1.00  0.00    -0.247 OA
HETATM   23  H   UNL     1      23.284  45.053  51.595  1.00  0.00     0.170 HD
HETATM   24  H   UNL     1      24.363  43.959  48.502  1.00  0.00     0.171 HD
BRANCH  21  25
HETATM   25  C   UNL     1      24.414  46.031  50.178  1.00  0.00     0.036 A 
HETATM   26  C   UNL     1      25.809  45.973  50.181  1.00  0.00     0.030 A 
HETATM   27  C   UNL     1      26.566  47.047  49.687  1.00  0.00     0.017 A 
HETATM   28  C   UNL     1      25.933  48.185  49.171  1.00  0.00     0.009 A 
HETATM   29  C   UNL     1      24.537  48.234  49.149  1.00  0.00     0.017 A 
HETATM   30  C   UNL     1      23.787  47.160  49.635  1.00  0.00     0.030 A 
BRANCH  28  31
HETATM   31  C   UNL     1      26.688  49.352  48.627  1.00  0.00     0.155 C 
HETATM   32  C   UNL     1      28.057  49.657  49.177  1.00  0.00     0.096 C 
HETATM   33  O   UNL     1      26.187  50.045  47.745  1.00  0.00    -0.293 OA
ENDBRANCH  28  31
ENDBRANCH  21  25
ENDBRANCH   1  19
BRANCH  12  34
HETATM   34  C   UNL     1      18.937  35.854  49.008  1.00  0.00     0.086 C 
HETATM   35  C   UNL     1      18.074  34.871  48.203  1.00  0.00     0.025 C 
HETATM   36  C   UNL     1      18.896  33.744  47.576  1.00  0.00     0.002 C 
HETATM   37  C   UNL     1      19.747  33.019  48.614  1.00  0.00     0.000 C 
HETATM   38  C   UNL     1      20.631  33.984  49.397  1.00  0.00     0.002 C 
HETATM   39  C   UNL     1      19.816  35.115  50.024  1.00  0.00     0.025 C 
ENDBRANCH  12  34
TORSDOF 4
ENDMDL
MODEL 5
REMARK VINA RESULT:      -8.4      9.754     11.717
REMARK  4 active torsions:
REMARK  status: ('A' for Active; 'I' for Inactive)
REMARK    1  A    between atoms: C_2  and  C_3 
REMARK    2  A    between atoms: C_6  and  N_7 
REMARK       I    between atoms: N_7  and  C_8 
REMARK       I    between atoms: C_8  and  N_9 
REMARK    3  A    between atoms: N_9  and  C_10 
REMARK       I    between atoms: N_19  and  C_20 
REMARK       I    between atoms: C_20  and  N_21 
REMARK    4  A    between atoms: N_21  and  C_22 
ROOT
HETATM    1  C   UNL     1      26.519  41.192  50.463  1.00  0.00     0.105 A 
HETATM    2  C   UNL     1      26.952  41.638  49.084  1.00  0.00     0.274 A 
HETATM    3  O   UNL     1      27.230  42.828  48.908  1.00  0.00    -0.265 OA
HETATM    4  N   UNL     1      27.033  40.654  48.088  1.00  0.00    -0.315 N 
HETATM    5  C   UNL     1      26.761  39.314  48.350  1.00  0.00     0.020 A 
HETATM    6  C   UNL     1      26.972  38.279  47.259  1.00  0.00     0.054 C 
HETATM    7  C   UNL     1      28.075  38.715  46.303  1.00  0.00     0.020 C 
HETATM    8  C   UNL     1      27.631  40.030  45.684  1.00  0.00     0.023 C 
HETATM    9  C   UNL     1      26.331  39.836  44.890  1.00  0.00     0.134 C 
HETATM   10  N   UNL     1      25.267  39.123  45.596  1.00  0.00    -0.333 N 
HETATM   11  C   UNL     1      23.993  39.238  45.041  1.00  0.00     0.318 C 
HETATM   12  N   UNL     1      23.044  38.390  45.555  1.00  0.00    -0.338 N 
HETATM   13  O   UNL     1      23.728  40.050  44.157  1.00  0.00    -0.247 OA
HETATM   14  C   UNL     1      25.670  38.026  46.482  1.00  0.00     0.138 C 
HETATM   15  C   UNL     1      27.501  41.102  46.776  1.00  0.00     0.138 C 
HETATM   16  C   UNL     1      26.350  38.943  49.574  1.00  0.00     0.028 A 
HETATM   17  C   UNL     1      26.206  39.901  50.637  1.00  0.00     0.037 A 
HETATM   18  H   UNL     1      23.374  37.535  45.963  1.00  0.00     0.164 HD
ENDROOT
BRANCH   1  19
HETATM   19  N   UNL     1      26.531  42.175  51.437  1.00  0.00    -0.304 N 
HETATM   20  C   UNL     1      25.515  42.998  51.819  1.00  0.00     0.325 C 
HETATM   21  N   UNL     1      25.700  43.777  52.922  1.00  0.00    -0.309 N 
HETATM   22  O   UNL     1      24.399  43.026  51.300  1.00  0.00    -0.247 OA
HETATM   23  H   UNL     1      24.804  44.120  53.249  1.00  0.00     0.170 HD
HETATM   24  H   UNL     1      27.355  42.139  52.024  1.00  0.00     0.171 HD
BRANCH  21  25
HETATM   25  C   UNL     1      26.819  44.164  53.674  1.00  0.00     0.036 A 
HETATM   26  C   UNL     1      27.077  45.465  54.109  1.00  0.00     0.030 A 
HETATM   27  C   UNL     1      28.215  45.744  54.883  1.00  0.00     0.017 A 
HETATM   28  C   UNL     1      29.098  44.719  55.242  1.00  0.00     0.009 A 
HETATM   29  C   UNL     1      28.829  43.413  54.824  1.00  0.00     0.017 A 
HETATM   30  C   UNL     1      27.691  43.139  54.061  1.00  0.00     0.030 A 
BRANCH  28  31
HETATM   31  C   UNL     1      30.319  44.957  56.067  1.00  0.00     0.155 C 
HETATM   32  C   UNL     1      31.284  43.822  56.288  1.00  0.00     0.096 C 
HETATM   33  O   UNL     1      30.520  46.067  56.554  1.00  0.00    -0.293 OA
ENDBRANCH  28  31
ENDBRANCH  21  25
ENDBRANCH   1  19
BRANCH  12  34
HETATM   34  C   UNL     1      21.685  38.348  45.022  1.00  0.00     0.086 C 
HETATM   35  C   UNL     1      21.112  36.924  45.086  1.00  0.00     0.025 C 
HETATM   36  C   UNL     1      20.792  36.483  46.515  1.00  0.00     0.002 C 
HETATM   37  C   UNL     1      19.884  37.482  47.225  1.00  0.00     0.000 C 
HETATM   38  C   UNL     1      20.459  38.893  47.194  1.00  0.00     0.002 C 
HETATM   39  C   UNL     1      20.785  39.340  45.769  1.00  0.00     0.025 C 
ENDBRANCH  12  34
TORSDOF 4
ENDMDL
MODEL 6
REMARK VINA RESULT:      -8.4      9.437     11.800
REMARK  4 active torsions:
REMARK  status: ('A' for Active; 'I' for Inactive)
REMARK    1  A    between atoms: C_2  and  C_3 
REMARK    2  A    between atoms: C_6  and  N_7 
REMARK       I    between atoms: N_7  and  C_8 
REMARK       I    between atoms: C_8  and  N_9 
REMARK    3  A    between atoms: N_9  and  C_10 
REMARK       I    between atoms: N_19  and  C_20 
REMARK       I    between atoms: C_20  and  N_21 
REMARK    4  A    between atoms: N_21  and  C_22 
ROOT
HETATM    1  C   UNL     1      26.503  40.169  49.285  1.00  0.00     0.105 A 
HETATM    2  C   UNL     1      25.413  41.143  48.899  1.00  0.00     0.274 A 
HETATM    3  O   UNL     1      25.270  42.167  49.574  1.00  0.00    -0.265 OA
HETATM    4  N   UNL     1      24.642  40.829  47.771  1.00  0.00    -0.315 N 
HETATM    5  C   UNL     1      24.878  39.687  47.010  1.00  0.00     0.020 A 
HETATM    6  C   UNL     1      24.082  39.456  45.738  1.00  0.00     0.054 C 
HETATM    7  C   UNL     1      23.662  40.780  45.112  1.00  0.00     0.020 C 
HETATM    8  C   UNL     1      22.798  41.500  46.135  1.00  0.00     0.023 C 
HETATM    9  C   UNL     1      21.542  40.675  46.448  1.00  0.00     0.134 C 
HETATM   10  N   UNL     1      21.778  39.265  46.757  1.00  0.00    -0.333 N 
HETATM   11  C   UNL     1      20.719  38.596  47.370  1.00  0.00     0.318 C 
HETATM   12  N   UNL     1      20.846  37.232  47.446  1.00  0.00    -0.338 N 
HETATM   13  O   UNL     1      19.739  39.184  47.822  1.00  0.00    -0.247 OA
HETATM   14  C   UNL     1      22.845  38.587  46.013  1.00  0.00     0.138 C 
HETATM   15  C   UNL     1      23.627  41.812  47.389  1.00  0.00     0.138 C 
HETATM   16  C   UNL     1      25.832  38.820  47.386  1.00  0.00     0.028 A 
HETATM   17  C   UNL     1      26.639  39.054  48.554  1.00  0.00     0.037 A 
HETATM   18  H   UNL     1      21.430  36.792  46.760  1.00  0.00     0.164 HD
ENDROOT
BRANCH   1  19
HETATM   19  N   UNL     1      27.296  40.554  50.353  1.00  0.00    -0.304 N 
HETATM   20  C   UNL     1      28.396  39.930  50.857  1.00  0.00     0.325 C 
HETATM   21  N   UNL     1      29.124  40.580  51.808  1.00  0.00    -0.309 N 
HETATM   22  O   UNL     1      28.843  38.856  50.453  1.00  0.00    -0.247 OA
HETATM   23  H   UNL     1      30.036  40.146  51.892  1.00  0.00     0.170 HD
HETATM   24  H   UNL     1      27.102  41.497  50.668  1.00  0.00     0.171 HD
BRANCH  21  25
HETATM   25  C   UNL     1      28.890  41.687  52.637  1.00  0.00     0.036 A 
HETATM   26  C   UNL     1      27.641  42.059  53.138  1.00  0.00     0.030 A 
HETATM   27  C   UNL     1      27.518  43.173  53.984  1.00  0.00     0.017 A 
HETATM   28  C   UNL     1      28.647  43.916  54.349  1.00  0.00     0.009 A 
HETATM   29  C   UNL     1      29.900  43.531  53.864  1.00  0.00     0.017 A 
HETATM   30  C   UNL     1      30.019  42.419  53.028  1.00  0.00     0.030 A 
BRANCH  28  31
HETATM   31  C   UNL     1      28.575  45.104  55.250  1.00  0.00     0.155 C 
HETATM   32  C   UNL     1      29.814  45.534  55.992  1.00  0.00     0.096 C 
HETATM   33  O   UNL     1      27.515  45.712  55.376  1.00  0.00    -0.293 OA
ENDBRANCH  28  31
ENDBRANCH  21  25
ENDBRANCH   1  19
BRANCH  12  34
HETATM   34  C   UNL     1      19.784  36.394  47.997  1.00  0.00     0.086 C 
HETATM   35  C   UNL     1      18.863  35.871  46.884  1.00  0.00     0.025 C 
HETATM   36  C   UNL     1      19.538  34.810  46.013  1.00  0.00     0.002 C 
HETATM   37  C   UNL     1      20.106  33.668  46.850  1.00  0.00     0.000 C 
HETATM   38  C   UNL     1      21.046  34.176  47.938  1.00  0.00     0.002 C 
HETATM   39  C   UNL     1      20.380  35.239  48.811  1.00  0.00     0.025 C 
ENDBRANCH  12  34
TORSDOF 4
ENDMDL
MODEL 7
REMARK VINA RESULT:      -8.4      2.675      4.699
REMARK  4 active torsions:
REMARK  status: ('A' for Active; 'I' for Inactive)
REMARK    1  A    between atoms: C_2  and  C_3 
REMARK    2  A    between atoms: C_6  and  N_7 
REMARK       I    between atoms: N_7  and  C_8 
REMARK       I    between atoms: C_8  and  N_9 
REMARK    3  A    between atoms: N_9  and  C_10 
REMARK       I    between atoms: N_19  and  C_20 
REMARK       I    between atoms: C_20  and  N_21 
REMARK    4  A    between atoms: N_21  and  C_22 
ROOT
HETATM    1  C   UNL     1      20.907  45.419  48.505  1.00  0.00     0.105 A 
HETATM    2  C   UNL     1      21.143  45.827  47.068  1.00  0.00     0.274 A 
HETATM    3  O   UNL     1      22.302  45.847  46.643  1.00  0.00    -0.265 OA
HETATM    4  N   UNL     1      20.015  46.135  46.295  1.00  0.00    -0.315 N 
HETATM    5  C   UNL     1      18.722  46.044  46.805  1.00  0.00     0.020 A 
HETATM    6  C   UNL     1      17.536  46.285  45.889  1.00  0.00     0.054 C 
HETATM    7  C   UNL     1      17.873  45.906  44.452  1.00  0.00     0.020 C 
HETATM    8  C   UNL     1      19.039  46.784  44.024  1.00  0.00     0.023 C 
HETATM    9  C   UNL     1      18.637  48.265  44.069  1.00  0.00     0.134 C 
HETATM   10  N   UNL     1      17.988  48.701  45.305  1.00  0.00    -0.333 N 
HETATM   11  C   UNL     1      17.933  50.081  45.502  1.00  0.00     0.318 C 
HETATM   12  N   UNL     1      17.125  50.499  46.530  1.00  0.00    -0.338 N 
HETATM   13  O   UNL     1      18.569  50.874  44.811  1.00  0.00    -0.247 OA
HETATM   14  C   UNL     1      17.079  47.752  45.955  1.00  0.00     0.138 C 
HETATM   15  C   UNL     1      20.267  46.479  44.895  1.00  0.00     0.138 C 
HETATM   16  C   UNL     1      18.535  45.708  48.092  1.00  0.00     0.028 A 
HETATM   17  C   UNL     1      19.646  45.414  48.958  1.00  0.00     0.037 A 
HETATM   18  H   UNL     1      16.371  49.892  46.790  1.00  0.00     0.164 HD
ENDROOT
BRANCH   1  19
HETATM   19  N   UNL     1      22.036  45.043  49.211  1.00  0.00    -0.304 N 
HETATM   20  C   UNL     1      22.722  43.868  49.145  1.00  0.00     0.325 C 
HETATM   21  N   UNL     1      23.910  43.780  49.808  1.00  0.00    -0.309 N 
HETATM   22  O   UNL     1      22.398  42.902  48.454  1.00  0.00    -0.247 OA
HETATM   23  H   UNL     1      24.432  42.983  49.462  1.00  0.00     0.170 HD
HETATM   24  H   UNL     1      22.470  45.815  49.703  1.00  0.00     0.171 HD
BRANCH  21  25
HETATM   25  C   UNL     1      24.538  44.542  50.803  1.00  0.00     0.036 A 
HETATM   26  C   UNL     1      24.792  45.912  50.717  1.00  0.00     0.030 A 
HETATM   27  C   UNL     1      25.404  46.590  51.784  1.00  0.00     0.017 A 
HETATM   28  C   UNL     1      25.753  45.905  52.954  1.00  0.00     0.009 A 
HETATM   29  C   UNL     1      25.479  44.537  53.048  1.00  0.00     0.017 A 
HETATM   30  C   UNL     1      24.864  43.869  51.987  1.00  0.00     0.030 A 
BRANCH  28  31
HETATM   31  C   UNL     1      26.399  46.575  54.121  1.00  0.00     0.155 C 
HETATM   32  C   UNL     1      27.746  46.090  54.589  1.00  0.00     0.096 C 
HETATM   33  O   UNL     1      25.828  47.509  54.681  1.00  0.00    -0.293 OA
ENDBRANCH  28  31
ENDBRANCH  21  25
ENDBRANCH   1  19
BRANCH  12  34
HETATM   34  C   UNL     1      16.913  51.918  46.808  1.00  0.00     0.086 C 
HETATM   35  C   UNL     1      15.579  52.143  47.535  1.00  0.00     0.025 C 
HETATM   36  C   UNL     1      15.607  51.646  48.981  1.00  0.00     0.002 C 
HETATM   37  C   UNL     1      16.776  52.242  49.761  1.00  0.00     0.000 C 
HETATM   38  C   UNL     1      18.108  51.996  49.063  1.00  0.00     0.002 C 
HETATM   39  C   UNL     1      18.087  52.487  47.615  1.00  0.00     0.025 C 
ENDBRANCH  12  34
TORSDOF 4
ENDMDL
MODEL 8
REMARK VINA RESULT:      -8.2      2.361      2.740
REMARK  4 active torsions:
REMARK  status: ('A' for Active; 'I' for Inactive)
REMARK    1  A    between atoms: C_2  and  C_3 
REMARK    2  A    between atoms: C_6  and  N_7 
REMARK       I    between atoms: N_7  and  C_8 
REMARK       I    between atoms: C_8  and  N_9 
REMARK    3  A    between atoms: N_9  and  C_10 
REMARK       I    between atoms: N_19  and  C_20 
REMARK       I    between atoms: C_20  and  N_21 
REMARK    4  A    between atoms: N_21  and  C_22 
ROOT
HETATM    1  C   UNL     1      21.956  46.719  48.375  1.00  0.00     0.105 A 
HETATM    2  C   UNL     1      20.543  46.180  48.415  1.00  0.00     0.274 A 
HETATM    3  O   UNL     1      20.375  44.979  48.644  1.00  0.00    -0.265 OA
HETATM    4  N   UNL     1      19.502  47.096  48.212  1.00  0.00    -0.315 N 
HETATM    5  C   UNL     1      19.740  48.454  48.012  1.00  0.00     0.020 A 
HETATM    6  C   UNL     1      18.568  49.413  47.906  1.00  0.00     0.054 C 
HETATM    7  C   UNL     1      17.376  48.905  48.708  1.00  0.00     0.020 C 
HETATM    8  C   UNL     1      16.990  47.557  48.122  1.00  0.00     0.023 C 
HETATM    9  C   UNL     1      16.573  47.713  46.652  1.00  0.00     0.134 C 
HETATM   10  N   UNL     1      17.496  48.481  45.817  1.00  0.00    -0.333 N 
HETATM   11  C   UNL     1      17.321  48.342  44.440  1.00  0.00     0.318 C 
HETATM   12  N   UNL     1      18.019  49.232  43.663  1.00  0.00    -0.338 N 
HETATM   13  O   UNL     1      16.598  47.478  43.949  1.00  0.00    -0.247 OA
HETATM   14  C   UNL     1      18.164  49.629  46.439  1.00  0.00     0.138 C 
HETATM   15  C   UNL     1      18.143  46.560  48.305  1.00  0.00     0.138 C 
HETATM   16  C   UNL     1      21.002  48.907  47.950  1.00  0.00     0.028 A 
HETATM   17  C   UNL     1      22.125  48.021  48.111  1.00  0.00     0.037 A 
HETATM   18  H   UNL     1      18.264  50.108  44.085  1.00  0.00     0.164 HD
ENDROOT
BRANCH   1  19
HETATM   19  N   UNL     1      22.951  45.801  48.661  1.00  0.00    -0.304 N 
HETATM   20  C   UNL     1      23.433  44.802  47.871  1.00  0.00     0.325 C 
HETATM   21  N   UNL     1      24.537  44.125  48.293  1.00  0.00    -0.309 N 
HETATM   22  O   UNL     1      23.003  44.521  46.752  1.00  0.00    -0.247 OA
HETATM   23  H   UNL     1      24.942  43.618  47.514  1.00  0.00     0.170 HD
HETATM   24  H   UNL     1      23.471  46.031  49.499  1.00  0.00     0.171 HD
BRANCH  21  25
HETATM   25  C   UNL     1      25.210  44.011  49.518  1.00  0.00     0.036 A 
HETATM   26  C   UNL     1      24.738  43.302  50.625  1.00  0.00     0.030 A 
HETATM   27  C   UNL     1      25.503  43.226  51.800  1.00  0.00     0.017 A 
HETATM   28  C   UNL     1      26.756  43.846  51.873  1.00  0.00     0.009 A 
HETATM   29  C   UNL     1      27.237  44.538  50.758  1.00  0.00     0.017 A 
HETATM   30  C   UNL     1      26.477  44.605  49.589  1.00  0.00     0.030 A 
BRANCH  28  31
HETATM   31  C   UNL     1      27.614  43.792  53.093  1.00  0.00     0.155 C 
HETATM   32  C   UNL     1      26.956  43.700  54.445  1.00  0.00     0.096 C 
HETATM   33  O   UNL     1      28.837  43.822  52.981  1.00  0.00    -0.293 OA
ENDBRANCH  28  31
ENDBRANCH  21  25
ENDBRANCH   1  19
BRANCH  12  34
HETATM   34  C   UNL     1      17.878  49.253  42.209  1.00  0.00     0.086 C 
HETATM   35  C   UNL     1      16.841  50.298  41.772  1.00  0.00     0.025 C 
HETATM   36  C   UNL     1      17.339  51.733  41.956  1.00  0.00     0.002 C 
HETATM   37  C   UNL     1      18.683  51.958  41.269  1.00  0.00     0.000 C 
HETATM   38  C   UNL     1      19.727  50.944  41.721  1.00  0.00     0.002 C 
HETATM   39  C   UNL     1      19.236  49.508  41.543  1.00  0.00     0.025 C 
ENDBRANCH  12  34
TORSDOF 4
ENDMDL
MODEL 9
REMARK VINA RESULT:      -8.1      9.934     12.236
REMARK  4 active torsions:
REMARK  status: ('A' for Active; 'I' for Inactive)
REMARK    1  A    between atoms: C_2  and  C_3 
REMARK    2  A    between atoms: C_6  and  N_7 
REMARK       I    between atoms: N_7  and  C_8 
REMARK       I    between atoms: C_8  and  N_9 
REMARK    3  A    between atoms: N_9  and  C_10 
REMARK       I    between atoms: N_19  and  C_20 
REMARK       I    between atoms: C_20  and  N_21 
REMARK    4  A    between atoms: N_21  and  C_22 
ROOT
HETATM    1  C   UNL     1      27.548  49.650  40.092  1.00  0.00     0.105 A 
HETATM    2  C   UNL     1      27.242  49.566  38.613  1.00  0.00     0.274 A 
HETATM    3  O   UNL     1      27.864  50.300  37.839  1.00  0.00    -0.265 OA
HETATM    4  N   UNL     1      26.279  48.631  38.210  1.00  0.00    -0.315 N 
HETATM    5  C   UNL     1      25.643  47.786  39.116  1.00  0.00     0.020 A 
HETATM    6  C   UNL     1      24.689  46.721  38.607  1.00  0.00     0.054 C 
HETATM    7  C   UNL     1      25.080  46.266  37.207  1.00  0.00     0.020 C 
HETATM    8  C   UNL     1      25.011  47.490  36.307  1.00  0.00     0.023 C 
HETATM    9  C   UNL     1      23.580  48.045  36.271  1.00  0.00     0.134 C 
HETATM   10  N   UNL     1      22.945  48.230  37.575  1.00  0.00    -0.333 N 
HETATM   11  C   UNL     1      21.809  49.039  37.584  1.00  0.00     0.318 C 
HETATM   12  N   UNL     1      21.081  49.024  38.748  1.00  0.00    -0.338 N 
HETATM   13  O   UNL     1      21.481  49.728  36.621  1.00  0.00    -0.247 OA
HETATM   14  C   UNL     1      23.240  47.233  38.610  1.00  0.00     0.138 C 
HETATM   15  C   UNL     1      26.037  48.535  36.769  1.00  0.00     0.138 C 
HETATM   16  C   UNL     1      25.907  47.897  40.429  1.00  0.00     0.028 A 
HETATM   17  C   UNL     1      26.856  48.859  40.923  1.00  0.00     0.037 A 
HETATM   18  H   UNL     1      21.158  48.204  39.320  1.00  0.00     0.164 HD
ENDROOT
BRANCH   1  19
HETATM   19  N   UNL     1      28.562  50.525  40.442  1.00  0.00    -0.304 N 
HETATM   20  C   UNL     1      28.458  51.742  41.044  1.00  0.00     0.325 C 
HETATM   21  N   UNL     1      29.604  52.356  41.451  1.00  0.00    -0.309 N 
HETATM   22  O   UNL     1      27.397  52.294  41.336  1.00  0.00    -0.247 OA
HETATM   23  H   UNL     1      29.378  53.094  42.108  1.00  0.00     0.170 HD
HETATM   24  H   UNL     1      29.483  50.108  40.376  1.00  0.00     0.171 HD
BRANCH  21  25
HETATM   25  C   UNL     1      30.968  52.171  41.180  1.00  0.00     0.036 A 
HETATM   26  C   UNL     1      31.867  51.515  42.022  1.00  0.00     0.030 A 
HETATM   27  C   UNL     1      33.210  51.358  41.644  1.00  0.00     0.017 A 
HETATM   28  C   UNL     1      33.663  51.845  40.412  1.00  0.00     0.009 A 
HETATM   29  C   UNL     1      32.758  52.483  39.560  1.00  0.00     0.017 A 
HETATM   30  C   UNL     1      31.421  52.630  39.936  1.00  0.00     0.030 A 
BRANCH  28  31
HETATM   31  C   UNL     1      35.077  51.700  39.957  1.00  0.00     0.155 C 
HETATM   32  C   UNL     1      36.080  51.063  40.882  1.00  0.00     0.096 C 
HETATM   33  O   UNL     1      35.403  52.100  38.841  1.00  0.00    -0.293 OA
ENDBRANCH  28  31
ENDBRANCH  21  25
ENDBRANCH   1  19
BRANCH  12  34
HETATM   34  C   UNL     1      19.829  49.765  38.877  1.00  0.00     0.086 C 
HETATM   35  C   UNL     1      18.922  49.132  39.943  1.00  0.00     0.025 C 
HETATM   36  C   UNL     1      19.444  49.350  41.364  1.00  0.00     0.002 C 
HETATM   37  C   UNL     1      19.698  50.826  41.653  1.00  0.00     0.000 C 
HETATM   38  C   UNL     1      20.623  51.456  40.618  1.00  0.00     0.002 C 
HETATM   39  C   UNL     1      20.110  51.240  39.194  1.00  0.00     0.025 C 
ENDBRANCH  12  34
TORSDOF 4
ENDMDL
MODEL 10
REMARK VINA RESULT:      -7.9      6.057      9.389
REMARK  4 active torsions:
REMARK  status: ('A' for Active; 'I' for Inactive)
REMARK    1  A    between atoms: C_2  and  C_3 
REMARK    2  A    between atoms: C_6  and  N_7 
REMARK       I    between atoms: N_7  and  C_8 
REMARK       I    between atoms: C_8  and  N_9 
REMARK    3  A    between atoms: N_9  and  C_10 
REMARK       I    between atoms: N_19  and  C_20 
REMARK       I    between atoms: C_20  and  N_21 
REMARK    4  A    between atoms: N_21  and  C_22 
ROOT
HETATM    1  C   UNL     1      21.862  49.557  40.290  1.00  0.00     0.105 A 
HETATM    2  C   UNL     1      21.135  50.867  40.494  1.00  0.00     0.274 A 
HETATM    3  O   UNL     1      21.741  51.919  40.271  1.00  0.00    -0.265 OA
HETATM    4  N   UNL     1      19.796  50.801  40.905  1.00  0.00    -0.315 N 
HETATM    5  C   UNL     1      19.139  49.587  41.091  1.00  0.00     0.020 A 
HETATM    6  C   UNL     1      17.660  49.580  41.431  1.00  0.00     0.054 C 
HETATM    7  C   UNL     1      16.962  50.802  40.847  1.00  0.00     0.020 C 
HETATM    8  C   UNL     1      17.623  52.025  41.461  1.00  0.00     0.023 C 
HETATM    9  C   UNL     1      17.437  52.025  42.985  1.00  0.00     0.134 C 
HETATM   10  N   UNL     1      17.771  50.769  43.657  1.00  0.00    -0.333 N 
HETATM   11  C   UNL     1      17.940  50.851  45.039  1.00  0.00     0.318 C 
HETATM   12  N   UNL     1      18.019  49.650  45.697  1.00  0.00    -0.338 N 
HETATM   13  O   UNL     1      18.024  51.925  45.632  1.00  0.00    -0.247 OA
HETATM   14  C   UNL     1      17.444  49.525  42.952  1.00  0.00     0.138 C 
HETATM   15  C   UNL     1      19.101  52.081  41.047  1.00  0.00     0.138 C 
HETATM   16  C   UNL     1      19.811  48.435  40.933  1.00  0.00     0.028 A 
HETATM   17  C   UNL     1      21.197  48.423  40.550  1.00  0.00     0.037 A 
HETATM   18  H   UNL     1      17.578  48.863  45.259  1.00  0.00     0.164 HD
ENDROOT
BRANCH   1  19
HETATM   19  N   UNL     1      23.154  49.661  39.806  1.00  0.00    -0.304 N 
HETATM   20  C   UNL     1      23.562  49.841  38.519  1.00  0.00     0.325 C 
HETATM   21  N   UNL     1      24.883  50.089  38.294  1.00  0.00    -0.309 N 
HETATM   22  O   UNL     1      22.813  49.890  37.543  1.00  0.00    -0.247 OA
HETATM   23  H   UNL     1      25.002  50.466  37.360  1.00  0.00     0.170 HD
HETATM   24  H   UNL     1      23.842  49.778  40.540  1.00  0.00     0.171 HD
BRANCH  21  25
HETATM   25  C   UNL     1      26.051  49.958  39.058  1.00  0.00     0.036 A 
HETATM   26  C   UNL     1      26.264  48.977  40.028  1.00  0.00     0.030 A 
HETATM   27  C   UNL     1      27.484  48.915  40.721  1.00  0.00     0.017 A 
HETATM   28  C   UNL     1      28.508  49.827  40.440  1.00  0.00     0.009 A 
HETATM   29  C   UNL     1      28.302  50.797  39.454  1.00  0.00     0.017 A 
HETATM   30  C   UNL     1      27.091  50.849  38.761  1.00  0.00     0.030 A 
BRANCH  28  31
HETATM   31  C   UNL     1      29.826  49.804  41.140  1.00  0.00     0.155 C 
HETATM   32  C   UNL     1      30.120  48.686  42.106  1.00  0.00     0.096 C 
HETATM   33  O   UNL     1      30.649  50.691  40.923  1.00  0.00    -0.293 OA
ENDBRANCH  28  31
ENDBRANCH  21  25
ENDBRANCH   1  19
BRANCH  12  34
HETATM   34  C   UNL     1      18.124  49.580  47.152  1.00  0.00     0.086 C 
HETATM   35  C   UNL     1      16.734  49.490  47.801  1.00  0.00     0.025 C 
HETATM   36  C   UNL     1      16.065  48.134  47.573  1.00  0.00     0.002 C 
HETATM   37  C   UNL     1      16.962  46.980  48.012  1.00  0.00     0.000 C 
HETATM   38  C   UNL     1      18.333  47.044  47.349  1.00  0.00     0.002 C 
HETATM   39  C   UNL     1      19.007  48.398  47.570  1.00  0.00     0.025 C 
ENDBRANCH  12  34
TORSDOF 4
ENDMDL
