MODEL 1
REMARK VINA RESULT:      -7.5      0.000      0.000
REMARK  8 active torsions:
REMARK  status: ('A' for Active; 'I' for Inactive)
REMARK    1  A    between atoms: C_2  and  O_3 
REMARK    2  A    between atoms: O_3  and  C_4 
REMARK    3  A    between atoms: C_8  and  C_9 
REMARK       I    between atoms: C_9  and  N_10 
REMARK    4  A    between atoms: N_10  and  C_11 
REMARK    5  A    between atoms: N_22  and  C_23 
REMARK    6  A    between atoms: C_23  and  C_24 
REMARK    7  A    between atoms: C_24  and  C_25 
REMARK    8  A    between atoms: C_25  and  O_26 
ROOT
HETATM    1  C   UNL     1      23.198  48.348  48.526  1.00  0.00     0.102 A 
HETATM    2  C   UNL     1      21.937  48.770  48.120  1.00  0.00     0.113 A 
HETATM    3  C   UNL     1      21.698  50.163  47.903  1.00  0.00     0.002 A 
HETATM    4  C   UNL     1      20.236  50.496  47.668  1.00  0.00     0.138 C 
HETATM    5  C   UNL     1      19.598  49.737  48.832  1.00  0.00     0.161 C 
HETATM    6  C   UNL     1      19.505  48.337  48.242  1.00  0.00     0.155 C 
HETATM    7  C   UNL     1      19.094  47.267  49.278  1.00  0.00     0.072 C 
HETATM    8  N   UNL     1      18.600  48.394  47.000  1.00  0.00    -0.325 N 
HETATM    9  C   UNL     1      18.711  49.470  46.083  1.00  0.00     0.172 C 
HETATM   10  S   UNL     1      18.323  49.507  44.457  1.00  0.00    -0.041 SA
HETATM   11  N   UNL     1      19.297  50.629  46.591  1.00  0.00    -0.357 N 
HETATM   12  O   UNL     1      20.889  47.869  47.905  1.00  0.00    -0.316 OA
HETATM   13  C   UNL     1      22.725  51.094  47.999  1.00  0.00     0.012 A 
HETATM   14  C   UNL     1      24.004  50.640  48.322  1.00  0.00     0.003 A 
HETATM   15  C   UNL     1      24.238  49.281  48.587  1.00  0.00     0.040 A 
HETATM   16  H   UNL     1      19.449  51.348  45.902  1.00  0.00     0.162 HD
ENDROOT
BRANCH   5  17
HETATM   17  C   UNL     1      18.296  50.222  49.466  1.00  0.00     0.233 C 
HETATM   18  N   UNL     1      17.616  51.017  48.539  1.00  0.00    -0.326 N 
HETATM   19  H   UNL     1      17.983  51.023  47.601  1.00  0.00     0.169 HD
HETATM   20  O   UNL     1      17.977  50.046  50.633  1.00  0.00    -0.273 OA
BRANCH  18  21
HETATM   21  C   UNL     1      16.689  52.039  48.804  1.00  0.00     0.040 A 
HETATM   22  C   UNL     1      15.665  52.267  47.858  1.00  0.00    -0.035 A 
HETATM   23  C   UNL     1      15.563  51.553  46.533  1.00  0.00     0.050 C 
HETATM   24  C   UNL     1      14.772  53.330  48.067  1.00  0.00     0.015 A 
HETATM   25  C   UNL     1      14.862  54.139  49.203  1.00  0.00    -0.061 A 
HETATM   26  C   UNL     1      13.886  55.259  49.403  1.00  0.00     0.048 C 
HETATM   27  C   UNL     1      15.848  53.865  50.155  1.00  0.00     0.009 A 
HETATM   28  C   UNL     1      16.769  52.833  49.948  1.00  0.00     0.030 A 
ENDBRANCH  18  21
ENDBRANCH   5  17
BRANCH   8  29
HETATM   29  C   UNL     1      17.462  47.434  46.953  1.00  0.00     0.130 C 
BRANCH  29  30
HETATM   30  C   UNL     1      16.011  47.897  47.176  1.00  0.00     0.046 C 
BRANCH  30  31
HETATM   31  C   UNL     1      15.199  47.878  45.885  1.00  0.00     0.168 C 
BRANCH  31  32
HETATM   32  O   UNL     1      13.817  48.013  46.226  1.00  0.00    -0.396 OA
HETATM   33  C   UNL     1      12.972  47.533  45.188  1.00  0.00     0.201 C 
ENDBRANCH  31  32
ENDBRANCH  30  31
ENDBRANCH  29  30
ENDBRANCH   8  29
BRANCH   1  34
HETATM   34  O   UNL     1      23.461  47.067  48.919  1.00  0.00    -0.349 OA
BRANCH  34  35
HETATM   35  C   UNL     1      24.496  47.033  49.916  1.00  0.00     0.171 C 
HETATM   36  C   UNL     1      25.464  45.886  49.669  1.00  0.00     0.034 C 
ENDBRANCH  34  35
ENDBRANCH   1  34
TORSDOF 8
ENDMDL
MODEL 2
REMARK VINA RESULT:      -7.4      1.766      2.181
REMARK  8 active torsions:
REMARK  status: ('A' for Active; 'I' for Inactive)
REMARK    1  A    between atoms: C_2  and  O_3 
REMARK    2  A    between atoms: O_3  and  C_4 
REMARK    3  A    between atoms: C_8  and  C_9 
REMARK       I    between atoms: C_9  and  N_10 
REMARK    4  A    between atoms: N_10  and  C_11 
REMARK    5  A    between atoms: N_22  and  C_23 
REMARK    6  A    between atoms: C_23  and  C_24 
REMARK    7  A    between atoms: C_24  and  C_25 
REMARK    8  A    between atoms: C_25  and  O_26 
ROOT
HETATM    1  C   UNL     1      21.167  48.577  48.588  1.00  0.00     0.102 A 
HETATM    2  C   UNL     1      20.125  49.126  47.850  1.00  0.00     0.113 A 
HETATM    3  C   UNL     1      19.976  50.547  47.793  1.00  0.00     0.002 A 
HETATM    4  C   UNL     1      18.686  50.994  47.130  1.00  0.00     0.138 C 
HETATM    5  C   UNL     1      17.683  50.103  47.866  1.00  0.00     0.161 C 
HETATM    6  C   UNL     1      17.801  48.816  47.061  1.00  0.00     0.155 C 
HETATM    7  C   UNL     1      17.057  47.626  47.705  1.00  0.00     0.072 C 
HETATM    8  N   UNL     1      17.383  49.113  45.611  1.00  0.00    -0.325 N 
HETATM    9  C   UNL     1      17.804  50.308  44.975  1.00  0.00     0.172 C 
HETATM   10  S   UNL     1      18.004  50.615  43.343  1.00  0.00    -0.041 SA
HETATM   11  N   UNL     1      18.178  51.342  45.834  1.00  0.00    -0.357 N 
HETATM   12  O   UNL     1      19.216  48.329  47.145  1.00  0.00    -0.316 OA
HETATM   13  C   UNL     1      20.906  51.394  48.385  1.00  0.00     0.012 A 
HETATM   14  C   UNL     1      21.994  50.824  49.047  1.00  0.00     0.003 A 
HETATM   15  C   UNL     1      22.121  49.430  49.152  1.00  0.00     0.040 A 
HETATM   16  H   UNL     1      18.559  52.148  45.365  1.00  0.00     0.162 HD
ENDROOT
BRANCH   5  17
HETATM   17  C   UNL     1      16.243  50.558  48.086  1.00  0.00     0.233 C 
HETATM   18  N   UNL     1      16.226  51.950  48.204  1.00  0.00    -0.326 N 
HETATM   19  H   UNL     1      17.085  52.428  47.984  1.00  0.00     0.169 HD
HETATM   20  O   UNL     1      15.291  49.810  48.260  1.00  0.00    -0.273 OA
BRANCH  18  21
HETATM   21  C   UNL     1      15.281  52.742  48.878  1.00  0.00     0.040 A 
HETATM   22  C   UNL     1      14.420  53.552  48.104  1.00  0.00    -0.035 A 
HETATM   23  C   UNL     1      14.518  53.699  46.605  1.00  0.00     0.050 C 
HETATM   24  C   UNL     1      13.518  54.404  48.760  1.00  0.00     0.015 A 
HETATM   25  C   UNL     1      13.440  54.441  50.154  1.00  0.00    -0.061 A 
HETATM   26  C   UNL     1      12.458  55.354  50.824  1.00  0.00     0.048 C 
HETATM   27  C   UNL     1      14.261  53.594  50.903  1.00  0.00     0.009 A 
HETATM   28  C   UNL     1      15.191  52.763  50.270  1.00  0.00     0.030 A 
ENDBRANCH  18  21
ENDBRANCH   5  17
BRANCH   8  29
HETATM   29  C   UNL     1      16.332  48.236  45.022  1.00  0.00     0.130 C 
BRANCH  29  30
HETATM   30  C   UNL     1      14.903  48.752  44.774  1.00  0.00     0.046 C 
BRANCH  30  31
HETATM   31  C   UNL     1      13.881  48.064  45.675  1.00  0.00     0.168 C 
BRANCH  31  32
HETATM   32  O   UNL     1      12.981  47.326  44.844  1.00  0.00    -0.396 OA
HETATM   33  C   UNL     1      12.714  48.009  43.627  1.00  0.00     0.201 C 
ENDBRANCH  31  32
ENDBRANCH  30  31
ENDBRANCH  29  30
ENDBRANCH   8  29
BRANCH   1  34
HETATM   34  O   UNL     1      21.278  47.238  48.834  1.00  0.00    -0.349 OA
BRANCH  34  35
HETATM   35  C   UNL     1      22.383  46.669  48.112  1.00  0.00     0.171 C 
HETATM   36  C   UNL     1      21.913  45.965  46.848  1.00  0.00     0.034 C 
ENDBRANCH  34  35
ENDBRANCH   1  34
TORSDOF 8
ENDMDL
MODEL 3
REMARK VINA RESULT:      -7.4      9.351     11.608
REMARK  8 active torsions:
REMARK  status: ('A' for Active; 'I' for Inactive)
REMARK    1  A    between atoms: C_2  and  O_3 
REMARK    2  A    between atoms: O_3  and  C_4 
REMARK    3  A    between atoms: C_8  and  C_9 
REMARK       I    between atoms: C_9  and  N_10 
REMARK    4  A    between atoms: N_10  and  C_11 
REMARK    5  A    between atoms: N_22  and  C_23 
REMARK    6  A    between atoms: C_23  and  C_24 
REMARK    7  A    between atoms: C_24  and  C_25 
REMARK    8  A    between atoms: C_25  and  O_26 
ROOT
HETATM    1  C   UNL     1      28.754  50.247  40.756  1.00  0.00     0.102 A 
HETATM    2  C   UNL     1      27.927  49.539  39.891  1.00  0.00     0.113 A 
HETATM    3  C   UNL     1      27.456  50.168  38.696  1.00  0.00     0.002 A 
HETATM    4  C   UNL     1      26.404  49.357  37.961  1.00  0.00     0.138 C 
HETATM    5  C   UNL     1      25.467  49.018  39.121  1.00  0.00     0.161 C 
HETATM    6  C   UNL     1      26.172  47.805  39.712  1.00  0.00     0.155 C 
HETATM    7  C   UNL     1      25.575  47.353  41.063  1.00  0.00     0.072 C 
HETATM    8  N   UNL     1      26.218  46.702  38.641  1.00  0.00    -0.325 N 
HETATM    9  C   UNL     1      26.518  47.026  37.294  1.00  0.00     0.172 C 
HETATM   10  S   UNL     1      27.183  46.055  36.104  1.00  0.00    -0.041 SA
HETATM   11  N   UNL     1      26.303  48.357  36.937  1.00  0.00    -0.357 N 
HETATM   12  O   UNL     1      27.546  48.217  40.148  1.00  0.00    -0.316 OA
HETATM   13  C   UNL     1      27.883  51.439  38.334  1.00  0.00     0.012 A 
HETATM   14  C   UNL     1      28.783  52.100  39.171  1.00  0.00     0.003 A 
HETATM   15  C   UNL     1      29.211  51.512  40.372  1.00  0.00     0.040 A 
HETATM   16  H   UNL     1      26.608  48.586  36.004  1.00  0.00     0.162 HD
ENDROOT
BRANCH   5  17
HETATM   17  C   UNL     1      23.973  48.805  38.888  1.00  0.00     0.233 C 
HETATM   18  N   UNL     1      23.267  49.392  39.941  1.00  0.00    -0.326 N 
HETATM   19  H   UNL     1      23.802  49.965  40.573  1.00  0.00     0.169 HD
HETATM   20  O   UNL     1      23.495  48.121  37.994  1.00  0.00    -0.273 OA
BRANCH  18  21
HETATM   21  C   UNL     1      21.990  49.046  40.415  1.00  0.00     0.040 A 
HETATM   22  C   UNL     1      21.025  50.071  40.529  1.00  0.00    -0.035 A 
HETATM   23  C   UNL     1      21.307  51.531  40.272  1.00  0.00     0.050 C 
HETATM   24  C   UNL     1      19.766  49.761  41.067  1.00  0.00     0.015 A 
HETATM   25  C   UNL     1      19.447  48.459  41.460  1.00  0.00    -0.061 A 
HETATM   26  C   UNL     1      18.090  48.158  42.021  1.00  0.00     0.048 C 
HETATM   27  C   UNL     1      20.396  47.447  41.290  1.00  0.00     0.009 A 
HETATM   28  C   UNL     1      21.667  47.741  40.788  1.00  0.00     0.030 A 
ENDBRANCH  18  21
ENDBRANCH   5  17
BRANCH   8  29
HETATM   29  C   UNL     1      25.687  45.366  39.030  1.00  0.00     0.130 C 
BRANCH  29  30
HETATM   30  C   UNL     1      26.627  44.218  39.444  1.00  0.00     0.046 C 
BRANCH  30  31
HETATM   31  C   UNL     1      28.034  44.717  39.759  1.00  0.00     0.168 C 
BRANCH  31  32
HETATM   32  O   UNL     1      28.957  43.668  39.453  1.00  0.00    -0.396 OA
HETATM   33  C   UNL     1      29.478  43.797  38.137  1.00  0.00     0.201 C 
ENDBRANCH  31  32
ENDBRANCH  30  31
ENDBRANCH  29  30
ENDBRANCH   8  29
BRANCH   1  34
HETATM   34  O   UNL     1      29.105  49.786  41.992  1.00  0.00    -0.349 OA
BRANCH  34  35
HETATM   35  C   UNL     1      30.327  49.031  41.936  1.00  0.00     0.171 C 
HETATM   36  C   UNL     1      31.411  49.671  42.790  1.00  0.00     0.034 C 
ENDBRANCH  34  35
ENDBRANCH   1  34
TORSDOF 8
ENDMDL
MODEL 4
REMARK VINA RESULT:      -7.4      2.557      6.277
REMARK  8 active torsions:
REMARK  status: ('A' for Active; 'I' for Inactive)
REMARK    1  A    between atoms: C_2  and  O_3 
REMARK    2  A    between atoms: O_3  and  C_4 
REMARK    3  A    between atoms: C_8  and  C_9 
REMARK       I    between atoms: C_9  and  N_10 
REMARK    4  A    between atoms: N_10  and  C_11 
REMARK    5  A    between atoms: N_22  and  C_23 
REMARK    6  A    between atoms: C_23  and  C_24 
REMARK    7  A    between atoms: C_24  and  C_25 
REMARK    8  A    between atoms: C_25  and  O_26 
ROOT
HETATM    1  C   UNL     1      17.181  50.521  44.119  1.00  0.00     0.102 A 
HETATM    2  C   UNL     1      17.338  50.300  45.482  1.00  0.00     0.113 A 
HETATM    3  C   UNL     1      16.346  49.554  46.193  1.00  0.00     0.002 A 
HETATM    4  C   UNL     1      16.539  49.571  47.698  1.00  0.00     0.138 C 
HETATM    5  C   UNL     1      16.743  51.070  47.925  1.00  0.00     0.161 C 
HETATM    6  C   UNL     1      18.225  51.208  47.606  1.00  0.00     0.155 C 
HETATM    7  C   UNL     1      18.696  52.677  47.529  1.00  0.00     0.072 C 
HETATM    8  N   UNL     1      19.017  50.341  48.598  1.00  0.00    -0.325 N 
HETATM    9  C   UNL     1      18.554  49.047  48.946  1.00  0.00     0.172 C 
HETATM   10  S   UNL     1      19.430  47.729  49.487  1.00  0.00    -0.041 SA
HETATM   11  N   UNL     1      17.194  48.822  48.732  1.00  0.00    -0.357 N 
HETATM   12  O   UNL     1      18.448  50.779  46.187  1.00  0.00    -0.316 OA
HETATM   13  C   UNL     1      15.275  48.965  45.531  1.00  0.00     0.012 A 
HETATM   14  C   UNL     1      15.183  49.124  44.147  1.00  0.00     0.003 A 
HETATM   15  C   UNL     1      16.124  49.898  43.449  1.00  0.00     0.040 A 
HETATM   16  H   UNL     1      16.905  47.872  48.899  1.00  0.00     0.162 HD
ENDROOT
BRANCH   5  17
HETATM   17  C   UNL     1      16.337  51.727  49.243  1.00  0.00     0.233 C 
HETATM   18  N   UNL     1      15.163  52.457  49.036  1.00  0.00    -0.326 N 
HETATM   19  H   UNL     1      14.704  52.324  48.150  1.00  0.00     0.169 HD
HETATM   20  O   UNL     1      17.005  51.714  50.266  1.00  0.00    -0.273 OA
BRANCH  18  21
HETATM   21  C   UNL     1      14.709  53.572  49.760  1.00  0.00     0.040 A 
HETATM   22  C   UNL     1      14.082  54.617  49.045  1.00  0.00    -0.035 A 
HETATM   23  C   UNL     1      13.961  54.659  47.542  1.00  0.00     0.050 C 
HETATM   24  C   UNL     1      13.686  55.771  49.738  1.00  0.00     0.015 A 
HETATM   25  C   UNL     1      13.873  55.888  51.118  1.00  0.00    -0.061 A 
HETATM   26  C   UNL     1      13.428  57.129  51.831  1.00  0.00     0.048 C 
HETATM   27  C   UNL     1      14.446  54.822  51.818  1.00  0.00     0.009 A 
HETATM   28  C   UNL     1      14.879  53.678  51.141  1.00  0.00     0.030 A 
ENDBRANCH  18  21
ENDBRANCH   5  17
BRANCH   8  29
HETATM   29  C   UNL     1      20.114  51.014  49.350  1.00  0.00     0.130 C 
BRANCH  29  30
HETATM   30  C   UNL     1      21.524  51.161  48.751  1.00  0.00     0.046 C 
BRANCH  30  31
HETATM   31  C   UNL     1      21.873  50.007  47.816  1.00  0.00     0.168 C 
BRANCH  31  32
HETATM   32  O   UNL     1      23.112  50.315  47.171  1.00  0.00    -0.396 OA
HETATM   33  C   UNL     1      24.217  50.123  48.044  1.00  0.00     0.201 C 
ENDBRANCH  31  32
ENDBRANCH  30  31
ENDBRANCH  29  30
ENDBRANCH   8  29
BRANCH   1  34
HETATM   34  O   UNL     1      17.986  51.362  43.405  1.00  0.00    -0.349 OA
BRANCH  34  35
HETATM   35  C   UNL     1      17.230  52.444  42.836  1.00  0.00     0.171 C 
HETATM   36  C   UNL     1      16.903  53.499  43.882  1.00  0.00     0.034 C 
ENDBRANCH  34  35
ENDBRANCH   1  34
TORSDOF 8
ENDMDL
MODEL 5
REMARK VINA RESULT:      -7.3      3.123      5.652
REMARK  8 active torsions:
REMARK  status: ('A' for Active; 'I' for Inactive)
REMARK    1  A    between atoms: C_2  and  O_3 
REMARK    2  A    between atoms: O_3  and  C_4 
REMARK    3  A    between atoms: C_8  and  C_9 
REMARK       I    between atoms: C_9  and  N_10 
REMARK    4  A    between atoms: N_10  and  C_11 
REMARK    5  A    between atoms: N_22  and  C_23 
REMARK    6  A    between atoms: C_23  and  C_24 
REMARK    7  A    between atoms: C_24  and  C_25 
REMARK    8  A    between atoms: C_25  and  O_26 
ROOT
HETATM    1  C   UNL     1      18.573  50.948  49.627  1.00  0.00     0.102 A 
HETATM    2  C   UNL     1      18.390  50.111  48.532  1.00  0.00     0.113 A 
HETATM    3  C   UNL     1      19.524  49.708  47.759  1.00  0.00     0.002 A 
HETATM    4  C   UNL     1      19.156  48.972  46.483  1.00  0.00     0.138 C 
HETATM    5  C   UNL     1      18.090  49.918  45.926  1.00  0.00     0.161 C 
HETATM    6  C   UNL     1      16.864  49.453  46.700  1.00  0.00     0.155 C 
HETATM    7  C   UNL     1      15.643  50.380  46.517  1.00  0.00     0.072 C 
HETATM    8  N   UNL     1      16.599  47.980  46.346  1.00  0.00    -0.325 N 
HETATM    9  C   UNL     1      17.676  47.064  46.240  1.00  0.00     0.172 C 
HETATM   10  S   UNL     1      17.666  45.404  46.446  1.00  0.00    -0.041 SA
HETATM   11  N   UNL     1      18.927  47.637  46.010  1.00  0.00    -0.357 N 
HETATM   12  O   UNL     1      17.126  49.637  48.164  1.00  0.00    -0.316 OA
HETATM   13  C   UNL     1      20.815  50.061  48.134  1.00  0.00     0.012 A 
HETATM   14  C   UNL     1      20.983  50.829  49.287  1.00  0.00     0.003 A 
HETATM   15  C   UNL     1      19.873  51.272  50.024  1.00  0.00     0.040 A 
HETATM   16  H   UNL     1      19.688  46.979  46.029  1.00  0.00     0.162 HD
ENDROOT
BRANCH   5  17
HETATM   17  C   UNL     1      17.856  50.039  44.422  1.00  0.00     0.233 C 
HETATM   18  N   UNL     1      18.330  51.282  43.994  1.00  0.00    -0.326 N 
HETATM   19  H   UNL     1      18.861  51.813  44.665  1.00  0.00     0.169 HD
HETATM   20  O   UNL     1      17.239  49.231  43.743  1.00  0.00    -0.273 OA
BRANCH  18  21
HETATM   21  C   UNL     1      17.909  52.020  42.875  1.00  0.00     0.040 A 
HETATM   22  C   UNL     1      17.022  53.099  43.088  1.00  0.00    -0.035 A 
HETATM   23  C   UNL     1      16.417  53.445  44.426  1.00  0.00     0.050 C 
HETATM   24  C   UNL     1      16.533  53.804  41.977  1.00  0.00     0.015 A 
HETATM   25  C   UNL     1      16.931  53.477  40.679  1.00  0.00    -0.061 A 
HETATM   26  C   UNL     1      16.399  54.258  39.514  1.00  0.00     0.048 C 
HETATM   27  C   UNL     1      17.850  52.442  40.491  1.00  0.00     0.009 A 
HETATM   28  C   UNL     1      18.323  51.704  41.580  1.00  0.00     0.030 A 
ENDBRANCH  18  21
ENDBRANCH   5  17
BRANCH   8  29
HETATM   29  C   UNL     1      15.226  47.640  45.876  1.00  0.00     0.130 C 
BRANCH  29  30
HETATM   30  C   UNL     1      14.982  47.030  44.484  1.00  0.00     0.046 C 
BRANCH  30  31
HETATM   31  C   UNL     1      13.566  47.299  43.981  1.00  0.00     0.168 C 
BRANCH  31  32
HETATM   32  O   UNL     1      12.656  47.038  45.054  1.00  0.00    -0.396 OA
HETATM   33  C   UNL     1      11.836  45.910  44.781  1.00  0.00     0.201 C 
ENDBRANCH  31  32
ENDBRANCH  30  31
ENDBRANCH  29  30
ENDBRANCH   8  29
BRANCH   1  34
HETATM   34  O   UNL     1      17.533  51.515  50.309  1.00  0.00    -0.349 OA
BRANCH  34  35
HETATM   35  C   UNL     1      17.085  52.719  49.664  1.00  0.00     0.171 C 
HETATM   36  C   UNL     1      15.569  52.831  49.696  1.00  0.00     0.034 C 
ENDBRANCH  34  35
ENDBRANCH   1  34
TORSDOF 8
ENDMDL
MODEL 6
REMARK VINA RESULT:      -7.1      3.825      8.402
REMARK  8 active torsions:
REMARK  status: ('A' for Active; 'I' for Inactive)
REMARK    1  A    between atoms: C_2  and  O_3 
REMARK    2  A    between atoms: O_3  and  C_4 
REMARK    3  A    between atoms: C_8  and  C_9 
REMARK       I    between atoms: C_9  and  N_10 
REMARK    4  A    between atoms: N_10  and  C_11 
REMARK    5  A    between atoms: N_22  and  C_23 
REMARK    6  A    between atoms: C_23  and  C_24 
REMARK    7  A    between atoms: C_24  and  C_25 
REMARK    8  A    between atoms: C_25  and  O_26 
ROOT
HETATM    1  C   UNL     1      19.983  49.850  48.605  1.00  0.00     0.102 A 
HETATM    2  C   UNL     1      19.807  48.501  48.317  1.00  0.00     0.113 A 
HETATM    3  C   UNL     1      19.145  47.661  49.267  1.00  0.00     0.002 A 
HETATM    4  C   UNL     1      19.209  46.185  48.917  1.00  0.00     0.138 C 
HETATM    5  C   UNL     1      20.702  46.046  48.615  1.00  0.00     0.161 C 
HETATM    6  C   UNL     1      20.747  46.521  47.170  1.00  0.00     0.155 C 
HETATM    7  C   UNL     1      22.183  46.710  46.636  1.00  0.00     0.072 C 
HETATM    8  N   UNL     1      19.876  45.577  46.323  1.00  0.00    -0.325 N 
HETATM    9  C   UNL     1      18.624  45.127  46.812  1.00  0.00     0.172 C 
HETATM   10  S   UNL     1      17.282  44.621  45.952  1.00  0.00    -0.041 SA
HETATM   11  N   UNL     1      18.465  45.192  48.197  1.00  0.00    -0.357 N 
HETATM   12  O   UNL     1      20.251  47.935  47.117  1.00  0.00    -0.316 OA
HETATM   13  C   UNL     1      18.590  48.183  50.429  1.00  0.00     0.012 A 
HETATM   14  C   UNL     1      18.700  49.555  50.657  1.00  0.00     0.003 A 
HETATM   15  C   UNL     1      19.393  50.380  49.756  1.00  0.00     0.040 A 
HETATM   16  H   UNL     1      17.539  44.954  48.514  1.00  0.00     0.162 HD
ENDROOT
BRANCH   5  17
HETATM   17  C   UNL     1      21.430  44.724  48.848  1.00  0.00     0.233 C 
HETATM   18  N   UNL     1      22.419  44.922  49.815  1.00  0.00    -0.326 N 
HETATM   19  H   UNL     1      22.404  45.807  50.296  1.00  0.00     0.169 HD
HETATM   20  O   UNL     1      21.254  43.704  48.198  1.00  0.00    -0.273 OA
BRANCH  18  21
HETATM   21  C   UNL     1      23.607  44.192  49.988  1.00  0.00     0.040 A 
HETATM   22  C   UNL     1      24.832  44.893  49.928  1.00  0.00    -0.035 A 
HETATM   23  C   UNL     1      24.952  46.358  49.588  1.00  0.00     0.050 C 
HETATM   24  C   UNL     1      26.032  44.173  50.027  1.00  0.00     0.015 A 
HETATM   25  C   UNL     1      26.033  42.788  50.212  1.00  0.00    -0.061 A 
HETATM   26  C   UNL     1      27.332  42.049  50.325  1.00  0.00     0.048 C 
HETATM   27  C   UNL     1      24.812  42.118  50.323  1.00  0.00     0.009 A 
HETATM   28  C   UNL     1      23.605  42.811  50.193  1.00  0.00     0.030 A 
ENDBRANCH  18  21
ENDBRANCH   5  17
BRANCH   8  29
HETATM   29  C   UNL     1      20.516  44.972  45.121  1.00  0.00     0.130 C 
BRANCH  29  30
HETATM   30  C   UNL     1      20.242  45.514  43.707  1.00  0.00     0.046 C 
BRANCH  30  31
HETATM   31  C   UNL     1      21.518  45.991  43.020  1.00  0.00     0.168 C 
BRANCH  31  32
HETATM   32  O   UNL     1      22.611  45.218  43.524  1.00  0.00    -0.396 OA
HETATM   33  C   UNL     1      23.528  44.875  42.494  1.00  0.00     0.201 C 
ENDBRANCH  31  32
ENDBRANCH  30  31
ENDBRANCH  29  30
ENDBRANCH   8  29
BRANCH   1  34
HETATM   34  O   UNL     1      20.751  50.678  47.837  1.00  0.00    -0.349 OA
BRANCH  34  35
HETATM   35  C   UNL     1      21.991  50.990  48.492  1.00  0.00     0.171 C 
HETATM   36  C   UNL     1      23.171  50.351  47.776  1.00  0.00     0.034 C 
ENDBRANCH  34  35
ENDBRANCH   1  34
TORSDOF 8
ENDMDL
MODEL 7
REMARK VINA RESULT:      -7.0      2.728      7.751
REMARK  8 active torsions:
REMARK  status: ('A' for Active; 'I' for Inactive)
REMARK    1  A    between atoms: C_2  and  O_3 
REMARK    2  A    between atoms: O_3  and  C_4 
REMARK    3  A    between atoms: C_8  and  C_9 
REMARK       I    between atoms: C_9  and  N_10 
REMARK    4  A    between atoms: N_10  and  C_11 
REMARK    5  A    between atoms: N_22  and  C_23 
REMARK    6  A    between atoms: C_23  and  C_24 
REMARK    7  A    between atoms: C_24  and  C_25 
REMARK    8  A    between atoms: C_25  and  O_26 
ROOT
HETATM    1  C   UNL     1      14.364  54.313  48.291  1.00  0.00     0.102 A 
HETATM    2  C   UNL     1      14.819  53.099  47.791  1.00  0.00     0.113 A 
HETATM    3  C   UNL     1      15.271  52.090  48.699  1.00  0.00     0.002 A 
HETATM    4  C   UNL     1      15.930  50.908  48.011  1.00  0.00     0.138 C 
HETATM    5  C   UNL     1      16.890  51.644  47.074  1.00  0.00     0.161 C 
HETATM    6  C   UNL     1      15.963  51.968  45.911  1.00  0.00     0.155 C 
HETATM    7  C   UNL     1      16.596  52.923  44.876  1.00  0.00     0.072 C 
HETATM    8  N   UNL     1      15.450  50.644  45.319  1.00  0.00    -0.325 N 
HETATM    9  C   UNL     1      15.061  49.581  46.174  1.00  0.00     0.172 C 
HETATM   10  S   UNL     1      13.982  48.338  45.877  1.00  0.00    -0.041 SA
HETATM   11  N   UNL     1      15.592  49.626  47.462  1.00  0.00    -0.357 N 
HETATM   12  O   UNL     1      14.842  52.824  46.419  1.00  0.00    -0.316 OA
HETATM   13  C   UNL     1      15.176  52.263  50.075  1.00  0.00     0.012 A 
HETATM   14  C   UNL     1      14.634  53.454  50.557  1.00  0.00     0.003 A 
HETATM   15  C   UNL     1      14.235  54.471  49.674  1.00  0.00     0.040 A 
HETATM   16  H   UNL     1      15.233  48.915  48.079  1.00  0.00     0.162 HD
ENDROOT
BRANCH   5  17
HETATM   17  C   UNL     1      18.211  51.008  46.646  1.00  0.00     0.233 C 
HETATM   18  N   UNL     1      18.874  50.544  47.785  1.00  0.00    -0.326 N 
HETATM   19  H   UNL     1      18.349  50.556  48.645  1.00  0.00     0.169 HD
HETATM   20  O   UNL     1      18.660  51.026  45.510  1.00  0.00    -0.273 OA
BRANCH  18  21
HETATM   21  C   UNL     1      20.256  50.359  47.956  1.00  0.00     0.040 A 
HETATM   22  C   UNL     1      20.800  49.093  47.646  1.00  0.00    -0.035 A 
HETATM   23  C   UNL     1      19.976  47.895  47.242  1.00  0.00     0.050 C 
HETATM   24  C   UNL     1      22.165  48.865  47.878  1.00  0.00     0.015 A 
HETATM   25  C   UNL     1      22.993  49.872  48.377  1.00  0.00    -0.061 A 
HETATM   26  C   UNL     1      24.450  49.600  48.603  1.00  0.00     0.048 C 
HETATM   27  C   UNL     1      22.450  51.135  48.628  1.00  0.00     0.009 A 
HETATM   28  C   UNL     1      21.086  51.373  48.437  1.00  0.00     0.030 A 
ENDBRANCH  18  21
ENDBRANCH   5  17
BRANCH   8  29
HETATM   29  C   UNL     1      15.628  50.451  43.853  1.00  0.00     0.130 C 
BRANCH  29  30
HETATM   30  C   UNL     1      16.576  49.375  43.294  1.00  0.00     0.046 C 
BRANCH  30  31
HETATM   31  C   UNL     1      15.847  48.380  42.395  1.00  0.00     0.168 C 
BRANCH  31  32
HETATM   32  O   UNL     1      16.524  47.123  42.481  1.00  0.00    -0.396 OA
HETATM   33  C   UNL     1      15.763  46.169  43.210  1.00  0.00     0.201 C 
ENDBRANCH  31  32
ENDBRANCH  30  31
ENDBRANCH  29  30
ENDBRANCH   8  29
BRANCH   1  34
HETATM   34  O   UNL     1      14.080  55.385  47.493  1.00  0.00    -0.349 OA
BRANCH  34  35
HETATM   35  C   UNL     1      13.125  56.258  48.119  1.00  0.00     0.171 C 
HETATM   36  C   UNL     1      11.761  56.153  47.456  1.00  0.00     0.034 C 
ENDBRANCH  34  35
ENDBRANCH   1  34
TORSDOF 8
ENDMDL
MODEL 8
REMARK VINA RESULT:      -6.9     10.986     14.012
REMARK  8 active torsions:
REMARK  status: ('A' for Active; 'I' for Inactive)
REMARK    1  A    between atoms: C_2  and  O_3 
REMARK    2  A    between atoms: O_3  and  C_4 
REMARK    3  A    between atoms: C_8  and  C_9 
REMARK       I    between atoms: C_9  and  N_10 
REMARK    4  A    between atoms: N_10  and  C_11 
REMARK    5  A    between atoms: N_22  and  C_23 
REMARK    6  A    between atoms: C_23  and  C_24 
REMARK    7  A    between atoms: C_24  and  C_25 
REMARK    8  A    between atoms: C_25  and  O_26 
ROOT
HETATM    1  C   UNL     1      25.551  41.692  44.122  1.00  0.00     0.102 A 
HETATM    2  C   UNL     1      25.680  40.794  45.175  1.00  0.00     0.113 A 
HETATM    3  C   UNL     1      24.519  40.411  45.918  1.00  0.00     0.002 A 
HETATM    4  C   UNL     1      24.838  39.595  47.158  1.00  0.00     0.138 C 
HETATM    5  C   UNL     1      25.943  40.458  47.770  1.00  0.00     0.161 C 
HETATM    6  C   UNL     1      27.153  39.971  46.985  1.00  0.00     0.155 C 
HETATM    7  C   UNL     1      28.416  40.826  47.223  1.00  0.00     0.072 C 
HETATM    8  N   UNL     1      27.341  38.471  47.267  1.00  0.00    -0.325 N 
HETATM    9  C   UNL     1      26.219  37.606  47.319  1.00  0.00     0.172 C 
HETATM   10  S   UNL     1      26.149  35.960  47.030  1.00  0.00    -0.041 SA
HETATM   11  N   UNL     1      24.996  38.229  47.566  1.00  0.00    -0.357 N 
HETATM   12  O   UNL     1      26.915  40.240  45.529  1.00  0.00    -0.316 OA
HETATM   13  C   UNL     1      23.252  40.845  45.551  1.00  0.00     0.012 A 
HETATM   14  C   UNL     1      23.133  41.676  44.436  1.00  0.00     0.003 A 
HETATM   15  C   UNL     1      24.272  42.099  43.731  1.00  0.00     0.040 A 
HETATM   16  H   UNL     1      24.202  37.611  47.509  1.00  0.00     0.162 HD
ENDROOT
BRANCH   5  17
HETATM   17  C   UNL     1      26.167  40.492  49.280  1.00  0.00     0.233 C 
HETATM   18  N   UNL     1      26.745  41.719  49.619  1.00  0.00    -0.326 N 
HETATM   19  H   UNL     1      26.782  42.413  48.890  1.00  0.00     0.169 HD
HETATM   20  O   UNL     1      25.987  39.549  50.036  1.00  0.00    -0.273 OA
BRANCH  18  21
HETATM   21  C   UNL     1      27.555  42.006  50.731  1.00  0.00     0.040 A 
HETATM   22  C   UNL     1      27.684  43.356  51.127  1.00  0.00    -0.035 A 
HETATM   23  C   UNL     1      27.092  44.520  50.370  1.00  0.00     0.050 C 
HETATM   24  C   UNL     1      28.544  43.672  52.189  1.00  0.00     0.015 A 
HETATM   25  C   UNL     1      29.244  42.677  52.876  1.00  0.00    -0.061 A 
HETATM   26  C   UNL     1      30.147  43.047  54.014  1.00  0.00     0.048 C 
HETATM   27  C   UNL     1      29.063  41.342  52.506  1.00  0.00     0.009 A 
HETATM   28  C   UNL     1      28.238  41.008  51.428  1.00  0.00     0.030 A 
ENDBRANCH  18  21
ENDBRANCH   5  17
BRANCH   8  29
HETATM   29  C   UNL     1      28.690  38.040  47.730  1.00  0.00     0.130 C 
BRANCH  29  30
HETATM   30  C   UNL     1      29.083  38.093  49.218  1.00  0.00     0.046 C 
BRANCH  30  31
HETATM   31  C   UNL     1      28.342  37.044  50.043  1.00  0.00     0.168 C 
BRANCH  31  32
HETATM   32  O   UNL     1      29.231  36.566  51.057  1.00  0.00    -0.396 OA
HETATM   33  C   UNL     1      30.060  37.606  51.557  1.00  0.00     0.201 C 
ENDBRANCH  31  32
ENDBRANCH  30  31
ENDBRANCH  29  30
ENDBRANCH   8  29
BRANCH   1  34
HETATM   34  O   UNL     1      26.624  42.239  43.477  1.00  0.00    -0.349 OA
BRANCH  34  35
HETATM   35  C   UNL     1      26.201  43.134  42.435  1.00  0.00     0.171 C 
HETATM   36  C   UNL     1      27.181  43.132  41.273  1.00  0.00     0.034 C 
ENDBRANCH  34  35
ENDBRANCH   1  34
TORSDOF 8
ENDMDL
MODEL 9
REMARK VINA RESULT:      -6.9      9.866     12.352
REMARK  8 active torsions:
REMARK  status: ('A' for Active; 'I' for Inactive)
REMARK    1  A    between atoms: C_2  and  O_3 
REMARK    2  A    between atoms: O_3  and  C_4 
REMARK    3  A    between atoms: C_8  and  C_9 
REMARK       I    between atoms: C_9  and  N_10 
REMARK    4  A    between atoms: N_10  and  C_11 
REMARK    5  A    between atoms: N_22  and  C_23 
REMARK    6  A    between atoms: C_23  and  C_24 
REMARK    7  A    between atoms: C_24  and  C_25 
REMARK    8  A    between atoms: C_25  and  O_26 
ROOT
HETATM    1  C   UNL     1      26.638  44.259  39.626  1.00  0.00     0.102 A 
HETATM    2  C   UNL     1      26.675  45.631  39.848  1.00  0.00     0.113 A 
HETATM    3  C   UNL     1      25.980  46.180  40.971  1.00  0.00     0.002 A 
HETATM    4  C   UNL     1      25.934  47.698  40.970  1.00  0.00     0.138 C 
HETATM    5  C   UNL     1      25.477  47.951  39.532  1.00  0.00     0.161 C 
HETATM    6  C   UNL     1      26.804  47.864  38.791  1.00  0.00     0.155 C 
HETATM    7  C   UNL     1      26.645  47.859  37.256  1.00  0.00     0.072 C 
HETATM    8  N   UNL     1      27.730  48.970  39.327  1.00  0.00    -0.325 N 
HETATM    9  C   UNL     1      27.787  49.244  40.717  1.00  0.00     0.172 C 
HETATM   10  S   UNL     1      29.036  49.917  41.603  1.00  0.00    -0.041 SA
HETATM   11  N   UNL     1      26.681  48.822  41.455  1.00  0.00    -0.357 N 
HETATM   12  O   UNL     1      27.383  46.498  39.008  1.00  0.00    -0.316 OA
HETATM   13  C   UNL     1      25.347  45.362  41.898  1.00  0.00     0.012 A 
HETATM   14  C   UNL     1      25.396  43.981  41.706  1.00  0.00     0.003 A 
HETATM   15  C   UNL     1      26.032  43.435  40.579  1.00  0.00     0.040 A 
HETATM   16  H   UNL     1      26.782  48.944  42.450  1.00  0.00     0.162 HD
ENDROOT
BRANCH   5  17
HETATM   17  C   UNL     1      24.656  49.188  39.175  1.00  0.00     0.233 C 
HETATM   18  N   UNL     1      23.458  49.152  39.892  1.00  0.00    -0.326 N 
HETATM   19  H   UNL     1      23.385  48.446  40.607  1.00  0.00     0.169 HD
HETATM   20  O   UNL     1      24.952  49.998  38.309  1.00  0.00    -0.273 OA
BRANCH  18  21
HETATM   21  C   UNL     1      22.235  49.754  39.550  1.00  0.00     0.040 A 
HETATM   22  C   UNL     1      21.483  49.178  38.502  1.00  0.00    -0.035 A 
HETATM   23  C   UNL     1      21.956  48.020  37.658  1.00  0.00     0.050 C 
HETATM   24  C   UNL     1      20.295  49.805  38.096  1.00  0.00     0.015 A 
HETATM   25  C   UNL     1      19.833  50.962  38.728  1.00  0.00    -0.061 A 
HETATM   26  C   UNL     1      18.554  51.601  38.277  1.00  0.00     0.048 C 
HETATM   27  C   UNL     1      20.562  51.488  39.798  1.00  0.00     0.009 A 
HETATM   28  C   UNL     1      21.766  50.899  40.195  1.00  0.00     0.030 A 
ENDBRANCH  18  21
ENDBRANCH   5  17
BRANCH   8  29
HETATM   29  C   UNL     1      28.340  49.881  38.318  1.00  0.00     0.130 C 
BRANCH  29  30
HETATM   30  C   UNL     1      28.113  51.402  38.369  1.00  0.00     0.046 C 
BRANCH  30  31
HETATM   31  C   UNL     1      29.413  52.182  38.190  1.00  0.00     0.168 C 
BRANCH  31  32
HETATM   32  O   UNL     1      30.251  51.449  37.292  1.00  0.00    -0.396 OA
HETATM   33  C   UNL     1      31.585  51.361  37.775  1.00  0.00     0.201 C 
ENDBRANCH  31  32
ENDBRANCH  30  31
ENDBRANCH  29  30
ENDBRANCH   8  29
BRANCH   1  34
HETATM   34  O   UNL     1      27.125  43.677  38.490  1.00  0.00    -0.349 OA
BRANCH  34  35
HETATM   35  C   UNL     1      28.398  43.054  38.733  1.00  0.00     0.171 C 
HETATM   36  C   UNL     1      29.509  43.749  37.961  1.00  0.00     0.034 C 
ENDBRANCH  34  35
ENDBRANCH   1  34
TORSDOF 8
ENDMDL
MODEL 10
REMARK VINA RESULT:      -6.8      3.711      6.680
REMARK  8 active torsions:
REMARK  status: ('A' for Active; 'I' for Inactive)
REMARK    1  A    between atoms: C_2  and  O_3 
REMARK    2  A    between atoms: O_3  and  C_4 
REMARK    3  A    between atoms: C_8  and  C_9 
REMARK       I    between atoms: C_9  and  N_10 
REMARK    4  A    between atoms: N_10  and  C_11 
REMARK    5  A    between atoms: N_22  and  C_23 
REMARK    6  A    between atoms: C_23  and  C_24 
REMARK    7  A    between atoms: C_24  and  C_25 
REMARK    8  A    between atoms: C_25  and  O_26 
ROOT
HETATM    1  C   UNL     1      16.992  51.723  48.928  1.00  0.00     0.102 A 
HETATM    2  C   UNL     1      17.325  50.662  48.094  1.00  0.00     0.113 A 
HETATM    3  C   UNL     1      18.702  50.323  47.905  1.00  0.00     0.002 A 
HETATM    4  C   UNL     1      18.925  49.289  46.816  1.00  0.00     0.138 C 
HETATM    5  C   UNL     1      18.079  49.894  45.694  1.00  0.00     0.161 C 
HETATM    6  C   UNL     1      16.696  49.382  46.073  1.00  0.00     0.155 C 
HETATM    7  C   UNL     1      15.563  50.016  45.237  1.00  0.00     0.072 C 
HETATM    8  N   UNL     1      16.723  47.845  46.037  1.00  0.00    -0.325 N 
HETATM    9  C   UNL     1      17.835  47.136  46.559  1.00  0.00     0.172 C 
HETATM   10  S   UNL     1      17.896  45.579  47.166  1.00  0.00    -0.041 SA
HETATM   11  N   UNL     1      19.019  47.867  46.651  1.00  0.00    -0.357 N 
HETATM   12  O   UNL     1      16.352  49.903  47.435  1.00  0.00    -0.316 OA
HETATM   13  C   UNL     1      19.708  50.971  48.610  1.00  0.00     0.012 A 
HETATM   14  C   UNL     1      19.346  51.974  49.510  1.00  0.00     0.003 A 
HETATM   15  C   UNL     1      18.002  52.350  49.664  1.00  0.00     0.040 A 
HETATM   16  H   UNL     1      19.770  47.375  47.107  1.00  0.00     0.162 HD
ENDROOT
BRANCH   5  17
HETATM   17  C   UNL     1      18.437  49.663  44.228  1.00  0.00     0.233 C 
HETATM   18  N   UNL     1      18.695  50.899  43.630  1.00  0.00    -0.326 N 
HETATM   19  H   UNL     1      18.756  51.692  44.249  1.00  0.00     0.169 HD
HETATM   20  O   UNL     1      18.378  48.585  43.654  1.00  0.00    -0.273 OA
BRANCH  18  21
HETATM   21  C   UNL     1      18.573  51.236  42.271  1.00  0.00     0.040 A 
HETATM   22  C   UNL     1      17.574  52.166  41.905  1.00  0.00    -0.035 A 
HETATM   23  C   UNL     1      16.563  52.742  42.865  1.00  0.00     0.050 C 
HETATM   24  C   UNL     1      17.388  52.462  40.546  1.00  0.00     0.015 A 
HETATM   25  C   UNL     1      18.189  51.879  39.561  1.00  0.00    -0.061 A 
HETATM   26  C   UNL     1      17.972  52.225  38.119  1.00  0.00     0.048 C 
HETATM   27  C   UNL     1      19.208  51.003  39.945  1.00  0.00     0.009 A 
HETATM   28  C   UNL     1      19.387  50.667  41.291  1.00  0.00     0.030 A 
ENDBRANCH  18  21
ENDBRANCH   5  17
BRANCH   8  29
HETATM   29  C   UNL     1      15.677  47.174  45.214  1.00  0.00     0.130 C 
BRANCH  29  30
HETATM   30  C   UNL     1      16.039  46.391  43.939  1.00  0.00     0.046 C 
BRANCH  30  31
HETATM   31  C   UNL     1      15.305  45.055  43.861  1.00  0.00     0.168 C 
BRANCH  31  32
HETATM   32  O   UNL     1      16.037  44.099  44.634  1.00  0.00    -0.396 OA
HETATM   33  C   UNL     1      17.094  43.517  43.882  1.00  0.00     0.201 C 
ENDBRANCH  31  32
ENDBRANCH  30  31
ENDBRANCH  29  30
ENDBRANCH   8  29
BRANCH   1  34
HETATM   34  O   UNL     1      15.723  52.219  49.027  1.00  0.00    -0.349 OA
BRANCH  34  35
HETATM   35  C   UNL     1      15.578  53.040  50.198  1.00  0.00     0.171 C 
HETATM   36  C   UNL     1      14.117  53.183  50.595  1.00  0.00     0.034 C 
ENDBRANCH  34  35
ENDBRANCH   1  34
TORSDOF 8
ENDMDL
