MODEL 1
REMARK VINA RESULT:     -11.1      0.000      0.000
REMARK  7 active torsions:
REMARK  status: ('A' for Active; 'I' for Inactive)
REMARK    1  A    between atoms: C_5  and  C_6 
REMARK    2  A    between atoms: C_6  and  N_7 
REMARK       I    between atoms: N_7  and  C_8 
REMARK    3  A    between atoms: C_8  and  C_9 
REMARK    4  A    between atoms: C_14  and  C_15 
REMARK    5  A    between atoms: C_15  and  S_16 
REMARK    6  A    between atoms: S_16  and  C_17 
REMARK    7  A    between atoms: C_17  and  C_18 
ROOT
HETATM    1  C   UNL     1      24.411  48.491  49.086  1.00  0.00     0.034 A 
HETATM    2  C   UNL     1      23.761  47.331  49.524  1.00  0.00     0.048 A 
HETATM    3  C   UNL     1      24.487  46.361  50.224  1.00  0.00     0.057 A 
HETATM    4  C   UNL     1      25.856  46.531  50.494  1.00  0.00     0.036 A 
HETATM    5  N   UNL     1      26.625  45.541  51.133  1.00  0.00    -0.277 NA
HETATM    6  C   UNL     1      25.842  44.606  51.976  1.00  0.00     0.162 C 
HETATM    7  C   UNL     1      24.489  44.206  51.353  1.00  0.00     0.240 C 
HETATM    8  O   UNL     1      23.931  43.133  51.577  1.00  0.00    -0.271 OA
HETATM    9  N   UNL     1      23.853  45.174  50.614  1.00  0.00    -0.324 N 
HETATM   10  C   UNL     1      26.505  47.659  49.994  1.00  0.00     0.027 A 
HETATM   11  C   UNL     1      25.788  48.638  49.306  1.00  0.00     0.019 A 
HETATM   12  H   UNL     1      27.181  45.039  50.437  1.00  0.00     0.128 HD
HETATM   13  H   UNL     1      22.918  44.957  50.299  1.00  0.00     0.169 HD
ENDROOT
BRANCH   1  14
HETATM   14  C   UNL     1      23.710  49.591  48.365  1.00  0.00     0.252 C 
HETATM   15  N   UNL     1      22.571  50.103  48.946  1.00  0.00    -0.353 N 
HETATM   16  H   UNL     1      22.290  49.818  49.872  1.00  0.00     0.163 HD
HETATM   17  O   UNL     1      24.183  50.024  47.319  1.00  0.00    -0.268 OA
BRANCH  15  18
HETATM   18  C   UNL     1      21.925  51.282  48.404  1.00  0.00     0.161 C 
BRANCH  18  19
HETATM   19  C   UNL     1      20.489  51.403  48.844  1.00  0.00    -0.041 A 
HETATM   20  C   UNL     1      19.664  52.401  48.309  1.00  0.00     0.009 A 
HETATM   21  C   UNL     1      18.308  52.461  48.643  1.00  0.00     0.007 A 
HETATM   22  C   UNL     1      17.752  51.522  49.517  1.00  0.00    -0.062 A 
HETATM   23  C   UNL     1      16.289  51.548  49.849  1.00  0.00     0.048 C 
HETATM   24  C   UNL     1      18.572  50.523  50.053  1.00  0.00     0.007 A 
HETATM   25  C   UNL     1      19.925  50.460  49.715  1.00  0.00     0.009 A 
ENDBRANCH  18  19
ENDBRANCH  15  18
ENDBRANCH   1  14
BRANCH   6  26
HETATM   26  C   UNL     1      26.654  43.342  52.317  1.00  0.00     0.103 C 
BRANCH  26  27
HETATM   27  S   UNL     1      27.306  43.253  54.034  1.00  0.00    -0.162 SA
BRANCH  27  28
HETATM   28  C   UNL     1      28.998  43.861  53.751  1.00  0.00     0.114 C 
BRANCH  28  29
HETATM   29  C   UNL     1      29.730  44.106  55.048  1.00  0.00    -0.027 A 
HETATM   30  C   UNL     1      29.556  45.266  55.818  1.00  0.00     0.041 A 
HETATM   31 CL   UNL     1      28.481  46.532  55.339  1.00  0.00    -0.084 Cl
HETATM   32  C   UNL     1      30.264  45.439  57.012  1.00  0.00     0.024 A 
HETATM   33  C   UNL     1      31.149  44.458  57.455  1.00  0.00     0.002 A 
HETATM   34  C   UNL     1      31.325  43.297  56.710  1.00  0.00     0.001 A 
HETATM   35  C   UNL     1      30.618  43.120  55.518  1.00  0.00     0.009 A 
ENDBRANCH  28  29
ENDBRANCH  27  28
ENDBRANCH  26  27
ENDBRANCH   6  26
TORSDOF 7
ENDMDL
MODEL 2
REMARK VINA RESULT:     -10.6      2.973     11.293
REMARK  7 active torsions:
REMARK  status: ('A' for Active; 'I' for Inactive)
REMARK    1  A    between atoms: C_5  and  C_6 
REMARK    2  A    between atoms: C_6  and  N_7 
REMARK       I    between atoms: N_7  and  C_8 
REMARK    3  A    between atoms: C_8  and  C_9 
REMARK    4  A    between atoms: C_14  and  C_15 
REMARK    5  A    between atoms: C_15  and  S_16 
REMARK    6  A    between atoms: S_16  and  C_17 
REMARK    7  A    between atoms: C_17  and  C_18 
ROOT
HETATM    1  C   UNL     1      26.378  44.606  51.194  1.00  0.00     0.034 A 
HETATM    2  C   UNL     1      26.912  45.800  50.694  1.00  0.00     0.048 A 
HETATM    3  C   UNL     1      26.068  46.717  50.060  1.00  0.00     0.057 A 
HETATM    4  C   UNL     1      24.693  46.461  49.914  1.00  0.00     0.036 A 
HETATM    5  N   UNL     1      23.835  47.332  49.219  1.00  0.00    -0.277 NA
HETATM    6  C   UNL     1      24.310  48.735  49.150  1.00  0.00     0.162 C 
HETATM    7  C   UNL     1      25.831  48.856  48.924  1.00  0.00     0.240 C 
HETATM    8  O   UNL     1      26.357  49.811  48.356  1.00  0.00    -0.271 OA
HETATM    9  N   UNL     1      26.609  47.886  49.509  1.00  0.00    -0.324 N 
HETATM   10  C   UNL     1      24.187  45.239  50.356  1.00  0.00     0.027 A 
HETATM   11  C   UNL     1      25.018  44.323  51.002  1.00  0.00     0.019 A 
HETATM   12  H   UNL     1      23.649  46.955  48.287  1.00  0.00     0.128 HD
HETATM   13  H   UNL     1      27.609  48.023  49.461  1.00  0.00     0.169 HD
ENDROOT
BRANCH   1  14
HETATM   14  C   UNL     1      27.195  43.589  51.914  1.00  0.00     0.252 C 
HETATM   15  N   UNL     1      28.427  43.986  52.386  1.00  0.00    -0.353 N 
HETATM   16  H   UNL     1      28.711  44.953  52.340  1.00  0.00     0.163 HD
HETATM   17  O   UNL     1      26.737  42.466  52.094  1.00  0.00    -0.268 OA
BRANCH  15  18
HETATM   18  C   UNL     1      29.211  43.117  53.241  1.00  0.00     0.161 C 
BRANCH  18  19
HETATM   19  C   UNL     1      29.561  43.768  54.554  1.00  0.00    -0.041 A 
HETATM   20  C   UNL     1      30.646  43.305  55.309  1.00  0.00     0.009 A 
HETATM   21  C   UNL     1      31.033  43.962  56.481  1.00  0.00     0.007 A 
HETATM   22  C   UNL     1      30.340  45.095  56.919  1.00  0.00    -0.062 A 
HETATM   23  C   UNL     1      30.771  45.835  58.151  1.00  0.00     0.048 C 
HETATM   24  C   UNL     1      29.256  45.561  56.167  1.00  0.00     0.007 A 
HETATM   25  C   UNL     1      28.874  44.908  54.994  1.00  0.00     0.009 A 
ENDBRANCH  18  19
ENDBRANCH  15  18
ENDBRANCH   1  14
BRANCH   6  26
HETATM   26  C   UNL     1      23.556  49.531  48.069  1.00  0.00     0.103 C 
BRANCH  26  27
HETATM   27  S   UNL     1      22.629  51.003  48.663  1.00  0.00    -0.162 SA
BRANCH  27  28
HETATM   28  C   UNL     1      21.296  50.173  49.584  1.00  0.00     0.114 C 
BRANCH  28  29
HETATM   29  C   UNL     1      19.970  50.871  49.402  1.00  0.00    -0.027 A 
HETATM   30  C   UNL     1      18.798  50.474  50.065  1.00  0.00     0.041 A 
HETATM   31 CL   UNL     1      18.771  49.133  51.155  1.00  0.00    -0.084 Cl
HETATM   32  C   UNL     1      17.596  51.159  49.854  1.00  0.00     0.024 A 
HETATM   33  C   UNL     1      17.548  52.248  48.986  1.00  0.00     0.002 A 
HETATM   34  C   UNL     1      18.703  52.661  48.330  1.00  0.00     0.001 A 
HETATM   35  C   UNL     1      19.905  51.982  48.540  1.00  0.00     0.009 A 
ENDBRANCH  28  29
ENDBRANCH  27  28
ENDBRANCH  26  27
ENDBRANCH   6  26
TORSDOF 7
ENDMDL
MODEL 3
REMARK VINA RESULT:     -10.5      3.304     11.105
REMARK  7 active torsions:
REMARK  status: ('A' for Active; 'I' for Inactive)
REMARK    1  A    between atoms: C_5  and  C_6 
REMARK    2  A    between atoms: C_6  and  N_7 
REMARK       I    between atoms: N_7  and  C_8 
REMARK    3  A    between atoms: C_8  and  C_9 
REMARK    4  A    between atoms: C_14  and  C_15 
REMARK    5  A    between atoms: C_15  and  S_16 
REMARK    6  A    between atoms: S_16  and  C_17 
REMARK    7  A    between atoms: C_17  and  C_18 
ROOT
HETATM    1  C   UNL     1      26.235  44.041  51.407  1.00  0.00     0.034 A 
HETATM    2  C   UNL     1      25.136  43.490  50.736  1.00  0.00     0.048 A 
HETATM    3  C   UNL     1      24.186  44.341  50.161  1.00  0.00     0.057 A 
HETATM    4  C   UNL     1      24.315  45.738  50.245  1.00  0.00     0.036 A 
HETATM    5  N   UNL     1      23.339  46.615  49.737  1.00  0.00    -0.277 NA
HETATM    6  C   UNL     1      22.498  46.039  48.660  1.00  0.00     0.162 C 
HETATM    7  C   UNL     1      22.116  44.566  48.903  1.00  0.00     0.240 C 
HETATM    8  O   UNL     1      21.086  44.052  48.469  1.00  0.00    -0.271 OA
HETATM    9  N   UNL     1      23.057  43.792  49.539  1.00  0.00    -0.324 N 
HETATM   10  C   UNL     1      25.377  46.273  50.972  1.00  0.00     0.027 A 
HETATM   11  C   UNL     1      26.337  45.434  51.539  1.00  0.00     0.019 A 
HETATM   12  H   UNL     1      22.767  46.970  50.506  1.00  0.00     0.128 HD
HETATM   13  H   UNL     1      22.860  42.803  49.599  1.00  0.00     0.169 HD
ENDROOT
BRANCH   1  14
HETATM   14  C   UNL     1      27.312  43.214  52.018  1.00  0.00     0.252 C 
HETATM   15  N   UNL     1      28.434  43.872  52.474  1.00  0.00    -0.353 N 
HETATM   16  H   UNL     1      28.470  44.880  52.491  1.00  0.00     0.163 HD
HETATM   17  O   UNL     1      27.153  42.003  52.130  1.00  0.00    -0.268 OA
BRANCH  15  18
HETATM   18  C   UNL     1      29.451  43.171  53.233  1.00  0.00     0.161 C 
BRANCH  18  19
HETATM   19  C   UNL     1      29.716  43.815  54.568  1.00  0.00    -0.041 A 
HETATM   20  C   UNL     1      30.696  43.296  55.425  1.00  0.00     0.009 A 
HETATM   21  C   UNL     1      31.011  43.942  56.623  1.00  0.00     0.007 A 
HETATM   22  C   UNL     1      30.350  45.120  56.988  1.00  0.00    -0.062 A 
HETATM   23  C   UNL     1      30.708  45.847  58.251  1.00  0.00     0.048 C 
HETATM   24  C   UNL     1      29.370  45.641  56.136  1.00  0.00     0.007 A 
HETATM   25  C   UNL     1      29.061  44.998  54.936  1.00  0.00     0.009 A 
ENDBRANCH  18  19
ENDBRANCH  15  18
ENDBRANCH   1  14
BRANCH   6  26
HETATM   26  C   UNL     1      21.227  46.878  48.430  1.00  0.00     0.103 C 
BRANCH  26  27
HETATM   27  S   UNL     1      21.500  48.574  47.775  1.00  0.00    -0.162 SA
BRANCH  27  28
HETATM   28  C   UNL     1      21.340  49.527  49.318  1.00  0.00     0.114 C 
BRANCH  28  29
HETATM   29  C   UNL     1      20.142  50.445  49.289  1.00  0.00    -0.027 A 
HETATM   30  C   UNL     1      18.948  50.168  49.974  1.00  0.00     0.041 A 
HETATM   31 CL   UNL     1      18.744  48.733  50.916  1.00  0.00    -0.084 Cl
HETATM   32  C   UNL     1      17.869  51.055  49.909  1.00  0.00     0.024 A 
HETATM   33  C   UNL     1      17.967  52.230  49.164  1.00  0.00     0.002 A 
HETATM   34  C   UNL     1      19.146  52.525  48.489  1.00  0.00     0.001 A 
HETATM   35  C   UNL     1      20.226  51.642  48.554  1.00  0.00     0.009 A 
ENDBRANCH  28  29
ENDBRANCH  27  28
ENDBRANCH  26  27
ENDBRANCH   6  26
TORSDOF 7
ENDMDL
MODEL 4
REMARK VINA RESULT:      -9.7      3.535     11.557
REMARK  7 active torsions:
REMARK  status: ('A' for Active; 'I' for Inactive)
REMARK    1  A    between atoms: C_5  and  C_6 
REMARK    2  A    between atoms: C_6  and  N_7 
REMARK       I    between atoms: N_7  and  C_8 
REMARK    3  A    between atoms: C_8  and  C_9 
REMARK    4  A    between atoms: C_14  and  C_15 
REMARK    5  A    between atoms: C_15  and  S_16 
REMARK    6  A    between atoms: S_16  and  C_17 
REMARK    7  A    between atoms: C_17  and  C_18 
ROOT
HETATM    1  C   UNL     1      26.110  44.370  51.038  1.00  0.00     0.034 A 
HETATM    2  C   UNL     1      26.481  45.670  50.676  1.00  0.00     0.048 A 
HETATM    3  C   UNL     1      25.533  46.518  50.092  1.00  0.00     0.057 A 
HETATM    4  C   UNL     1      24.215  46.086  49.862  1.00  0.00     0.036 A 
HETATM    5  N   UNL     1      23.262  46.892  49.213  1.00  0.00    -0.277 NA
HETATM    6  C   UNL     1      23.532  48.348  49.296  1.00  0.00     0.162 C 
HETATM    7  C   UNL     1      25.026  48.703  49.151  1.00  0.00     0.240 C 
HETATM    8  O   UNL     1      25.426  49.774  48.698  1.00  0.00    -0.271 OA
HETATM    9  N   UNL     1      25.918  47.800  49.678  1.00  0.00    -0.324 N 
HETATM   10  C   UNL     1      23.877  44.768  50.165  1.00  0.00     0.027 A 
HETATM   11  C   UNL     1      24.811  43.919  50.760  1.00  0.00     0.019 A 
HETATM   12  H   UNL     1      23.162  46.587  48.243  1.00  0.00     0.128 HD
HETATM   13  H   UNL     1      26.888  48.079  49.686  1.00  0.00     0.169 HD
ENDROOT
BRANCH   1  14
HETATM   14  C   UNL     1      27.042  43.412  51.696  1.00  0.00     0.252 C 
HETATM   15  N   UNL     1      28.207  43.925  52.223  1.00  0.00    -0.353 N 
HETATM   16  H   UNL     1      28.364  44.920  52.258  1.00  0.00     0.163 HD
HETATM   17  O   UNL     1      26.730  42.229  51.780  1.00  0.00    -0.268 OA
BRANCH  15  18
HETATM   18  C   UNL     1      29.087  43.098  53.027  1.00  0.00     0.161 C 
BRANCH  18  19
HETATM   19  C   UNL     1      29.550  43.800  54.276  1.00  0.00    -0.041 A 
HETATM   20  C   UNL     1      28.857  44.916  54.763  1.00  0.00     0.009 A 
HETATM   21  C   UNL     1      29.226  45.515  55.970  1.00  0.00     0.007 A 
HETATM   22  C   UNL     1      30.296  45.008  56.715  1.00  0.00    -0.062 A 
HETATM   23  C   UNL     1      30.675  45.614  58.034  1.00  0.00     0.048 C 
HETATM   24  C   UNL     1      30.991  43.893  56.233  1.00  0.00     0.007 A 
HETATM   25  C   UNL     1      30.618  43.292  55.029  1.00  0.00     0.009 A 
ENDBRANCH  18  19
ENDBRANCH  15  18
ENDBRANCH   1  14
BRANCH   6  26
HETATM   26  C   UNL     1      22.705  49.133  48.261  1.00  0.00     0.103 C 
BRANCH  26  27
HETATM   27  S   UNL     1      21.803  50.598  48.908  1.00  0.00    -0.162 SA
BRANCH  27  28
HETATM   28  C   UNL     1      20.125  49.901  49.018  1.00  0.00     0.114 C 
BRANCH  28  29
HETATM   29  C   UNL     1      19.369  50.050  47.720  1.00  0.00    -0.027 A 
HETATM   30  C   UNL     1      18.754  51.248  47.325  1.00  0.00     0.041 A 
HETATM   31 CL   UNL     1      18.805  52.671  48.306  1.00  0.00    -0.084 Cl
HETATM   32  C   UNL     1      18.065  51.326  46.110  1.00  0.00     0.024 A 
HETATM   33  C   UNL     1      17.984  50.214  45.273  1.00  0.00     0.002 A 
HETATM   34  C   UNL     1      18.598  49.023  45.644  1.00  0.00     0.001 A 
HETATM   35  C   UNL     1      19.289  48.942  46.855  1.00  0.00     0.009 A 
ENDBRANCH  28  29
ENDBRANCH  27  28
ENDBRANCH  26  27
ENDBRANCH   6  26
TORSDOF 7
ENDMDL
MODEL 5
REMARK VINA RESULT:      -9.5      3.701     11.700
REMARK  7 active torsions:
REMARK  status: ('A' for Active; 'I' for Inactive)
REMARK    1  A    between atoms: C_5  and  C_6 
REMARK    2  A    between atoms: C_6  and  N_7 
REMARK       I    between atoms: N_7  and  C_8 
REMARK    3  A    between atoms: C_8  and  C_9 
REMARK    4  A    between atoms: C_14  and  C_15 
REMARK    5  A    between atoms: C_15  and  S_16 
REMARK    6  A    between atoms: S_16  and  C_17 
REMARK    7  A    between atoms: C_17  and  C_18 
ROOT
HETATM    1  C   UNL     1      25.701  44.890  49.888  1.00  0.00     0.034 A 
HETATM    2  C   UNL     1      25.832  46.284  49.863  1.00  0.00     0.048 A 
HETATM    3  C   UNL     1      24.721  47.073  49.545  1.00  0.00     0.057 A 
HETATM    4  C   UNL     1      23.476  46.490  49.248  1.00  0.00     0.036 A 
HETATM    5  N   UNL     1      22.362  47.254  48.856  1.00  0.00    -0.277 NA
HETATM    6  C   UNL     1      22.400  48.668  49.304  1.00  0.00     0.162 C 
HETATM    7  C   UNL     1      23.803  49.301  49.213  1.00  0.00     0.240 C 
HETATM    8  O   UNL     1      23.993  50.504  49.041  1.00  0.00    -0.271 OA
HETATM    9  N   UNL     1      24.864  48.464  49.464  1.00  0.00    -0.324 N 
HETATM   10  C   UNL     1      23.376  45.100  49.211  1.00  0.00     0.027 A 
HETATM   11  C   UNL     1      24.475  44.305  49.539  1.00  0.00     0.019 A 
HETATM   12  H   UNL     1      22.243  47.188  47.843  1.00  0.00     0.128 HD
HETATM   13  H   UNL     1      25.775  48.896  49.517  1.00  0.00     0.169 HD
ENDROOT
BRANCH   1  14
HETATM   14  C   UNL     1      26.819  43.975  50.250  1.00  0.00     0.252 C 
HETATM   15  N   UNL     1      27.283  44.026  51.547  1.00  0.00    -0.353 N 
HETATM   16  H   UNL     1      26.809  44.580  52.244  1.00  0.00     0.163 HD
HETATM   17  O   UNL     1      27.255  43.195  49.411  1.00  0.00    -0.268 OA
BRANCH  15  18
HETATM   18  C   UNL     1      28.247  43.058  52.030  1.00  0.00     0.161 C 
BRANCH  18  19
HETATM   19  C   UNL     1      28.967  43.532  53.265  1.00  0.00    -0.041 A 
HETATM   20  C   UNL     1      28.442  44.579  54.035  1.00  0.00     0.009 A 
HETATM   21  C   UNL     1      29.055  44.962  55.231  1.00  0.00     0.007 A 
HETATM   22  C   UNL     1      30.204  44.304  55.681  1.00  0.00    -0.062 A 
HETATM   23  C   UNL     1      30.847  44.677  56.984  1.00  0.00     0.048 C 
HETATM   24  C   UNL     1      30.731  43.258  54.916  1.00  0.00     0.007 A 
HETATM   25  C   UNL     1      30.115  42.872  53.724  1.00  0.00     0.009 A 
ENDBRANCH  18  19
ENDBRANCH  15  18
ENDBRANCH   1  14
BRANCH   6  26
HETATM   26  C   UNL     1      21.386  49.530  48.530  1.00  0.00     0.103 C 
BRANCH  26  27
HETATM   27  S   UNL     1      19.740  48.763  48.246  1.00  0.00    -0.162 SA
BRANCH  27  28
HETATM   28  C   UNL     1      18.952  50.081  47.268  1.00  0.00     0.114 C 
BRANCH  28  29
HETATM   29  C   UNL     1      17.968  50.877  48.089  1.00  0.00    -0.027 A 
HETATM   30  C   UNL     1      16.602  50.560  48.165  1.00  0.00     0.041 A 
HETATM   31 CL   UNL     1      15.922  49.221  47.310  1.00  0.00    -0.084 Cl
HETATM   32  C   UNL     1      15.735  51.337  48.942  1.00  0.00     0.024 A 
HETATM   33  C   UNL     1      16.219  52.433  49.655  1.00  0.00     0.002 A 
HETATM   34  C   UNL     1      17.571  52.753  49.600  1.00  0.00     0.001 A 
HETATM   35  C   UNL     1      18.440  51.979  48.827  1.00  0.00     0.009 A 
ENDBRANCH  28  29
ENDBRANCH  27  28
ENDBRANCH  26  27
ENDBRANCH   6  26
TORSDOF 7
ENDMDL
MODEL 6
REMARK VINA RESULT:      -9.4      1.870      2.204
REMARK  7 active torsions:
REMARK  status: ('A' for Active; 'I' for Inactive)
REMARK    1  A    between atoms: C_5  and  C_6 
REMARK    2  A    between atoms: C_6  and  N_7 
REMARK       I    between atoms: N_7  and  C_8 
REMARK    3  A    between atoms: C_8  and  C_9 
REMARK    4  A    between atoms: C_14  and  C_15 
REMARK    5  A    between atoms: C_15  and  S_16 
REMARK    6  A    between atoms: S_16  and  C_17 
REMARK    7  A    between atoms: C_17  and  C_18 
ROOT
HETATM    1  C   UNL     1      24.310  47.816  49.479  1.00  0.00     0.034 A 
HETATM    2  C   UNL     1      23.823  46.505  49.423  1.00  0.00     0.048 A 
HETATM    3  C   UNL     1      24.713  45.435  49.571  1.00  0.00     0.057 A 
HETATM    4  C   UNL     1      26.087  45.654  49.773  1.00  0.00     0.036 A 
HETATM    5  N   UNL     1      27.013  44.598  49.853  1.00  0.00    -0.277 NA
HETATM    6  C   UNL     1      26.428  43.300  50.270  1.00  0.00     0.162 C 
HETATM    7  C   UNL     1      25.043  43.026  49.650  1.00  0.00     0.240 C 
HETATM    8  O   UNL     1      24.610  41.896  49.432  1.00  0.00    -0.271 OA
HETATM    9  N   UNL     1      24.236  44.122  49.459  1.00  0.00    -0.324 N 
HETATM   10  C   UNL     1      26.568  46.962  49.759  1.00  0.00     0.027 A 
HETATM   11  C   UNL     1      25.688  48.036  49.626  1.00  0.00     0.019 A 
HETATM   12  H   UNL     1      27.511  44.514  48.965  1.00  0.00     0.128 HD
HETATM   13  H   UNL     1      23.289  43.937  49.160  1.00  0.00     0.169 HD
ENDROOT
BRANCH   1  14
HETATM   14  C   UNL     1      23.433  49.015  49.367  1.00  0.00     0.252 C 
HETATM   15  N   UNL     1      22.082  48.830  49.569  1.00  0.00    -0.353 N 
HETATM   16  H   UNL     1      21.724  47.943  49.887  1.00  0.00     0.163 HD
HETATM   17  O   UNL     1      23.935  50.111  49.143  1.00  0.00    -0.268 OA
BRANCH  15  18
HETATM   18  C   UNL     1      21.181  49.963  49.647  1.00  0.00     0.161 C 
BRANCH  18  19
HETATM   19  C   UNL     1      19.758  49.587  49.326  1.00  0.00    -0.041 A 
HETATM   20  C   UNL     1      18.883  50.528  48.768  1.00  0.00     0.009 A 
HETATM   21  C   UNL     1      17.591  50.161  48.383  1.00  0.00     0.007 A 
HETATM   22  C   UNL     1      17.150  48.844  48.547  1.00  0.00    -0.062 A 
HETATM   23  C   UNL     1      15.780  48.426  48.098  1.00  0.00     0.048 C 
HETATM   24  C   UNL     1      18.020  47.900  49.104  1.00  0.00     0.007 A 
HETATM   25  C   UNL     1      19.313  48.267  49.483  1.00  0.00     0.009 A 
ENDBRANCH  18  19
ENDBRANCH  15  18
ENDBRANCH   1  14
BRANCH   6  26
HETATM   26  C   UNL     1      27.380  42.130  49.961  1.00  0.00     0.103 C 
BRANCH  26  27
HETATM   27  S   UNL     1      28.278  41.431  51.404  1.00  0.00    -0.162 SA
BRANCH  27  28
HETATM   28  C   UNL     1      27.320  42.186  52.756  1.00  0.00     0.114 C 
BRANCH  28  29
HETATM   29  C   UNL     1      28.188  43.037  53.651  1.00  0.00    -0.027 A 
HETATM   30  C   UNL     1      27.859  44.354  54.008  1.00  0.00     0.041 A 
HETATM   31 CL   UNL     1      26.419  45.125  53.443  1.00  0.00    -0.084 Cl
HETATM   32  C   UNL     1      28.704  45.096  54.840  1.00  0.00     0.024 A 
HETATM   33  C   UNL     1      29.882  44.535  55.330  1.00  0.00     0.002 A 
HETATM   34  C   UNL     1      30.217  43.227  54.995  1.00  0.00     0.001 A 
HETATM   35  C   UNL     1      29.375  42.482  54.166  1.00  0.00     0.009 A 
ENDBRANCH  28  29
ENDBRANCH  27  28
ENDBRANCH  26  27
ENDBRANCH   6  26
TORSDOF 7
ENDMDL
MODEL 7
REMARK VINA RESULT:      -9.3      2.245      3.104
REMARK  7 active torsions:
REMARK  status: ('A' for Active; 'I' for Inactive)
REMARK    1  A    between atoms: C_5  and  C_6 
REMARK    2  A    between atoms: C_6  and  N_7 
REMARK       I    between atoms: N_7  and  C_8 
REMARK    3  A    between atoms: C_8  and  C_9 
REMARK    4  A    between atoms: C_14  and  C_15 
REMARK    5  A    between atoms: C_15  and  S_16 
REMARK    6  A    between atoms: S_16  and  C_17 
REMARK    7  A    between atoms: C_17  and  C_18 
ROOT
HETATM    1  C   UNL     1      21.253  47.390  48.221  1.00  0.00     0.034 A 
HETATM    2  C   UNL     1      22.307  48.036  48.877  1.00  0.00     0.048 A 
HETATM    3  C   UNL     1      23.422  47.295  49.282  1.00  0.00     0.057 A 
HETATM    4  C   UNL     1      23.501  45.911  49.043  1.00  0.00     0.036 A 
HETATM    5  N   UNL     1      24.577  45.129  49.502  1.00  0.00    -0.277 NA
HETATM    6  C   UNL     1      25.831  45.887  49.733  1.00  0.00     0.162 C 
HETATM    7  C   UNL     1      25.600  47.274  50.366  1.00  0.00     0.240 C 
HETATM    8  O   UNL     1      26.427  47.838  51.080  1.00  0.00    -0.271 OA
HETATM    9  N   UNL     1      24.452  47.929  49.989  1.00  0.00    -0.324 N 
HETATM   10  C   UNL     1      22.416  45.268  48.449  1.00  0.00     0.027 A 
HETATM   11  C   UNL     1      21.305  46.002  48.030  1.00  0.00     0.019 A 
HETATM   12  H   UNL     1      24.292  44.616  50.338  1.00  0.00     0.128 HD
HETATM   13  H   UNL     1      24.352  48.881  50.310  1.00  0.00     0.169 HD
ENDROOT
BRANCH   1  14
HETATM   14  C   UNL     1      20.045  48.106  47.723  1.00  0.00     0.252 C 
HETATM   15  N   UNL     1      20.189  49.435  47.390  1.00  0.00    -0.353 N 
HETATM   16  H   UNL     1      21.100  49.869  47.380  1.00  0.00     0.163 HD
HETATM   17  O   UNL     1      18.992  47.491  47.592  1.00  0.00    -0.268 OA
BRANCH  15  18
HETATM   18  C   UNL     1      19.115  50.159  46.741  1.00  0.00     0.161 C 
BRANCH  18  19
HETATM   19  C   UNL     1      18.246  50.899  47.724  1.00  0.00    -0.041 A 
HETATM   20  C   UNL     1      18.823  51.675  48.738  1.00  0.00     0.009 A 
HETATM   21  C   UNL     1      18.025  52.437  49.596  1.00  0.00     0.007 A 
HETATM   22  C   UNL     1      16.634  52.438  49.454  1.00  0.00    -0.062 A 
HETATM   23  C   UNL     1      15.768  53.285  50.340  1.00  0.00     0.048 C 
HETATM   24  C   UNL     1      16.053  51.665  48.443  1.00  0.00     0.007 A 
HETATM   25  C   UNL     1      16.852  50.909  47.582  1.00  0.00     0.009 A 
ENDBRANCH  18  19
ENDBRANCH  15  18
ENDBRANCH   1  14
BRANCH   6  26
HETATM   26  C   UNL     1      26.824  45.080  50.589  1.00  0.00     0.103 C 
BRANCH  26  27
HETATM   27  S   UNL     1      26.106  44.216  52.044  1.00  0.00    -0.162 SA
BRANCH  27  28
HETATM   28  C   UNL     1      26.858  45.194  53.383  1.00  0.00     0.114 C 
BRANCH  28  29
HETATM   29  C   UNL     1      28.113  44.545  53.914  1.00  0.00    -0.027 A 
HETATM   30  C   UNL     1      28.842  45.061  54.997  1.00  0.00     0.041 A 
HETATM   31 CL   UNL     1      28.363  46.502  55.821  1.00  0.00    -0.084 Cl
HETATM   32  C   UNL     1      30.001  44.417  55.444  1.00  0.00     0.024 A 
HETATM   33  C   UNL     1      30.444  43.251  54.821  1.00  0.00     0.002 A 
HETATM   34  C   UNL     1      29.727  42.721  53.754  1.00  0.00     0.001 A 
HETATM   35  C   UNL     1      28.568  43.360  53.307  1.00  0.00     0.009 A 
ENDBRANCH  28  29
ENDBRANCH  27  28
ENDBRANCH  26  27
ENDBRANCH   6  26
TORSDOF 7
ENDMDL
MODEL 8
REMARK VINA RESULT:      -9.2      1.699      2.071
REMARK  7 active torsions:
REMARK  status: ('A' for Active; 'I' for Inactive)
REMARK    1  A    between atoms: C_5  and  C_6 
REMARK    2  A    between atoms: C_6  and  N_7 
REMARK       I    between atoms: N_7  and  C_8 
REMARK    3  A    between atoms: C_8  and  C_9 
REMARK    4  A    between atoms: C_14  and  C_15 
REMARK    5  A    between atoms: C_15  and  S_16 
REMARK    6  A    between atoms: S_16  and  C_17 
REMARK    7  A    between atoms: C_17  and  C_18 
ROOT
HETATM    1  C   UNL     1      24.023  47.371  49.517  1.00  0.00     0.034 A 
HETATM    2  C   UNL     1      23.755  46.000  49.434  1.00  0.00     0.048 A 
HETATM    3  C   UNL     1      24.635  45.091  50.032  1.00  0.00     0.057 A 
HETATM    4  C   UNL     1      25.783  45.531  50.714  1.00  0.00     0.036 A 
HETATM    5  N   UNL     1      26.720  44.637  51.263  1.00  0.00    -0.277 NA
HETATM    6  C   UNL     1      26.176  43.293  51.574  1.00  0.00     0.162 C 
HETATM    7  C   UNL     1      25.189  42.771  50.511  1.00  0.00     0.240 C 
HETATM    8  O   UNL     1      25.013  41.576  50.279  1.00  0.00    -0.271 OA
HETATM    9  N   UNL     1      24.399  43.716  49.902  1.00  0.00    -0.324 N 
HETATM   10  C   UNL     1      26.073  46.894  50.732  1.00  0.00     0.027 A 
HETATM   11  C   UNL     1      25.195  47.810  50.149  1.00  0.00     0.019 A 
HETATM   12  H   UNL     1      27.534  44.577  50.648  1.00  0.00     0.128 HD
HETATM   13  H   UNL     1      23.674  43.369  49.289  1.00  0.00     0.169 HD
ENDROOT
BRANCH   1  14
HETATM   14  C   UNL     1      23.124  48.411  48.941  1.00  0.00     0.252 C 
HETATM   15  N   UNL     1      22.423  49.201  49.825  1.00  0.00    -0.353 N 
HETATM   16  H   UNL     1      22.598  49.147  50.817  1.00  0.00     0.163 HD
HETATM   17  O   UNL     1      23.070  48.553  47.724  1.00  0.00    -0.268 OA
BRANCH  15  18
HETATM   18  C   UNL     1      21.661  50.343  49.359  1.00  0.00     0.161 C 
BRANCH  18  19
HETATM   19  C   UNL     1      20.219  49.999  49.092  1.00  0.00    -0.041 A 
HETATM   20  C   UNL     1      19.569  50.496  47.954  1.00  0.00     0.009 A 
HETATM   21  C   UNL     1      18.262  50.106  47.651  1.00  0.00     0.007 A 
HETATM   22  C   UNL     1      17.579  49.212  48.482  1.00  0.00    -0.062 A 
HETATM   23  C   UNL     1      16.190  48.753  48.145  1.00  0.00     0.048 C 
HETATM   24  C   UNL     1      18.223  48.713  49.619  1.00  0.00     0.007 A 
HETATM   25  C   UNL     1      19.532  49.098  49.918  1.00  0.00     0.009 A 
ENDBRANCH  18  19
ENDBRANCH  15  18
ENDBRANCH   1  14
BRANCH   6  26
HETATM   26  C   UNL     1      27.304  42.267  51.789  1.00  0.00     0.103 C 
BRANCH  26  27
HETATM   27  S   UNL     1      27.943  42.133  53.508  1.00  0.00    -0.162 SA
BRANCH  27  28
HETATM   28  C   UNL     1      29.255  43.394  53.446  1.00  0.00     0.114 C 
BRANCH  28  29
HETATM   29  C   UNL     1      29.113  44.406  54.557  1.00  0.00    -0.027 A 
HETATM   30  C   UNL     1      29.965  44.442  55.673  1.00  0.00     0.041 A 
HETATM   31 CL   UNL     1      31.259  43.314  55.875  1.00  0.00    -0.084 Cl
HETATM   32  C   UNL     1      29.784  45.402  56.674  1.00  0.00     0.024 A 
HETATM   33  C   UNL     1      28.757  46.340  56.573  1.00  0.00     0.002 A 
HETATM   34  C   UNL     1      27.912  46.325  55.469  1.00  0.00     0.001 A 
HETATM   35  C   UNL     1      28.091  45.369  54.466  1.00  0.00     0.009 A 
ENDBRANCH  28  29
ENDBRANCH  27  28
ENDBRANCH  26  27
ENDBRANCH   6  26
TORSDOF 7
ENDMDL
MODEL 9
REMARK VINA RESULT:      -9.1      3.843     10.973
REMARK  7 active torsions:
REMARK  status: ('A' for Active; 'I' for Inactive)
REMARK    1  A    between atoms: C_5  and  C_6 
REMARK    2  A    between atoms: C_6  and  N_7 
REMARK       I    between atoms: N_7  and  C_8 
REMARK    3  A    between atoms: C_8  and  C_9 
REMARK    4  A    between atoms: C_14  and  C_15 
REMARK    5  A    between atoms: C_15  and  S_16 
REMARK    6  A    between atoms: S_16  and  C_17 
REMARK    7  A    between atoms: C_17  and  C_18 
ROOT
HETATM    1  C   UNL     1      25.401  42.873  50.602  1.00  0.00     0.034 A 
HETATM    2  C   UNL     1      24.681  42.365  49.514  1.00  0.00     0.048 A 
HETATM    3  C   UNL     1      23.592  43.087  49.014  1.00  0.00     0.057 A 
HETATM    4  C   UNL     1      23.208  44.313  49.586  1.00  0.00     0.036 A 
HETATM    5  N   UNL     1      22.075  45.024  49.150  1.00  0.00    -0.277 NA
HETATM    6  C   UNL     1      21.664  44.727  47.756  1.00  0.00     0.162 C 
HETATM    7  C   UNL     1      21.791  43.235  47.386  1.00  0.00     0.240 C 
HETATM    8  O   UNL     1      21.085  42.685  46.542  1.00  0.00    -0.271 OA
HETATM    9  N   UNL     1      22.836  42.554  47.962  1.00  0.00    -0.324 N 
HETATM   10  C   UNL     1      23.891  44.774  50.710  1.00  0.00     0.027 A 
HETATM   11  C   UNL     1      24.986  44.067  51.209  1.00  0.00     0.019 A 
HETATM   12  H   UNL     1      21.306  44.875  49.805  1.00  0.00     0.128 HD
HETATM   13  H   UNL     1      22.991  41.610  47.637  1.00  0.00     0.169 HD
ENDROOT
BRANCH   1  14
HETATM   14  C   UNL     1      26.594  42.190  51.177  1.00  0.00     0.252 C 
HETATM   15  N   UNL     1      27.578  42.987  51.720  1.00  0.00    -0.353 N 
HETATM   16  H   UNL     1      27.441  43.981  51.820  1.00  0.00     0.163 HD
HETATM   17  O   UNL     1      26.642  40.964  51.184  1.00  0.00    -0.268 OA
BRANCH  15  18
HETATM   18  C   UNL     1      28.688  42.405  52.449  1.00  0.00     0.161 C 
BRANCH  18  19
HETATM   19  C   UNL     1      29.158  43.287  53.576  1.00  0.00    -0.041 A 
HETATM   20  C   UNL     1      28.404  44.401  53.969  1.00  0.00     0.009 A 
HETATM   21  C   UNL     1      28.787  45.169  55.072  1.00  0.00     0.007 A 
HETATM   22  C   UNL     1      29.932  44.837  55.803  1.00  0.00    -0.062 A 
HETATM   23  C   UNL     1      30.329  45.627  57.015  1.00  0.00     0.048 C 
HETATM   24  C   UNL     1      30.688  43.725  55.415  1.00  0.00     0.007 A 
HETATM   25  C   UNL     1      30.302  42.955  54.316  1.00  0.00     0.009 A 
ENDBRANCH  18  19
ENDBRANCH  15  18
ENDBRANCH   1  14
BRANCH   6  26
HETATM   26  C   UNL     1      20.231  45.215  47.477  1.00  0.00     0.103 C 
BRANCH  26  27
HETATM   27  S   UNL     1      20.071  46.979  46.985  1.00  0.00    -0.162 SA
BRANCH  27  28
HETATM   28  C   UNL     1      18.981  47.571  48.317  1.00  0.00     0.114 C 
BRANCH  28  29
HETATM   29  C   UNL     1      19.236  49.022  48.647  1.00  0.00    -0.027 A 
HETATM   30  C   UNL     1      19.100  49.548  49.941  1.00  0.00     0.041 A 
HETATM   31 CL   UNL     1      18.617  48.571  51.283  1.00  0.00    -0.084 Cl
HETATM   32  C   UNL     1      19.347  50.903  50.187  1.00  0.00     0.024 A 
HETATM   33  C   UNL     1      19.738  51.748  49.148  1.00  0.00     0.002 A 
HETATM   34  C   UNL     1      19.889  51.239  47.862  1.00  0.00     0.001 A 
HETATM   35  C   UNL     1      19.644  49.887  47.614  1.00  0.00     0.009 A 
ENDBRANCH  28  29
ENDBRANCH  27  28
ENDBRANCH  26  27
ENDBRANCH   6  26
TORSDOF 7
ENDMDL
MODEL 10
REMARK VINA RESULT:      -8.7      2.235      2.824
REMARK  7 active torsions:
REMARK  status: ('A' for Active; 'I' for Inactive)
REMARK    1  A    between atoms: C_5  and  C_6 
REMARK    2  A    between atoms: C_6  and  N_7 
REMARK       I    between atoms: N_7  and  C_8 
REMARK    3  A    between atoms: C_8  and  C_9 
REMARK    4  A    between atoms: C_14  and  C_15 
REMARK    5  A    between atoms: C_15  and  S_16 
REMARK    6  A    between atoms: S_16  and  C_17 
REMARK    7  A    between atoms: C_17  and  C_18 
ROOT
HETATM    1  C   UNL     1      23.085  45.105  48.276  1.00  0.00     0.034 A 
HETATM    2  C   UNL     1      23.381  45.658  49.527  1.00  0.00     0.048 A 
HETATM    3  C   UNL     1      24.302  45.015  50.362  1.00  0.00     0.057 A 
HETATM    4  C   UNL     1      24.934  43.823  49.966  1.00  0.00     0.036 A 
HETATM    5  N   UNL     1      25.809  43.119  50.812  1.00  0.00    -0.277 NA
HETATM    6  C   UNL     1      26.445  43.949  51.864  1.00  0.00     0.162 C 
HETATM    7  C   UNL     1      25.491  44.988  52.484  1.00  0.00     0.240 C 
HETATM    8  O   UNL     1      25.602  45.409  53.634  1.00  0.00    -0.271 OA
HETATM    9  N   UNL     1      24.557  45.536  51.637  1.00  0.00    -0.324 N 
HETATM   10  C   UNL     1      24.580  43.248  48.746  1.00  0.00     0.027 A 
HETATM   11  C   UNL     1      23.673  43.888  47.901  1.00  0.00     0.019 A 
HETATM   12  H   UNL     1      25.321  42.317  51.215  1.00  0.00     0.128 HD
HETATM   13  H   UNL     1      24.005  46.297  52.007  1.00  0.00     0.169 HD
ENDROOT
BRANCH   1  14
HETATM   14  C   UNL     1      22.145  45.739  47.309  1.00  0.00     0.252 C 
HETATM   15  N   UNL     1      21.067  46.421  47.830  1.00  0.00    -0.353 N 
HETATM   16  H   UNL     1      20.984  46.575  48.823  1.00  0.00     0.163 HD
HETATM   17  O   UNL     1      22.379  45.668  46.107  1.00  0.00    -0.268 OA
BRANCH  15  18
HETATM   18  C   UNL     1      20.201  47.208  46.974  1.00  0.00     0.161 C 
BRANCH  18  19
HETATM   19  C   UNL     1      19.707  48.459  47.652  1.00  0.00    -0.041 A 
HETATM   20  C   UNL     1      19.134  48.395  48.929  1.00  0.00     0.009 A 
HETATM   21  C   UNL     1      18.759  49.561  49.602  1.00  0.00     0.007 A 
HETATM   22  C   UNL     1      18.951  50.813  49.010  1.00  0.00    -0.062 A 
HETATM   23  C   UNL     1      18.592  52.075  49.739  1.00  0.00     0.048 C 
HETATM   24  C   UNL     1      19.523  50.882  47.735  1.00  0.00     0.007 A 
HETATM   25  C   UNL     1      19.903  49.717  47.066  1.00  0.00     0.009 A 
ENDBRANCH  18  19
ENDBRANCH  15  18
ENDBRANCH   1  14
BRANCH   6  26
HETATM   26  C   UNL     1      27.060  43.076  52.973  1.00  0.00     0.103 C 
BRANCH  26  27
HETATM   27  S   UNL     1      28.854  43.330  53.286  1.00  0.00    -0.162 SA
BRANCH  27  28
HETATM   28  C   UNL     1      28.765  44.710  54.471  1.00  0.00     0.114 C 
BRANCH  28  29
HETATM   29  C   UNL     1      29.724  44.524  55.621  1.00  0.00    -0.027 A 
HETATM   30  C   UNL     1      29.685  45.307  56.785  1.00  0.00     0.041 A 
HETATM   31 CL   UNL     1      28.527  46.572  57.001  1.00  0.00    -0.084 Cl
HETATM   32  C   UNL     1      30.602  45.090  57.819  1.00  0.00     0.024 A 
HETATM   33  C   UNL     1      31.565  44.087  57.708  1.00  0.00     0.002 A 
HETATM   34  C   UNL     1      31.609  43.294  56.566  1.00  0.00     0.001 A 
HETATM   35  C   UNL     1      30.694  43.507  55.533  1.00  0.00     0.009 A 
ENDBRANCH  28  29
ENDBRANCH  27  28
ENDBRANCH  26  27
ENDBRANCH   6  26
TORSDOF 7
ENDMDL
