MODEL 1
REMARK VINA RESULT:      -9.1      0.000      0.000
REMARK  5 active torsions:
REMARK  status: ('A' for Active; 'I' for Inactive)
REMARK    1  A    between atoms: C_8  and  C_9 
REMARK       I    between atoms: C_9  and  N_10 
REMARK    2  A    between atoms: N_10  and  C_11 
REMARK    3  A    between atoms: C_14  and  N_15 
REMARK       I    between atoms: N_15  and  C_16 
REMARK       I    between atoms: C_16  and  N_17 
REMARK    4  A    between atoms: N_17  and  C_18 
REMARK    5  A    between atoms: C_18  and  C_19 
ROOT
HETATM    1  C   UNL     1      26.055  46.437  51.827  1.00  0.00     0.035 A 
HETATM    2  C   UNL     1      26.123  47.553  50.992  1.00  0.00     0.032 A 
HETATM    3  C   UNL     1      25.219  47.709  49.927  1.00  0.00     0.032 A 
HETATM    4  C   UNL     1      24.227  46.759  49.690  1.00  0.00     0.036 A 
HETATM    5  C   UNL     1      24.188  45.620  50.502  1.00  0.00     0.032 A 
HETATM    6  C   UNL     1      25.087  45.465  51.563  1.00  0.00     0.032 A 
ENDROOT
BRANCH   1   7
HETATM    7  N   UNL     1      26.909  46.201  52.925  1.00  0.00    -0.322 N 
HETATM    8  C   UNL     1      26.692  46.501  54.261  1.00  0.00     0.274 C 
HETATM    9  O   UNL     1      25.665  47.006  54.697  1.00  0.00    -0.266 OA
HETATM   10  H   UNL     1      27.751  45.689  52.709  1.00  0.00     0.169 HD
BRANCH   8  11
HETATM   11  C   UNL     1      27.796  46.127  55.122  1.00  0.00     0.126 A 
HETATM   12  N   UNL     1      28.663  45.060  54.923  1.00  0.00    -0.300 N 
HETATM   13  C   UNL     1      28.721  44.104  53.902  1.00  0.00     0.106 A 
HETATM   14  C   UNL     1      29.580  45.087  55.973  1.00  0.00     0.134 A 
HETATM   15  C   UNL     1      29.687  43.164  53.911  1.00  0.00    -0.046 A 
HETATM   16  C   UNL     1      29.820  42.100  52.867  1.00  0.00     0.049 C 
HETATM   17  C   UNL     1      30.660  43.181  54.999  1.00  0.00     0.012 A 
HETATM   18  C   UNL     1      30.605  44.100  55.981  1.00  0.00     0.051 A 
HETATM   19  N   UNL     1      29.332  46.063  56.816  1.00  0.00    -0.240 NA
HETATM   20  C   UNL     1      28.229  46.692  56.312  1.00  0.00     0.155 A 
ENDBRANCH   8  11
ENDBRANCH   1   7
BRANCH   4  21
HETATM   21  N   UNL     1      23.275  46.821  48.659  1.00  0.00    -0.309 N 
HETATM   22  C   UNL     1      22.222  47.640  48.393  1.00  0.00     0.320 C 
HETATM   23  N   UNL     1      21.786  48.461  49.381  1.00  0.00    -0.339 N 
HETATM   24  O   UNL     1      21.678  47.555  47.293  1.00  0.00    -0.247 OA
HETATM   25  H   UNL     1      22.003  48.174  50.321  1.00  0.00     0.164 HD
HETATM   26  H   UNL     1      23.366  46.132  47.921  1.00  0.00     0.170 HD
BRANCH  23  27
HETATM   27  C   UNL     1      20.606  49.278  49.222  1.00  0.00     0.150 C 
BRANCH  27  28
HETATM   28  C   UNL     1      20.967  50.718  49.012  1.00  0.00    -0.018 C 
HETATM   29  C   UNL     1      20.180  51.705  48.558  1.00  0.00     0.008 C 
ENDBRANCH  27  28
ENDBRANCH  23  27
ENDBRANCH   4  21
TORSDOF 5
ENDMDL
MODEL 2
REMARK VINA RESULT:      -8.8      1.868      2.954
REMARK  5 active torsions:
REMARK  status: ('A' for Active; 'I' for Inactive)
REMARK    1  A    between atoms: C_8  and  C_9 
REMARK       I    between atoms: C_9  and  N_10 
REMARK    2  A    between atoms: N_10  and  C_11 
REMARK    3  A    between atoms: C_14  and  N_15 
REMARK       I    between atoms: N_15  and  C_16 
REMARK       I    between atoms: C_16  and  N_17 
REMARK    4  A    between atoms: N_17  and  C_18 
REMARK    5  A    between atoms: C_18  and  C_19 
ROOT
HETATM    1  C   UNL     1      24.968  45.616  50.130  1.00  0.00     0.035 A 
HETATM    2  C   UNL     1      24.839  46.996  50.289  1.00  0.00     0.032 A 
HETATM    3  C   UNL     1      23.838  47.707  49.604  1.00  0.00     0.032 A 
HETATM    4  C   UNL     1      22.945  47.047  48.762  1.00  0.00     0.036 A 
HETATM    5  C   UNL     1      23.104  45.670  48.572  1.00  0.00     0.032 A 
HETATM    6  C   UNL     1      24.100  44.962  49.253  1.00  0.00     0.032 A 
ENDROOT
BRANCH   1   7
HETATM    7  N   UNL     1      25.931  44.818  50.783  1.00  0.00    -0.322 N 
HETATM    8  C   UNL     1      25.802  44.118  51.972  1.00  0.00     0.274 C 
HETATM    9  O   UNL     1      24.772  44.065  52.633  1.00  0.00    -0.266 OA
HETATM   10  H   UNL     1      26.797  44.695  50.279  1.00  0.00     0.169 HD
BRANCH   8  11
HETATM   11  C   UNL     1      27.006  43.408  52.357  1.00  0.00     0.126 A 
HETATM   12  N   UNL     1      27.897  43.791  53.352  1.00  0.00    -0.300 N 
HETATM   13  C   UNL     1      27.892  44.894  54.213  1.00  0.00     0.106 A 
HETATM   14  C   UNL     1      28.889  42.811  53.400  1.00  0.00     0.134 A 
HETATM   15  C   UNL     1      28.868  45.040  55.130  1.00  0.00    -0.046 A 
HETATM   16  C   UNL     1      28.947  46.190  56.085  1.00  0.00     0.049 C 
HETATM   17  C   UNL     1      29.912  44.021  55.199  1.00  0.00     0.012 A 
HETATM   18  C   UNL     1      29.918  42.960  54.372  1.00  0.00     0.051 A 
HETATM   19  N   UNL     1      28.698  41.875  52.498  1.00  0.00    -0.240 NA
HETATM   20  C   UNL     1      27.558  42.244  51.844  1.00  0.00     0.155 A 
ENDBRANCH   8  11
ENDBRANCH   1   7
BRANCH   4  21
HETATM   21  N   UNL     1      21.911  47.661  48.037  1.00  0.00    -0.309 N 
HETATM   22  C   UNL     1      20.819  48.393  48.384  1.00  0.00     0.320 C 
HETATM   23  N   UNL     1      20.445  48.404  49.688  1.00  0.00    -0.339 N 
HETATM   24  O   UNL     1      20.189  48.962  47.494  1.00  0.00    -0.247 OA
HETATM   25  H   UNL     1      20.746  47.617  50.239  1.00  0.00     0.164 HD
HETATM   26  H   UNL     1      21.958  47.577  47.028  1.00  0.00     0.170 HD
BRANCH  23  27
HETATM   27  C   UNL     1      19.235  49.060  50.125  1.00  0.00     0.150 C 
BRANCH  27  28
HETATM   28  C   UNL     1      19.494  50.496  50.476  1.00  0.00    -0.018 C 
HETATM   29  C   UNL     1      19.336  51.573  49.693  1.00  0.00     0.008 C 
ENDBRANCH  27  28
ENDBRANCH  23  27
ENDBRANCH   4  21
TORSDOF 5
ENDMDL
MODEL 3
REMARK VINA RESULT:      -8.6      2.542      9.730
REMARK  5 active torsions:
REMARK  status: ('A' for Active; 'I' for Inactive)
REMARK    1  A    between atoms: C_8  and  C_9 
REMARK       I    between atoms: C_9  and  N_10 
REMARK    2  A    between atoms: N_10  and  C_11 
REMARK    3  A    between atoms: C_14  and  N_15 
REMARK       I    between atoms: N_15  and  C_16 
REMARK       I    between atoms: C_16  and  N_17 
REMARK    4  A    between atoms: N_17  and  C_18 
REMARK    5  A    between atoms: C_18  and  C_19 
ROOT
HETATM    1  C   UNL     1      25.126  45.938  50.505  1.00  0.00     0.035 A 
HETATM    2  C   UNL     1      24.656  45.194  51.587  1.00  0.00     0.032 A 
HETATM    3  C   UNL     1      25.303  44.009  51.979  1.00  0.00     0.032 A 
HETATM    4  C   UNL     1      26.436  43.558  51.303  1.00  0.00     0.036 A 
HETATM    5  C   UNL     1      26.879  44.283  50.192  1.00  0.00     0.032 A 
HETATM    6  C   UNL     1      26.236  45.463  49.801  1.00  0.00     0.032 A 
ENDROOT
BRANCH   1   7
HETATM    7  N   UNL     1      24.552  47.142  50.047  1.00  0.00    -0.322 N 
HETATM    8  C   UNL     1      23.512  47.310  49.146  1.00  0.00     0.274 C 
HETATM    9  O   UNL     1      22.896  46.388  48.624  1.00  0.00    -0.266 OA
HETATM   10  H   UNL     1      24.905  47.979  50.488  1.00  0.00     0.169 HD
BRANCH   8  11
HETATM   11  C   UNL     1      23.185  48.699  48.893  1.00  0.00     0.126 A 
HETATM   12  N   UNL     1      21.917  49.263  48.948  1.00  0.00    -0.300 N 
HETATM   13  C   UNL     1      20.673  48.694  49.245  1.00  0.00     0.106 A 
HETATM   14  C   UNL     1      22.069  50.620  48.664  1.00  0.00     0.134 A 
HETATM   15  C   UNL     1      19.566  49.463  49.262  1.00  0.00    -0.046 A 
HETATM   16  C   UNL     1      18.195  48.940  49.559  1.00  0.00     0.049 C 
HETATM   17  C   UNL     1      19.707  50.887  48.972  1.00  0.00     0.012 A 
HETATM   18  C   UNL     1      20.903  51.435  48.688  1.00  0.00     0.051 A 
HETATM   19  N   UNL     1      23.320  50.931  48.410  1.00  0.00    -0.240 NA
HETATM   20  C   UNL     1      24.006  49.756  48.530  1.00  0.00     0.155 A 
ENDBRANCH   8  11
ENDBRANCH   1   7
BRANCH   4  21
HETATM   21  N   UNL     1      27.155  42.393  51.615  1.00  0.00    -0.309 N 
HETATM   22  C   UNL     1      28.248  42.135  52.384  1.00  0.00     0.320 C 
HETATM   23  N   UNL     1      28.998  43.185  52.802  1.00  0.00    -0.339 N 
HETATM   24  O   UNL     1      28.536  40.962  52.613  1.00  0.00    -0.247 OA
HETATM   25  H   UNL     1      28.934  44.021  52.245  1.00  0.00     0.164 HD
HETATM   26  H   UNL     1      26.810  41.530  51.212  1.00  0.00     0.170 HD
BRANCH  23  27
HETATM   27  C   UNL     1      30.234  42.994  53.523  1.00  0.00     0.150 C 
BRANCH  27  28
HETATM   28  C   UNL     1      30.120  43.489  54.934  1.00  0.00    -0.018 C 
HETATM   29  C   UNL     1      31.010  43.348  55.928  1.00  0.00     0.008 C 
ENDBRANCH  27  28
ENDBRANCH  23  27
ENDBRANCH   4  21
TORSDOF 5
ENDMDL
MODEL 4
REMARK VINA RESULT:      -8.3      2.617      3.905
REMARK  5 active torsions:
REMARK  status: ('A' for Active; 'I' for Inactive)
REMARK    1  A    between atoms: C_8  and  C_9 
REMARK       I    between atoms: C_9  and  N_10 
REMARK    2  A    between atoms: N_10  and  C_11 
REMARK    3  A    between atoms: C_14  and  N_15 
REMARK       I    between atoms: N_15  and  C_16 
REMARK       I    between atoms: C_16  and  N_17 
REMARK    4  A    between atoms: N_17  and  C_18 
REMARK    5  A    between atoms: C_18  and  C_19 
ROOT
HETATM    1  C   UNL     1      24.601  45.861  49.949  1.00  0.00     0.035 A 
HETATM    2  C   UNL     1      24.817  47.193  50.298  1.00  0.00     0.032 A 
HETATM    3  C   UNL     1      23.956  48.205  49.838  1.00  0.00     0.032 A 
HETATM    4  C   UNL     1      22.860  47.896  49.034  1.00  0.00     0.036 A 
HETATM    5  C   UNL     1      22.670  46.564  48.651  1.00  0.00     0.032 A 
HETATM    6  C   UNL     1      23.527  45.557  49.108  1.00  0.00     0.032 A 
ENDROOT
BRANCH   1   7
HETATM    7  N   UNL     1      25.403  44.779  50.370  1.00  0.00    -0.322 N 
HETATM    8  C   UNL     1      26.742  44.547  50.103  1.00  0.00     0.274 C 
HETATM    9  O   UNL     1      27.458  45.305  49.460  1.00  0.00    -0.266 OA
HETATM   10  H   UNL     1      24.951  44.133  51.002  1.00  0.00     0.169 HD
BRANCH   8  11
HETATM   11  C   UNL     1      27.245  43.321  50.690  1.00  0.00     0.126 A 
HETATM   12  N   UNL     1      27.871  43.203  51.924  1.00  0.00    -0.300 N 
HETATM   13  C   UNL     1      28.176  44.165  52.894  1.00  0.00     0.106 A 
HETATM   14  C   UNL     1      28.162  41.850  52.098  1.00  0.00     0.134 A 
HETATM   15  C   UNL     1      28.774  43.799  54.045  1.00  0.00    -0.046 A 
HETATM   16  C   UNL     1      29.144  44.760  55.131  1.00  0.00     0.049 C 
HETATM   17  C   UNL     1      29.081  42.386  54.246  1.00  0.00     0.012 A 
HETATM   18  C   UNL     1      28.788  41.460  53.316  1.00  0.00     0.051 A 
HETATM   19  N   UNL     1      27.795  41.132  51.062  1.00  0.00    -0.240 NA
HETATM   20  C   UNL     1      27.249  42.028  50.188  1.00  0.00     0.155 A 
ENDBRANCH   8  11
ENDBRANCH   1   7
BRANCH   4  21
HETATM   21  N   UNL     1      21.939  48.828  48.527  1.00  0.00    -0.309 N 
HETATM   22  C   UNL     1      20.686  49.213  48.890  1.00  0.00     0.320 C 
HETATM   23  N   UNL     1      20.015  48.443  49.783  1.00  0.00    -0.339 N 
HETATM   24  O   UNL     1      20.200  50.204  48.350  1.00  0.00    -0.247 OA
HETATM   25  H   UNL     1      20.306  47.481  49.841  1.00  0.00     0.164 HD
HETATM   26  H   UNL     1      22.240  49.364  47.721  1.00  0.00     0.170 HD
BRANCH  23  27
HETATM   27  C   UNL     1      18.642  48.714  50.136  1.00  0.00     0.150 C 
BRANCH  27  28
HETATM   28  C   UNL     1      17.705  48.273  49.051  1.00  0.00    -0.018 C 
HETATM   29  C   UNL     1      16.901  47.200  49.047  1.00  0.00     0.008 C 
ENDBRANCH  27  28
ENDBRANCH  23  27
ENDBRANCH   4  21
TORSDOF 5
ENDMDL
MODEL 5
REMARK VINA RESULT:      -8.2      3.022      9.703
REMARK  5 active torsions:
REMARK  status: ('A' for Active; 'I' for Inactive)
REMARK    1  A    between atoms: C_8  and  C_9 
REMARK       I    between atoms: C_9  and  N_10 
REMARK    2  A    between atoms: N_10  and  C_11 
REMARK    3  A    between atoms: C_14  and  N_15 
REMARK       I    between atoms: N_15  and  C_16 
REMARK       I    between atoms: C_16  and  N_17 
REMARK    4  A    between atoms: N_17  and  C_18 
REMARK    5  A    between atoms: C_18  and  C_19 
ROOT
HETATM    1  C   UNL     1      24.388  46.095  49.958  1.00  0.00     0.035 A 
HETATM    2  C   UNL     1      23.897  44.794  50.072  1.00  0.00     0.032 A 
HETATM    3  C   UNL     1      24.773  43.694  50.086  1.00  0.00     0.032 A 
HETATM    4  C   UNL     1      26.152  43.881  50.000  1.00  0.00     0.036 A 
HETATM    5  C   UNL     1      26.639  45.183  49.842  1.00  0.00     0.032 A 
HETATM    6  C   UNL     1      25.767  46.278  49.828  1.00  0.00     0.032 A 
ENDROOT
BRANCH   1   7
HETATM    7  N   UNL     1      23.589  47.258  49.946  1.00  0.00    -0.322 N 
HETATM    8  C   UNL     1      22.855  47.785  48.896  1.00  0.00     0.274 C 
HETATM    9  O   UNL     1      22.767  47.269  47.788  1.00  0.00    -0.266 OA
HETATM   10  H   UNL     1      23.494  47.719  50.840  1.00  0.00     0.169 HD
BRANCH   8  11
HETATM   11  C   UNL     1      22.156  49.008  49.237  1.00  0.00     0.126 A 
HETATM   12  N   UNL     1      20.780  49.159  49.347  1.00  0.00    -0.300 N 
HETATM   13  C   UNL     1      19.740  48.239  49.175  1.00  0.00     0.106 A 
HETATM   14  C   UNL     1      20.551  50.485  49.717  1.00  0.00     0.134 A 
HETATM   15  C   UNL     1      18.461  48.621  49.366  1.00  0.00    -0.046 A 
HETATM   16  C   UNL     1      17.287  47.708  49.196  1.00  0.00     0.049 C 
HETATM   17  C   UNL     1      18.203  50.004  49.758  1.00  0.00     0.012 A 
HETATM   18  C   UNL     1      19.202  50.889  49.925  1.00  0.00     0.051 A 
HETATM   19  N   UNL     1      21.669  51.168  49.814  1.00  0.00    -0.240 NA
HETATM   20  C   UNL     1      22.655  50.275  49.503  1.00  0.00     0.155 A 
ENDBRANCH   8  11
ENDBRANCH   1   7
BRANCH   4  21
HETATM   21  N   UNL     1      27.110  42.854  50.009  1.00  0.00    -0.309 N 
HETATM   22  C   UNL     1      27.632  42.057  50.979  1.00  0.00     0.320 C 
HETATM   23  N   UNL     1      27.404  42.394  52.273  1.00  0.00    -0.339 N 
HETATM   24  O   UNL     1      28.334  41.106  50.640  1.00  0.00    -0.247 OA
HETATM   25  H   UNL     1      27.195  43.363  52.446  1.00  0.00     0.164 HD
HETATM   26  H   UNL     1      27.517  42.611  49.112  1.00  0.00     0.170 HD
BRANCH  23  27
HETATM   27  C   UNL     1      28.015  41.670  53.364  1.00  0.00     0.150 C 
BRANCH  27  28
HETATM   28  C   UNL     1      29.119  42.467  53.992  1.00  0.00    -0.018 C 
HETATM   29  C   UNL     1      30.287  42.828  53.441  1.00  0.00     0.008 C 
ENDBRANCH  27  28
ENDBRANCH  23  27
ENDBRANCH   4  21
TORSDOF 5
ENDMDL
MODEL 6
REMARK VINA RESULT:      -8.0      4.971      6.709
REMARK  5 active torsions:
REMARK  status: ('A' for Active; 'I' for Inactive)
REMARK    1  A    between atoms: C_8  and  C_9 
REMARK       I    between atoms: C_9  and  N_10 
REMARK    2  A    between atoms: N_10  and  C_11 
REMARK    3  A    between atoms: C_14  and  N_15 
REMARK       I    between atoms: N_15  and  C_16 
REMARK       I    between atoms: C_16  and  N_17 
REMARK    4  A    between atoms: N_17  and  C_18 
REMARK    5  A    between atoms: C_18  and  C_19 
ROOT
HETATM    1  C   UNL     1      26.615  42.526  51.789  1.00  0.00     0.035 A 
HETATM    2  C   UNL     1      27.100  41.225  51.664  1.00  0.00     0.032 A 
HETATM    3  C   UNL     1      26.655  40.389  50.624  1.00  0.00     0.032 A 
HETATM    4  C   UNL     1      25.731  40.848  49.688  1.00  0.00     0.036 A 
HETATM    5  C   UNL     1      25.214  42.139  49.840  1.00  0.00     0.032 A 
HETATM    6  C   UNL     1      25.656  42.971  50.875  1.00  0.00     0.032 A 
ENDROOT
BRANCH   1   7
HETATM    7  N   UNL     1      27.010  43.439  52.789  1.00  0.00    -0.322 N 
HETATM    8  C   UNL     1      28.281  43.919  53.060  1.00  0.00     0.274 C 
HETATM    9  O   UNL     1      29.281  43.628  52.413  1.00  0.00    -0.266 OA
HETATM   10  H   UNL     1      26.254  43.838  53.327  1.00  0.00     0.169 HD
BRANCH   8  11
HETATM   11  C   UNL     1      28.324  44.843  54.176  1.00  0.00     0.126 A 
HETATM   12  N   UNL     1      29.191  44.775  55.260  1.00  0.00    -0.300 N 
HETATM   13  C   UNL     1      30.205  43.861  55.567  1.00  0.00     0.106 A 
HETATM   14  C   UNL     1      28.901  45.870  56.074  1.00  0.00     0.134 A 
HETATM   15  C   UNL     1      30.943  44.020  56.684  1.00  0.00    -0.046 A 
HETATM   16  C   UNL     1      32.040  43.089  57.095  1.00  0.00     0.049 C 
HETATM   17  C   UNL     1      30.658  45.165  57.545  1.00  0.00     0.012 A 
HETATM   18  C   UNL     1      29.683  46.044  57.250  1.00  0.00     0.051 A 
HETATM   19  N   UNL     1      27.910  46.588  55.596  1.00  0.00    -0.240 NA
HETATM   20  C   UNL     1      27.539  45.954  54.444  1.00  0.00     0.155 A 
ENDBRANCH   8  11
ENDBRANCH   1   7
BRANCH   4  21
HETATM   21  N   UNL     1      25.226  40.098  48.613  1.00  0.00    -0.309 N 
HETATM   22  C   UNL     1      25.799  39.355  47.627  1.00  0.00     0.320 C 
HETATM   23  N   UNL     1      27.134  39.481  47.427  1.00  0.00    -0.339 N 
HETATM   24  O   UNL     1      25.072  38.652  46.928  1.00  0.00    -0.247 OA
HETATM   25  H   UNL     1      27.548  40.343  47.742  1.00  0.00     0.164 HD
HETATM   26  H   UNL     1      24.217  40.064  48.523  1.00  0.00     0.170 HD
BRANCH  23  27
HETATM   27  C   UNL     1      27.802  38.818  46.332  1.00  0.00     0.150 C 
BRANCH  27  28
HETATM   28  C   UNL     1      27.835  39.688  45.111  1.00  0.00    -0.018 C 
HETATM   29  C   UNL     1      28.301  40.941  45.008  1.00  0.00     0.008 C 
ENDBRANCH  27  28
ENDBRANCH  23  27
ENDBRANCH   4  21
TORSDOF 5
ENDMDL
MODEL 7
REMARK VINA RESULT:      -7.9      2.247      9.525
REMARK  5 active torsions:
REMARK  status: ('A' for Active; 'I' for Inactive)
REMARK    1  A    between atoms: C_8  and  C_9 
REMARK       I    between atoms: C_9  and  N_10 
REMARK    2  A    between atoms: N_10  and  C_11 
REMARK    3  A    between atoms: C_14  and  N_15 
REMARK       I    between atoms: N_15  and  C_16 
REMARK       I    between atoms: C_16  and  N_17 
REMARK    4  A    between atoms: N_17  and  C_18 
REMARK    5  A    between atoms: C_18  and  C_19 
ROOT
HETATM    1  C   UNL     1      24.450  45.153  50.224  1.00  0.00     0.035 A 
HETATM    2  C   UNL     1      24.459  44.022  51.041  1.00  0.00     0.032 A 
HETATM    3  C   UNL     1      25.671  43.473  51.494  1.00  0.00     0.032 A 
HETATM    4  C   UNL     1      26.890  44.055  51.148  1.00  0.00     0.036 A 
HETATM    5  C   UNL     1      26.879  45.163  50.294  1.00  0.00     0.032 A 
HETATM    6  C   UNL     1      25.673  45.710  49.843  1.00  0.00     0.032 A 
ENDROOT
BRANCH   1   7
HETATM    7  N   UNL     1      23.286  45.780  49.732  1.00  0.00    -0.322 N 
HETATM    8  C   UNL     1      22.636  45.561  48.527  1.00  0.00     0.274 C 
HETATM    9  O   UNL     1      22.982  44.727  47.699  1.00  0.00    -0.266 OA
HETATM   10  H   UNL     1      22.840  46.419  50.375  1.00  0.00     0.169 HD
BRANCH   8  11
HETATM   11  C   UNL     1      21.467  46.398  48.342  1.00  0.00     0.126 A 
HETATM   12  N   UNL     1      21.466  47.778  48.185  1.00  0.00    -0.300 N 
HETATM   13  C   UNL     1      22.520  48.699  48.161  1.00  0.00     0.106 A 
HETATM   14  C   UNL     1      20.137  48.161  48.012  1.00  0.00     0.134 A 
HETATM   15  C   UNL     1      22.269  50.008  47.966  1.00  0.00    -0.046 A 
HETATM   16  C   UNL     1      23.331  51.063  47.933  1.00  0.00     0.049 C 
HETATM   17  C   UNL     1      20.883  50.427  47.776  1.00  0.00     0.012 A 
HETATM   18  C   UNL     1      19.869  49.542  47.799  1.00  0.00     0.051 A 
HETATM   19  N   UNL     1      19.318  47.136  48.078  1.00  0.00    -0.240 NA
HETATM   20  C   UNL     1      20.124  46.055  48.299  1.00  0.00     0.155 A 
ENDBRANCH   8  11
ENDBRANCH   1   7
BRANCH   4  21
HETATM   21  N   UNL     1      28.153  43.589  51.548  1.00  0.00    -0.309 N 
HETATM   22  C   UNL     1      28.837  43.606  52.724  1.00  0.00     0.320 C 
HETATM   23  N   UNL     1      28.381  44.411  53.716  1.00  0.00    -0.339 N 
HETATM   24  O   UNL     1      29.867  42.941  52.810  1.00  0.00    -0.247 OA
HETATM   25  H   UNL     1      27.816  45.192  53.426  1.00  0.00     0.164 HD
HETATM   26  H   UNL     1      28.702  43.115  50.841  1.00  0.00     0.170 HD
BRANCH  23  27
HETATM   27  C   UNL     1      29.109  44.577  54.952  1.00  0.00     0.150 C 
BRANCH  27  28
HETATM   28  C   UNL     1      29.060  46.000  55.423  1.00  0.00    -0.018 C 
HETATM   29  C   UNL     1      28.160  46.940  55.102  1.00  0.00     0.008 C 
ENDBRANCH  27  28
ENDBRANCH  23  27
ENDBRANCH   4  21
TORSDOF 5
ENDMDL
MODEL 8
REMARK VINA RESULT:      -7.7      4.785      7.717
REMARK  5 active torsions:
REMARK  status: ('A' for Active; 'I' for Inactive)
REMARK    1  A    between atoms: C_8  and  C_9 
REMARK       I    between atoms: C_9  and  N_10 
REMARK    2  A    between atoms: N_10  and  C_11 
REMARK    3  A    between atoms: C_14  and  N_15 
REMARK       I    between atoms: N_15  and  C_16 
REMARK       I    between atoms: C_16  and  N_17 
REMARK    4  A    between atoms: N_17  and  C_18 
REMARK    5  A    between atoms: C_18  and  C_19 
ROOT
HETATM    1  C   UNL     1      20.505  49.803  49.563  1.00  0.00     0.035 A 
HETATM    2  C   UNL     1      20.634  51.100  49.065  1.00  0.00     0.032 A 
HETATM    3  C   UNL     1      19.539  51.980  49.061  1.00  0.00     0.032 A 
HETATM    4  C   UNL     1      18.303  51.582  49.568  1.00  0.00     0.036 A 
HETATM    5  C   UNL     1      18.165  50.268  50.028  1.00  0.00     0.032 A 
HETATM    6  C   UNL     1      19.255  49.391  50.032  1.00  0.00     0.032 A 
ENDROOT
BRANCH   1   7
HETATM    7  N   UNL     1      21.548  48.855  49.618  1.00  0.00    -0.322 N 
HETATM    8  C   UNL     1      22.068  48.089  48.587  1.00  0.00     0.274 C 
HETATM    9  O   UNL     1      21.698  48.160  47.421  1.00  0.00    -0.266 OA
HETATM   10  H   UNL     1      22.012  48.782  50.513  1.00  0.00     0.169 HD
BRANCH   8  11
HETATM   11  C   UNL     1      23.135  47.203  49.008  1.00  0.00     0.126 A 
HETATM   12  N   UNL     1      24.479  47.537  49.117  1.00  0.00    -0.300 N 
HETATM   13  C   UNL     1      25.148  48.742  48.873  1.00  0.00     0.106 A 
HETATM   14  C   UNL     1      25.139  46.397  49.577  1.00  0.00     0.134 A 
HETATM   15  C   UNL     1      26.476  48.831  49.080  1.00  0.00    -0.046 A 
HETATM   16  C   UNL     1      27.274  50.075  48.837  1.00  0.00     0.049 C 
HETATM   17  C   UNL     1      27.183  47.649  49.566  1.00  0.00     0.012 A 
HETATM   18  C   UNL     1      26.541  46.491  49.802  1.00  0.00     0.051 A 
HETATM   19  N   UNL     1      24.318  45.383  49.730  1.00  0.00    -0.240 NA
HETATM   20  C   UNL     1      23.092  45.864  49.365  1.00  0.00     0.155 A 
ENDBRANCH   8  11
ENDBRANCH   1   7
BRANCH   4  21
HETATM   21  N   UNL     1      17.150  52.383  49.614  1.00  0.00    -0.309 N 
HETATM   22  C   UNL     1      16.157  52.663  48.727  1.00  0.00     0.320 C 
HETATM   23  N   UNL     1      16.346  52.318  47.429  1.00  0.00    -0.339 N 
HETATM   24  O   UNL     1      15.165  53.266  49.131  1.00  0.00    -0.247 OA
HETATM   25  H   UNL     1      17.303  52.223  47.133  1.00  0.00     0.164 HD
HETATM   26  H   UNL     1      16.972  52.864  50.488  1.00  0.00     0.170 HD
BRANCH  23  27
HETATM   27  C   UNL     1      15.396  52.679  46.403  1.00  0.00     0.150 C 
BRANCH  27  28
HETATM   28  C   UNL     1      15.263  51.592  45.379  1.00  0.00    -0.018 C 
HETATM   29  C   UNL     1      14.307  50.655  45.296  1.00  0.00     0.008 C 
ENDBRANCH  27  28
ENDBRANCH  23  27
ENDBRANCH   4  21
TORSDOF 5
ENDMDL
MODEL 9
REMARK VINA RESULT:      -7.7      1.905      2.692
REMARK  5 active torsions:
REMARK  status: ('A' for Active; 'I' for Inactive)
REMARK    1  A    between atoms: C_8  and  C_9 
REMARK       I    between atoms: C_9  and  N_10 
REMARK    2  A    between atoms: N_10  and  C_11 
REMARK    3  A    between atoms: C_14  and  N_15 
REMARK       I    between atoms: N_15  and  C_16 
REMARK       I    between atoms: C_16  and  N_17 
REMARK    4  A    between atoms: N_17  and  C_18 
REMARK    5  A    between atoms: C_18  and  C_19 
ROOT
HETATM    1  C   UNL     1      25.210  46.231  50.545  1.00  0.00     0.035 A 
HETATM    2  C   UNL     1      25.277  47.603  50.305  1.00  0.00     0.032 A 
HETATM    3  C   UNL     1      24.296  48.246  49.530  1.00  0.00     0.032 A 
HETATM    4  C   UNL     1      23.227  47.528  48.997  1.00  0.00     0.036 A 
HETATM    5  C   UNL     1      23.185  46.145  49.203  1.00  0.00     0.032 A 
HETATM    6  C   UNL     1      24.162  45.505  49.974  1.00  0.00     0.032 A 
ENDROOT
BRANCH   1   7
HETATM    7  N   UNL     1      26.140  45.503  51.317  1.00  0.00    -0.322 N 
HETATM    8  C   UNL     1      26.265  45.464  52.697  1.00  0.00     0.274 C 
HETATM    9  O   UNL     1      25.527  46.058  53.474  1.00  0.00    -0.266 OA
HETATM   10  H   UNL     1      26.741  44.885  50.792  1.00  0.00     0.169 HD
BRANCH   8  11
HETATM   11  C   UNL     1      27.346  44.613  53.154  1.00  0.00     0.126 A 
HETATM   12  N   UNL     1      27.609  43.321  52.717  1.00  0.00    -0.300 N 
HETATM   13  C   UNL     1      26.955  42.521  51.773  1.00  0.00     0.106 A 
HETATM   14  C   UNL     1      28.748  42.892  53.399  1.00  0.00     0.134 A 
HETATM   15  C   UNL     1      27.421  41.287  51.494  1.00  0.00    -0.046 A 
HETATM   16  C   UNL     1      26.782  40.361  50.508  1.00  0.00     0.049 C 
HETATM   17  C   UNL     1      28.616  40.824  52.194  1.00  0.00     0.012 A 
HETATM   18  C   UNL     1      29.246  41.592  53.101  1.00  0.00     0.051 A 
HETATM   19  N   UNL     1      29.189  43.801  54.239  1.00  0.00    -0.240 NA
HETATM   20  C   UNL     1      28.324  44.850  54.108  1.00  0.00     0.155 A 
ENDBRANCH   8  11
ENDBRANCH   1   7
BRANCH   4  21
HETATM   21  N   UNL     1      22.195  48.072  48.215  1.00  0.00    -0.309 N 
HETATM   22  C   UNL     1      21.259  49.037  48.424  1.00  0.00     0.320 C 
HETATM   23  N   UNL     1      21.060  49.469  49.695  1.00  0.00    -0.339 N 
HETATM   24  O   UNL     1      20.598  49.428  47.464  1.00  0.00    -0.247 OA
HETATM   25  H   UNL     1      21.326  48.829  50.424  1.00  0.00     0.164 HD
HETATM   26  H   UNL     1      22.101  47.705  47.275  1.00  0.00     0.170 HD
BRANCH  23  27
HETATM   27  C   UNL     1      20.011  50.405  50.021  1.00  0.00     0.150 C 
BRANCH  27  28
HETATM   28  C   UNL     1      18.750  49.692  50.409  1.00  0.00    -0.018 C 
HETATM   29  C   UNL     1      18.624  48.623  51.209  1.00  0.00     0.008 C 
ENDBRANCH  27  28
ENDBRANCH  23  27
ENDBRANCH   4  21
TORSDOF 5
ENDMDL
MODEL 10
REMARK VINA RESULT:      -7.7      6.246      8.802
REMARK  5 active torsions:
REMARK  status: ('A' for Active; 'I' for Inactive)
REMARK    1  A    between atoms: C_8  and  C_9 
REMARK       I    between atoms: C_9  and  N_10 
REMARK    2  A    between atoms: N_10  and  C_11 
REMARK    3  A    between atoms: C_14  and  N_15 
REMARK       I    between atoms: N_15  and  C_16 
REMARK       I    between atoms: C_16  and  N_17 
REMARK    4  A    between atoms: N_17  and  C_18 
REMARK    5  A    between atoms: C_18  and  C_19 
ROOT
HETATM    1  C   UNL     1      27.990  40.260  50.597  1.00  0.00     0.035 A 
HETATM    2  C   UNL     1      29.059  39.367  50.524  1.00  0.00     0.032 A 
HETATM    3  C   UNL     1      28.994  38.235  49.693  1.00  0.00     0.032 A 
HETATM    4  C   UNL     1      27.865  37.989  48.913  1.00  0.00     0.036 A 
HETATM    5  C   UNL     1      26.778  38.863  49.020  1.00  0.00     0.032 A 
HETATM    6  C   UNL     1      26.842  39.990  49.847  1.00  0.00     0.032 A 
ENDROOT
BRANCH   1   7
HETATM    7  N   UNL     1      27.969  41.426  51.392  1.00  0.00    -0.322 N 
HETATM    8  C   UNL     1      28.210  41.543  52.751  1.00  0.00     0.274 C 
HETATM    9  O   UNL     1      28.525  40.609  53.479  1.00  0.00    -0.266 OA
HETATM   10  H   UNL     1      27.824  42.287  50.884  1.00  0.00     0.169 HD
BRANCH   8  11
HETATM   11  C   UNL     1      28.090  42.901  53.244  1.00  0.00     0.126 A 
HETATM   12  N   UNL     1      28.875  43.485  54.230  1.00  0.00    -0.300 N 
HETATM   13  C   UNL     1      29.937  42.969  54.982  1.00  0.00     0.106 A 
HETATM   14  C   UNL     1      28.433  44.800  54.368  1.00  0.00     0.134 A 
HETATM   15  C   UNL     1      30.572  43.749  55.878  1.00  0.00    -0.046 A 
HETATM   16  C   UNL     1      31.711  43.281  56.730  1.00  0.00     0.049 C 
HETATM   17  C   UNL     1      30.127  45.132  56.031  1.00  0.00     0.012 A 
HETATM   18  C   UNL     1      29.106  45.629  55.309  1.00  0.00     0.051 A 
HETATM   19  N   UNL     1      27.423  45.065  53.570  1.00  0.00    -0.240 NA
HETATM   20  C   UNL     1      27.196  43.901  52.893  1.00  0.00     0.155 A 
ENDBRANCH   8  11
ENDBRANCH   1   7
BRANCH   4  21
HETATM   21  N   UNL     1      27.701  36.894  48.049  1.00  0.00    -0.309 N 
HETATM   22  C   UNL     1      27.887  36.706  46.715  1.00  0.00     0.320 C 
HETATM   23  N   UNL     1      28.055  37.802  45.933  1.00  0.00    -0.339 N 
HETATM   24  O   UNL     1      27.834  35.560  46.273  1.00  0.00    -0.247 OA
HETATM   25  H   UNL     1      27.679  38.663  46.295  1.00  0.00     0.164 HD
HETATM   26  H   UNL     1      27.392  36.027  48.475  1.00  0.00     0.170 HD
BRANCH  23  27
HETATM   27  C   UNL     1      28.144  37.701  44.495  1.00  0.00     0.150 C 
BRANCH  27  28
HETATM   28  C   UNL     1      29.573  37.664  44.042  1.00  0.00    -0.018 C 
HETATM   29  C   UNL     1      30.162  38.440  43.120  1.00  0.00     0.008 C 
ENDBRANCH  27  28
ENDBRANCH  23  27
ENDBRANCH   4  21
TORSDOF 5
ENDMDL
