MODEL 1
REMARK VINA RESULT:      -8.3      0.000      0.000
REMARK  7 active torsions:
REMARK  status: ('A' for Active; 'I' for Inactive)
REMARK    1  A    between atoms: C_7  and  C_8 
REMARK    2  A    between atoms: C_8  and  C_9 
REMARK    3  A    between atoms: C_9  and  C_10 
REMARK    4  A    between atoms: C_10  and  O_11 
REMARK    5  A    between atoms: C_13  and  C_14 
REMARK    6  A    between atoms: C_22  and  C_23 
REMARK       I    between atoms: C_23  and  N_24 
REMARK    7  A    between atoms: N_24  and  C_25 
ROOT
HETATM    1  C   UNL     1      29.057  40.569  51.666  1.00  0.00     0.070 C 
HETATM    2  C   UNL     1      27.780  41.289  51.308  1.00  0.00     0.037 C 
HETATM    3  N   UNL     1      27.231  40.966  50.069  1.00  0.00    -0.192 N 
HETATM    4  C   UNL     1      26.004  41.363  49.684  1.00  0.00     0.726 A 
HETATM    5  N   UNL     1      25.339  42.288  50.437  1.00  0.00    -0.083 N 
HETATM    6  N   UNL     1      24.074  42.462  50.003  1.00  0.00    -0.140 NA
HETATM    7  C   UNL     1      24.059  41.639  48.942  1.00  0.00     0.166 A 
HETATM    8  N   UNL     1      25.235  40.964  48.706  1.00  0.00    -0.046 NA
HETATM    9  C   UNL     1      25.856  42.857  51.688  1.00  0.00     0.204 C 
HETATM   10  C   UNL     1      27.143  42.168  52.126  1.00  0.00     0.062 C 
HETATM   11  H   UNL     1      27.681  40.222  49.540  1.00  0.00     0.184 HD
ENDROOT
BRANCH  10  12
HETATM   12  C   UNL     1      27.717  42.512  53.460  1.00  0.00     0.256 C 
HETATM   13  N   UNL     1      28.715  43.463  53.420  1.00  0.00    -0.323 N 
HETATM   14  H   UNL     1      29.058  43.781  52.524  1.00  0.00     0.169 HD
HETATM   15  O   UNL     1      27.296  41.947  54.464  1.00  0.00    -0.267 OA
BRANCH  13  16
HETATM   16  C   UNL     1      29.329  44.097  54.524  1.00  0.00     0.035 A 
HETATM   17  C   UNL     1      30.428  43.575  55.211  1.00  0.00     0.032 A 
HETATM   18  C   UNL     1      30.940  44.237  56.331  1.00  0.00     0.044 A 
HETATM   19  C   UNL     1      30.360  45.426  56.755  1.00  0.00     0.116 A 
HETATM   20  F   UNL     1      30.850  46.055  57.829  1.00  0.00    -0.206 F 
HETATM   21  C   UNL     1      29.274  45.966  56.080  1.00  0.00     0.044 A 
HETATM   22  C   UNL     1      28.754  45.298  54.969  1.00  0.00     0.032 A 
ENDBRANCH  13  16
ENDBRANCH  10  12
BRANCH   9  23
HETATM   23  C   UNL     1      26.005  44.371  51.541  1.00  0.00    -0.005 A 
HETATM   24  C   UNL     1      25.709  45.268  52.589  1.00  0.00     0.064 A 
HETATM   25 CL   UNL     1      25.203  44.670  54.140  1.00  0.00    -0.082 Cl
HETATM   26  C   UNL     1      25.837  46.655  52.385  1.00  0.00     0.056 A 
HETATM   27 CL   UNL     1      25.482  47.815  53.620  1.00  0.00    -0.083 Cl
HETATM   28  C   UNL     1      26.265  47.152  51.152  1.00  0.00     0.026 A 
HETATM   29  C   UNL     1      26.571  46.277  50.115  1.00  0.00     0.002 A 
HETATM   30  C   UNL     1      26.442  44.902  50.307  1.00  0.00     0.011 A 
ENDBRANCH   9  23
BRANCH   7  31
HETATM   31  C   UNL     1      22.829  41.386  48.152  1.00  0.00     0.085 C 
BRANCH  31  32
HETATM   32  C   UNL     1      23.128  40.839  46.755  1.00  0.00     0.034 C 
BRANCH  32  33
HETATM   33  C   UNL     1      22.827  39.351  46.616  1.00  0.00     0.164 C 
BRANCH  33  34
HETATM   34  O   UNL     1      23.932  38.591  47.095  1.00  0.00    -0.401 OA
HETATM   35  H   UNL     1      23.720  37.651  46.964  1.00  0.00     0.209 HD
ENDBRANCH  33  34
ENDBRANCH  32  33
ENDBRANCH  31  32
ENDBRANCH   7  31
TORSDOF 7
ENDMDL
MODEL 2
REMARK VINA RESULT:      -7.7      6.233      9.391
REMARK  7 active torsions:
REMARK  status: ('A' for Active; 'I' for Inactive)
REMARK    1  A    between atoms: C_7  and  C_8 
REMARK    2  A    between atoms: C_8  and  C_9 
REMARK    3  A    between atoms: C_9  and  C_10 
REMARK    4  A    between atoms: C_10  and  O_11 
REMARK    5  A    between atoms: C_13  and  C_14 
REMARK    6  A    between atoms: C_22  and  C_23 
REMARK       I    between atoms: C_23  and  N_24 
REMARK    7  A    between atoms: N_24  and  C_25 
ROOT
HETATM    1  C   UNL     1      24.926  49.668  48.662  1.00  0.00     0.070 C 
HETATM    2  C   UNL     1      24.585  48.249  49.048  1.00  0.00     0.037 C 
HETATM    3  N   UNL     1      25.649  47.473  49.501  1.00  0.00    -0.192 N 
HETATM    4  C   UNL     1      25.486  46.263  50.067  1.00  0.00     0.726 A 
HETATM    5  N   UNL     1      24.259  45.667  50.017  1.00  0.00    -0.083 N 
HETATM    6  N   UNL     1      24.227  44.538  50.754  1.00  0.00    -0.140 NA
HETATM    7  C   UNL     1      25.497  44.486  51.185  1.00  0.00     0.166 A 
HETATM    8  N   UNL     1      26.303  45.520  50.765  1.00  0.00    -0.046 NA
HETATM    9  C   UNL     1      23.067  46.284  49.420  1.00  0.00     0.204 C 
HETATM   10  C   UNL     1      23.329  47.730  49.017  1.00  0.00     0.062 C 
HETATM   11  H   UNL     1      26.549  47.936  49.613  1.00  0.00     0.184 HD
ENDROOT
BRANCH  10  12
HETATM   12  C   UNL     1      22.180  48.557  48.543  1.00  0.00     0.256 C 
HETATM   13  N   UNL     1      21.506  49.220  49.549  1.00  0.00    -0.323 N 
HETATM   14  H   UNL     1      21.751  49.034  50.511  1.00  0.00     0.169 HD
HETATM   15  O   UNL     1      21.908  48.588  47.348  1.00  0.00    -0.267 OA
BRANCH  13  16
HETATM   16  C   UNL     1      20.490  50.189  49.394  1.00  0.00     0.035 A 
HETATM   17  C   UNL     1      20.619  51.334  48.603  1.00  0.00     0.032 A 
HETATM   18  C   UNL     1      19.586  52.275  48.549  1.00  0.00     0.044 A 
HETATM   19  C   UNL     1      18.421  52.063  49.275  1.00  0.00     0.116 A 
HETATM   20  F   UNL     1      17.435  52.967  49.223  1.00  0.00    -0.206 F 
HETATM   21  C   UNL     1      18.270  50.927  50.058  1.00  0.00     0.044 A 
HETATM   22  C   UNL     1      19.307  49.994  50.123  1.00  0.00     0.032 A 
ENDBRANCH  13  16
ENDBRANCH  10  12
BRANCH   9  23
HETATM   23  C   UNL     1      22.565  45.420  48.264  1.00  0.00    -0.005 A 
HETATM   24  C   UNL     1      21.192  45.211  48.014  1.00  0.00     0.064 A 
HETATM   25 CL   UNL     1      19.991  45.989  49.000  1.00  0.00    -0.082 Cl
HETATM   26  C   UNL     1      20.789  44.380  46.952  1.00  0.00     0.056 A 
HETATM   27 CL   UNL     1      19.124  44.070  46.591  1.00  0.00    -0.083 Cl
HETATM   28  C   UNL     1      21.740  43.764  46.135  1.00  0.00     0.026 A 
HETATM   29  C   UNL     1      23.097  43.972  46.365  1.00  0.00     0.002 A 
HETATM   30  C   UNL     1      23.505  44.789  47.418  1.00  0.00     0.011 A 
ENDBRANCH   9  23
BRANCH   7  31
HETATM   31  C   UNL     1      25.968  43.455  52.142  1.00  0.00     0.085 C 
BRANCH  31  32
HETATM   32  C   UNL     1      26.642  44.058  53.375  1.00  0.00     0.034 C 
BRANCH  32  33
HETATM   33  C   UNL     1      25.673  44.809  54.282  1.00  0.00     0.164 C 
BRANCH  33  34
HETATM   34  O   UNL     1      24.562  43.974  54.593  1.00  0.00    -0.401 OA
HETATM   35  H   UNL     1      23.990  43.943  53.808  1.00  0.00     0.209 HD
ENDBRANCH  33  34
ENDBRANCH  32  33
ENDBRANCH  31  32
ENDBRANCH   7  31
TORSDOF 7
ENDMDL
MODEL 3
REMARK VINA RESULT:      -7.4     16.999     18.487
REMARK  7 active torsions:
REMARK  status: ('A' for Active; 'I' for Inactive)
REMARK    1  A    between atoms: C_7  and  C_8 
REMARK    2  A    between atoms: C_8  and  C_9 
REMARK    3  A    between atoms: C_9  and  C_10 
REMARK    4  A    between atoms: C_10  and  O_11 
REMARK    5  A    between atoms: C_13  and  C_14 
REMARK    6  A    between atoms: C_22  and  C_23 
REMARK       I    between atoms: C_23  and  N_24 
REMARK    7  A    between atoms: N_24  and  C_25 
ROOT
HETATM    1  C   UNL     1      38.424  41.898  63.361  1.00  0.00     0.070 C 
HETATM    2  C   UNL     1      37.576  42.577  64.409  1.00  0.00     0.037 C 
HETATM    3  N   UNL     1      36.217  42.274  64.376  1.00  0.00    -0.192 N 
HETATM    4  C   UNL     1      35.361  42.633  65.351  1.00  0.00     0.726 A 
HETATM    5  N   UNL     1      35.780  43.504  66.314  1.00  0.00    -0.083 N 
HETATM    6  N   UNL     1      34.861  43.641  67.291  1.00  0.00    -0.140 NA
HETATM    7  C   UNL     1      33.880  42.855  66.822  1.00  0.00     0.166 A 
HETATM    8  N   UNL     1      34.146  42.236  65.622  1.00  0.00    -0.046 NA
HETATM    9  C   UNL     1      37.141  44.052  66.393  1.00  0.00     0.204 C 
HETATM   10  C   UNL     1      38.066  43.402  65.372  1.00  0.00     0.062 C 
HETATM   11  H   UNL     1      35.913  41.567  63.709  1.00  0.00     0.184 HD
ENDROOT
BRANCH  10  12
HETATM   12  C   UNL     1      39.522  43.724  65.423  1.00  0.00     0.256 C 
HETATM   13  N   UNL     1      39.882  44.839  64.694  1.00  0.00    -0.323 N 
HETATM   14  H   UNL     1      39.192  45.290  64.111  1.00  0.00     0.169 HD
HETATM   15  O   UNL     1      40.279  43.007  66.068  1.00  0.00    -0.267 OA
BRANCH  13  16
HETATM   16  C   UNL     1      41.145  45.473  64.680  1.00  0.00     0.035 A 
HETATM   17  C   UNL     1      42.217  45.058  63.884  1.00  0.00     0.032 A 
HETATM   18  C   UNL     1      43.453  45.705  63.973  1.00  0.00     0.044 A 
HETATM   19  C   UNL     1      43.613  46.772  64.849  1.00  0.00     0.116 A 
HETATM   20  F   UNL     1      44.798  47.387  64.934  1.00  0.00    -0.206 F 
HETATM   21  C   UNL     1      42.557  47.205  65.640  1.00  0.00     0.044 A 
HETATM   22  C   UNL     1      41.327  46.550  65.561  1.00  0.00     0.032 A 
ENDBRANCH  13  16
ENDBRANCH  10  12
BRANCH   9  23
HETATM   23  C   UNL     1      37.089  45.575  66.274  1.00  0.00    -0.005 A 
HETATM   24  C   UNL     1      37.772  46.430  67.166  1.00  0.00     0.064 A 
HETATM   25 CL   UNL     1      38.763  45.768  68.431  1.00  0.00    -0.082 Cl
HETATM   26  C   UNL     1      37.663  47.825  67.024  1.00  0.00     0.056 A 
HETATM   27 CL   UNL     1      38.463  48.935  68.085  1.00  0.00    -0.083 Cl
HETATM   28  C   UNL     1      36.889  48.375  65.999  1.00  0.00     0.026 A 
HETATM   29  C   UNL     1      36.221  47.542  65.107  1.00  0.00     0.002 A 
HETATM   30  C   UNL     1      36.320  46.158  65.243  1.00  0.00     0.011 A 
ENDBRANCH   9  23
BRANCH   7  31
HETATM   31  C   UNL     1      32.646  42.578  67.598  1.00  0.00     0.085 C 
BRANCH  31  32
HETATM   32  C   UNL     1      32.696  43.156  69.013  1.00  0.00     0.034 C 
BRANCH  32  33
HETATM   33  C   UNL     1      31.316  43.460  69.586  1.00  0.00     0.164 C 
BRANCH  33  34
HETATM   34  O   UNL     1      30.927  44.781  69.227  1.00  0.00    -0.401 OA
HETATM   35  H   UNL     1      30.387  45.136  69.953  1.00  0.00     0.209 HD
ENDBRANCH  33  34
ENDBRANCH  32  33
ENDBRANCH  31  32
ENDBRANCH   7  31
TORSDOF 7
ENDMDL
MODEL 4
REMARK VINA RESULT:      -7.1      8.127     10.958
REMARK  7 active torsions:
REMARK  status: ('A' for Active; 'I' for Inactive)
REMARK    1  A    between atoms: C_7  and  C_8 
REMARK    2  A    between atoms: C_8  and  C_9 
REMARK    3  A    between atoms: C_9  and  C_10 
REMARK    4  A    between atoms: C_10  and  O_11 
REMARK    5  A    between atoms: C_13  and  C_14 
REMARK    6  A    between atoms: C_22  and  C_23 
REMARK       I    between atoms: C_23  and  N_24 
REMARK    7  A    between atoms: N_24  and  C_25 
ROOT
HETATM    1  C   UNL     1      22.586  50.063  48.402  1.00  0.00     0.070 C 
HETATM    2  C   UNL     1      22.092  48.639  48.327  1.00  0.00     0.037 C 
HETATM    3  N   UNL     1      23.049  47.653  48.555  1.00  0.00    -0.192 N 
HETATM    4  C   UNL     1      22.739  46.354  48.720  1.00  0.00     0.726 A 
HETATM    5  N   UNL     1      21.468  45.935  48.454  1.00  0.00    -0.083 N 
HETATM    6  N   UNL     1      21.285  44.648  48.812  1.00  0.00    -0.140 NA
HETATM    7  C   UNL     1      22.516  44.333  49.245  1.00  0.00     0.166 A 
HETATM    8  N   UNL     1      23.439  45.352  49.183  1.00  0.00    -0.046 NA
HETATM    9  C   UNL     1      20.377  46.827  48.038  1.00  0.00     0.204 C 
HETATM   10  C   UNL     1      20.797  48.291  48.102  1.00  0.00     0.062 C 
HETATM   11  H   UNL     1      23.979  47.962  48.829  1.00  0.00     0.184 HD
ENDROOT
BRANCH  10  12
HETATM   12  C   UNL     1      19.761  49.340  47.868  1.00  0.00     0.256 C 
HETATM   13  N   UNL     1      18.891  49.522  48.924  1.00  0.00    -0.323 N 
HETATM   14  H   UNL     1      18.936  48.895  49.714  1.00  0.00     0.169 HD
HETATM   15  O   UNL     1      19.737  49.940  46.799  1.00  0.00    -0.267 OA
BRANCH  13  16
HETATM   16  C   UNL     1      17.919  50.539  49.056  1.00  0.00     0.035 A 
HETATM   17  C   UNL     1      18.144  51.752  49.713  1.00  0.00     0.032 A 
HETATM   18  C   UNL     1      17.110  52.683  49.851  1.00  0.00     0.044 A 
HETATM   19  C   UNL     1      15.857  52.405  49.321  1.00  0.00     0.116 A 
HETATM   20  F   UNL     1      14.868  53.297  49.458  1.00  0.00    -0.206 F 
HETATM   21  C   UNL     1      15.616  51.211  48.656  1.00  0.00     0.044 A 
HETATM   22  C   UNL     1      16.645  50.276  48.530  1.00  0.00     0.032 A 
ENDBRANCH  13  16
ENDBRANCH  10  12
BRANCH   9  23
HETATM   23  C   UNL     1      19.868  46.408  46.660  1.00  0.00    -0.005 A 
HETATM   24  C   UNL     1      18.502  46.173  46.394  1.00  0.00     0.064 A 
HETATM   25 CL   UNL     1      17.313  46.410  47.639  1.00  0.00    -0.082 Cl
HETATM   26  C   UNL     1      18.096  45.760  45.112  1.00  0.00     0.056 A 
HETATM   27 CL   UNL     1      16.440  45.445  44.715  1.00  0.00    -0.083 Cl
HETATM   28  C   UNL     1      19.036  45.587  44.093  1.00  0.00     0.026 A 
HETATM   29  C   UNL     1      20.384  45.826  44.340  1.00  0.00     0.002 A 
HETATM   30  C   UNL     1      20.796  46.231  45.608  1.00  0.00     0.011 A 
ENDBRANCH   9  23
BRANCH   7  31
HETATM   31  C   UNL     1      22.830  43.018  49.856  1.00  0.00     0.085 C 
BRANCH  31  32
HETATM   32  C   UNL     1      24.245  42.538  49.529  1.00  0.00     0.034 C 
BRANCH  32  33
HETATM   33  C   UNL     1      25.177  42.551  50.736  1.00  0.00     0.164 C 
BRANCH  33  34
HETATM   34  O   UNL     1      24.455  42.952  51.896  1.00  0.00    -0.401 OA
HETATM   35  H   UNL     1      23.564  43.217  51.610  1.00  0.00     0.209 HD
ENDBRANCH  33  34
ENDBRANCH  32  33
ENDBRANCH  31  32
ENDBRANCH   7  31
TORSDOF 7
ENDMDL
MODEL 5
REMARK VINA RESULT:      -7.1     17.145     20.390
REMARK  7 active torsions:
REMARK  status: ('A' for Active; 'I' for Inactive)
REMARK    1  A    between atoms: C_7  and  C_8 
REMARK    2  A    between atoms: C_8  and  C_9 
REMARK    3  A    between atoms: C_9  and  C_10 
REMARK    4  A    between atoms: C_10  and  O_11 
REMARK    5  A    between atoms: C_13  and  C_14 
REMARK    6  A    between atoms: C_22  and  C_23 
REMARK       I    between atoms: C_23  and  N_24 
REMARK    7  A    between atoms: N_24  and  C_25 
ROOT
HETATM    1  C   UNL     1      37.108  44.586  63.393  1.00  0.00     0.070 C 
HETATM    2  C   UNL     1      38.022  45.424  64.253  1.00  0.00     0.037 C 
HETATM    3  N   UNL     1      37.899  46.803  64.103  1.00  0.00    -0.192 N 
HETATM    4  C   UNL     1      38.491  47.687  64.927  1.00  0.00     0.726 A 
HETATM    5  N   UNL     1      39.417  47.240  65.825  1.00  0.00    -0.083 N 
HETATM    6  N   UNL     1      39.800  48.219  66.669  1.00  0.00    -0.140 NA
HETATM    7  C   UNL     1      39.094  49.254  66.187  1.00  0.00     0.166 A 
HETATM    8  N   UNL     1      38.296  48.967  65.103  1.00  0.00    -0.046 NA
HETATM    9  C   UNL     1      39.787  45.829  65.993  1.00  0.00     0.204 C 
HETATM   10  C   UNL     1      38.894  44.914  65.164  1.00  0.00     0.062 C 
HETATM   11  H   UNL     1      37.157  47.140  63.492  1.00  0.00     0.184 HD
ENDROOT
BRANCH  10  12
HETATM   12  C   UNL     1      39.025  43.438  65.341  1.00  0.00     0.256 C 
HETATM   13  N   UNL     1      39.720  42.805  64.330  1.00  0.00    -0.323 N 
HETATM   14  H   UNL     1      39.995  43.334  63.515  1.00  0.00     0.169 HD
HETATM   15  O   UNL     1      38.523  42.898  66.321  1.00  0.00    -0.267 OA
BRANCH  13  16
HETATM   16  C   UNL     1      40.136  41.455  64.303  1.00  0.00     0.035 A 
HETATM   17  C   UNL     1      41.167  40.942  65.095  1.00  0.00     0.032 A 
HETATM   18  C   UNL     1      41.558  39.605  64.966  1.00  0.00     0.044 A 
HETATM   19  C   UNL     1      40.910  38.782  64.053  1.00  0.00     0.116 A 
HETATM   20  F   UNL     1      41.288  37.504  63.930  1.00  0.00    -0.206 F 
HETATM   21  C   UNL     1      39.877  39.271  63.265  1.00  0.00     0.044 A 
HETATM   22  C   UNL     1      39.496  40.609  63.385  1.00  0.00     0.032 A 
ENDBRANCH  13  16
ENDBRANCH  10  12
BRANCH   9  23
HETATM   23  C   UNL     1      41.275  45.649  65.693  1.00  0.00    -0.005 A 
HETATM   24  C   UNL     1      42.185  45.142  66.646  1.00  0.00     0.064 A 
HETATM   25 CL   UNL     1      41.626  44.643  68.214  1.00  0.00    -0.082 Cl
HETATM   26  C   UNL     1      43.549  45.026  66.323  1.00  0.00     0.056 A 
HETATM   27 CL   UNL     1      44.724  44.423  67.443  1.00  0.00    -0.083 Cl
HETATM   28  C   UNL     1      44.012  45.401  65.059  1.00  0.00     0.026 A 
HETATM   29  C   UNL     1      43.122  45.891  64.108  1.00  0.00     0.002 A 
HETATM   30  C   UNL     1      41.770  46.014  64.421  1.00  0.00     0.011 A 
ENDBRANCH   9  23
BRANCH   7  31
HETATM   31  C   UNL     1      39.085  50.584  66.845  1.00  0.00     0.085 C 
BRANCH  31  32
HETATM   32  C   UNL     1      37.789  51.357  66.596  1.00  0.00     0.034 C 
BRANCH  32  33
HETATM   33  C   UNL     1      37.993  52.866  66.531  1.00  0.00     0.164 C 
BRANCH  33  34
HETATM   34  O   UNL     1      39.385  53.162  66.494  1.00  0.00    -0.401 OA
HETATM   35  H   UNL     1      39.505  53.940  65.924  1.00  0.00     0.209 HD
ENDBRANCH  33  34
ENDBRANCH  32  33
ENDBRANCH  31  32
ENDBRANCH   7  31
TORSDOF 7
ENDMDL
MODEL 6
REMARK VINA RESULT:      -7.0     10.958     14.483
REMARK  7 active torsions:
REMARK  status: ('A' for Active; 'I' for Inactive)
REMARK    1  A    between atoms: C_7  and  C_8 
REMARK    2  A    between atoms: C_8  and  C_9 
REMARK    3  A    between atoms: C_9  and  C_10 
REMARK    4  A    between atoms: C_10  and  O_11 
REMARK    5  A    between atoms: C_13  and  C_14 
REMARK    6  A    between atoms: C_22  and  C_23 
REMARK       I    between atoms: C_23  and  N_24 
REMARK    7  A    between atoms: N_24  and  C_25 
ROOT
HETATM    1  C   UNL     1      17.161  46.154  48.408  1.00  0.00     0.070 C 
HETATM    2  C   UNL     1      17.724  47.549  48.275  1.00  0.00     0.037 C 
HETATM    3  N   UNL     1      18.880  47.807  49.007  1.00  0.00    -0.192 N 
HETATM    4  C   UNL     1      19.615  48.924  48.849  1.00  0.00     0.726 A 
HETATM    5  N   UNL     1      19.115  49.946  48.096  1.00  0.00    -0.083 N 
HETATM    6  N   UNL     1      20.030  50.920  47.914  1.00  0.00    -0.140 NA
HETATM    7  C   UNL     1      21.054  50.437  48.635  1.00  0.00     0.166 A 
HETATM    8  N   UNL     1      20.826  49.222  49.239  1.00  0.00    -0.046 NA
HETATM    9  C   UNL     1      17.826  49.898  47.392  1.00  0.00     0.204 C 
HETATM   10  C   UNL     1      17.200  48.510  47.469  1.00  0.00     0.062 C 
HETATM   11  H   UNL     1      19.298  47.026  49.508  1.00  0.00     0.184 HD
ENDROOT
BRANCH  10  12
HETATM   12  C   UNL     1      15.968  48.240  46.671  1.00  0.00     0.256 C 
HETATM   13  N   UNL     1      16.198  48.031  45.326  1.00  0.00    -0.323 N 
HETATM   14  H   UNL     1      17.128  48.171  44.958  1.00  0.00     0.169 HD
HETATM   15  O   UNL     1      14.876  48.231  47.227  1.00  0.00    -0.267 OA
BRANCH  13  16
HETATM   16  C   UNL     1      15.260  47.602  44.361  1.00  0.00     0.035 A 
HETATM   17  C   UNL     1      14.425  48.467  43.647  1.00  0.00     0.032 A 
HETATM   18  C   UNL     1      13.481  47.957  42.751  1.00  0.00     0.044 A 
HETATM   19  C   UNL     1      13.382  46.585  42.560  1.00  0.00     0.116 A 
HETATM   20  F   UNL     1      12.475  46.099  41.704  1.00  0.00    -0.206 F 
HETATM   21  C   UNL     1      14.209  45.711  43.252  1.00  0.00     0.044 A 
HETATM   22  C   UNL     1      15.142  46.219  44.157  1.00  0.00     0.032 A 
ENDBRANCH  13  16
ENDBRANCH  10  12
BRANCH   9  23
HETATM   23  C   UNL     1      16.910  51.001  47.920  1.00  0.00    -0.005 A 
HETATM   24  C   UNL     1      16.136  51.817  47.068  1.00  0.00     0.064 A 
HETATM   25 CL   UNL     1      16.154  51.557  45.349  1.00  0.00    -0.082 Cl
HETATM   26  C   UNL     1      15.333  52.837  47.610  1.00  0.00     0.056 A 
HETATM   27 CL   UNL     1      14.364  53.882  46.626  1.00  0.00    -0.083 Cl
HETATM   28  C   UNL     1      15.288  53.044  48.990  1.00  0.00     0.026 A 
HETATM   29  C   UNL     1      16.038  52.239  49.841  1.00  0.00     0.002 A 
HETATM   30  C   UNL     1      16.840  51.229  49.313  1.00  0.00     0.011 A 
ENDBRANCH   9  23
BRANCH   7  31
HETATM   31  C   UNL     1      22.378  51.106  48.680  1.00  0.00     0.085 C 
BRANCH  31  32
HETATM   32  C   UNL     1      23.372  50.515  47.680  1.00  0.00     0.034 C 
BRANCH  32  33
HETATM   33  C   UNL     1      24.693  50.102  48.320  1.00  0.00     0.164 C 
BRANCH  33  34
HETATM   34  O   UNL     1      25.737  50.172  47.354  1.00  0.00    -0.401 OA
HETATM   35  H   UNL     1      26.012  49.261  47.154  1.00  0.00     0.209 HD
ENDBRANCH  33  34
ENDBRANCH  32  33
ENDBRANCH  31  32
ENDBRANCH   7  31
TORSDOF 7
ENDMDL
MODEL 7
REMARK VINA RESULT:      -7.0     17.955     19.825
REMARK  7 active torsions:
REMARK  status: ('A' for Active; 'I' for Inactive)
REMARK    1  A    between atoms: C_7  and  C_8 
REMARK    2  A    between atoms: C_8  and  C_9 
REMARK    3  A    between atoms: C_9  and  C_10 
REMARK    4  A    between atoms: C_10  and  O_11 
REMARK    5  A    between atoms: C_13  and  C_14 
REMARK    6  A    between atoms: C_22  and  C_23 
REMARK       I    between atoms: C_23  and  N_24 
REMARK    7  A    between atoms: N_24  and  C_25 
ROOT
HETATM    1  C   UNL     1      42.280  46.337  64.712  1.00  0.00     0.070 C 
HETATM    2  C   UNL     1      40.932  46.907  65.081  1.00  0.00     0.037 C 
HETATM    3  N   UNL     1      40.943  48.193  65.614  1.00  0.00    -0.192 N 
HETATM    4  C   UNL     1      39.826  48.917  65.808  1.00  0.00     0.726 A 
HETATM    5  N   UNL     1      38.610  48.310  65.677  1.00  0.00    -0.083 N 
HETATM    6  N   UNL     1      37.601  49.201  65.754  1.00  0.00    -0.140 NA
HETATM    7  C   UNL     1      38.285  50.332  65.986  1.00  0.00     0.166 A 
HETATM    8  N   UNL     1      39.653  50.190  66.045  1.00  0.00    -0.046 NA
HETATM    9  C   UNL     1      38.429  46.906  65.284  1.00  0.00     0.204 C 
HETATM   10  C   UNL     1      39.751  46.263  64.881  1.00  0.00     0.062 C 
HETATM   11  H   UNL     1      41.838  48.677  65.642  1.00  0.00     0.184 HD
ENDROOT
BRANCH  10  12
HETATM   12  C   UNL     1      39.726  44.889  64.299  1.00  0.00     0.256 C 
HETATM   13  N   UNL     1      39.863  43.878  65.228  1.00  0.00    -0.323 N 
HETATM   14  H   UNL     1      40.067  44.115  66.189  1.00  0.00     0.169 HD
HETATM   15  O   UNL     1      39.605  44.746  63.087  1.00  0.00    -0.267 OA
BRANCH  13  16
HETATM   16  C   UNL     1      39.720  42.491  65.000  1.00  0.00     0.035 A 
HETATM   17  C   UNL     1      38.486  41.844  64.878  1.00  0.00     0.032 A 
HETATM   18  C   UNL     1      38.430  40.457  64.710  1.00  0.00     0.044 A 
HETATM   19  C   UNL     1      39.607  39.721  64.653  1.00  0.00     0.116 A 
HETATM   20  F   UNL     1      39.550  38.393  64.496  1.00  0.00    -0.206 F 
HETATM   21  C   UNL     1      40.841  40.346  64.763  1.00  0.00     0.044 A 
HETATM   22  C   UNL     1      40.897  41.729  64.943  1.00  0.00     0.032 A 
ENDBRANCH  13  16
ENDBRANCH  10  12
BRANCH   9  23
HETATM   23  C   UNL     1      37.708  46.150  66.399  1.00  0.00    -0.005 A 
HETATM   24  C   UNL     1      36.597  45.314  66.154  1.00  0.00     0.064 A 
HETATM   25 CL   UNL     1      36.027  45.066  64.531  1.00  0.00    -0.082 Cl
HETATM   26  C   UNL     1      35.955  44.666  67.225  1.00  0.00     0.056 A 
HETATM   27 CL   UNL     1      34.582  43.634  67.002  1.00  0.00    -0.083 Cl
HETATM   28  C   UNL     1      36.415  44.835  68.533  1.00  0.00     0.026 A 
HETATM   29  C   UNL     1      37.515  45.648  68.785  1.00  0.00     0.002 A 
HETATM   30  C   UNL     1      38.155  46.298  67.731  1.00  0.00     0.011 A 
ENDBRANCH   9  23
BRANCH   7  31
HETATM   31  C   UNL     1      37.624  51.659  66.055  1.00  0.00     0.085 C 
BRANCH  31  32
HETATM   32  C   UNL     1      38.120  52.505  67.229  1.00  0.00     0.034 C 
BRANCH  32  33
HETATM   33  C   UNL     1      38.399  53.955  66.849  1.00  0.00     0.164 C 
BRANCH  33  34
HETATM   34  O   UNL     1      37.771  54.255  65.607  1.00  0.00    -0.401 OA
HETATM   35  H   UNL     1      36.979  53.694  65.536  1.00  0.00     0.209 HD
ENDBRANCH  33  34
ENDBRANCH  32  33
ENDBRANCH  31  32
ENDBRANCH   7  31
TORSDOF 7
ENDMDL
MODEL 8
REMARK VINA RESULT:      -6.7      8.918     11.219
REMARK  7 active torsions:
REMARK  status: ('A' for Active; 'I' for Inactive)
REMARK    1  A    between atoms: C_7  and  C_8 
REMARK    2  A    between atoms: C_8  and  C_9 
REMARK    3  A    between atoms: C_9  and  C_10 
REMARK    4  A    between atoms: C_10  and  O_11 
REMARK    5  A    between atoms: C_13  and  C_14 
REMARK    6  A    between atoms: C_22  and  C_23 
REMARK       I    between atoms: C_23  and  N_24 
REMARK    7  A    between atoms: N_24  and  C_25 
ROOT
HETATM    1  C   UNL     1      21.997  50.899  49.916  1.00  0.00     0.070 C 
HETATM    2  C   UNL     1      20.902  50.585  48.924  1.00  0.00     0.037 C 
HETATM    3  N   UNL     1      19.849  51.495  48.878  1.00  0.00    -0.192 N 
HETATM    4  C   UNL     1      18.901  51.471  47.923  1.00  0.00     0.726 A 
HETATM    5  N   UNL     1      18.835  50.401  47.078  1.00  0.00    -0.083 N 
HETATM    6  N   UNL     1      17.936  50.602  46.094  1.00  0.00    -0.140 NA
HETATM    7  C   UNL     1      17.455  51.807  46.438  1.00  0.00     0.166 A 
HETATM    8  N   UNL     1      18.011  52.360  47.569  1.00  0.00    -0.046 NA
HETATM    9  C   UNL     1      19.774  49.271  47.106  1.00  0.00     0.204 C 
HETATM   10  C   UNL     1      20.921  49.522  48.077  1.00  0.00     0.062 C 
HETATM   11  H   UNL     1      19.932  52.332  49.450  1.00  0.00     0.184 HD
ENDROOT
BRANCH  10  12
HETATM   12  C   UNL     1      22.052  48.548  48.111  1.00  0.00     0.256 C 
HETATM   13  N   UNL     1      21.826  47.445  48.909  1.00  0.00    -0.323 N 
HETATM   14  H   UNL     1      20.994  47.411  49.480  1.00  0.00     0.169 HD
HETATM   15  O   UNL     1      23.070  48.779  47.468  1.00  0.00    -0.267 OA
BRANCH  13  16
HETATM   16  C   UNL     1      22.637  46.292  49.012  1.00  0.00     0.035 A 
HETATM   17  C   UNL     1      23.935  46.296  49.529  1.00  0.00     0.032 A 
HETATM   18  C   UNL     1      24.693  45.122  49.543  1.00  0.00     0.044 A 
HETATM   19  C   UNL     1      24.148  43.943  49.051  1.00  0.00     0.116 A 
HETATM   20  F   UNL     1      24.877  42.820  49.062  1.00  0.00    -0.206 F 
HETATM   21  C   UNL     1      22.857  43.916  48.543  1.00  0.00     0.044 A 
HETATM   22  C   UNL     1      22.104  45.092  48.516  1.00  0.00     0.032 A 
ENDBRANCH  13  16
ENDBRANCH  10  12
BRANCH   9  23
HETATM   23  C   UNL     1      19.013  47.979  47.396  1.00  0.00    -0.005 A 
HETATM   24  C   UNL     1      19.263  46.778  46.697  1.00  0.00     0.064 A 
HETATM   25 CL   UNL     1      20.511  46.709  45.490  1.00  0.00    -0.082 Cl
HETATM   26  C   UNL     1      18.509  45.625  46.987  1.00  0.00     0.056 A 
HETATM   27 CL   UNL     1      18.753  44.121  46.165  1.00  0.00    -0.083 Cl
HETATM   28  C   UNL     1      17.517  45.657  47.970  1.00  0.00     0.026 A 
HETATM   29  C   UNL     1      17.270  46.832  48.673  1.00  0.00     0.002 A 
HETATM   30  C   UNL     1      18.008  47.979  48.389  1.00  0.00     0.011 A 
ENDBRANCH   9  23
BRANCH   7  31
HETATM   31  C   UNL     1      16.478  52.541  45.597  1.00  0.00     0.085 C 
BRANCH  31  32
HETATM   32  C   UNL     1      15.037  52.374  46.082  1.00  0.00     0.034 C 
BRANCH  32  33
HETATM   33  C   UNL     1      14.502  53.603  46.809  1.00  0.00     0.164 C 
BRANCH  33  34
HETATM   34  O   UNL     1      15.124  53.716  48.084  1.00  0.00    -0.401 OA
HETATM   35  H   UNL     1      15.880  54.319  47.990  1.00  0.00     0.209 HD
ENDBRANCH  33  34
ENDBRANCH  32  33
ENDBRANCH  31  32
ENDBRANCH   7  31
TORSDOF 7
ENDMDL
MODEL 9
REMARK VINA RESULT:      -6.7      3.426      5.147
REMARK  7 active torsions:
REMARK  status: ('A' for Active; 'I' for Inactive)
REMARK    1  A    between atoms: C_7  and  C_8 
REMARK    2  A    between atoms: C_8  and  C_9 
REMARK    3  A    between atoms: C_9  and  C_10 
REMARK    4  A    between atoms: C_10  and  O_11 
REMARK    5  A    between atoms: C_13  and  C_14 
REMARK    6  A    between atoms: C_22  and  C_23 
REMARK       I    between atoms: C_23  and  N_24 
REMARK    7  A    between atoms: N_24  and  C_25 
ROOT
HETATM    1  C   UNL     1      24.130  44.587  51.462  1.00  0.00     0.070 C 
HETATM    2  C   UNL     1      24.345  43.697  50.262  1.00  0.00     0.037 C 
HETATM    3  N   UNL     1      23.194  43.319  49.575  1.00  0.00    -0.192 N 
HETATM    4  C   UNL     1      23.223  42.697  48.381  1.00  0.00     0.726 A 
HETATM    5  N   UNL     1      24.412  42.227  47.906  1.00  0.00    -0.083 N 
HETATM    6  N   UNL     1      24.295  41.771  46.642  1.00  0.00    -0.140 NA
HETATM    7  C   UNL     1      22.982  41.952  46.434  1.00  0.00     0.166 A 
HETATM    8  N   UNL     1      22.289  42.500  47.489  1.00  0.00    -0.046 NA
HETATM    9  C   UNL     1      25.699  42.395  48.595  1.00  0.00     0.204 C 
HETATM   10  C   UNL     1      25.566  43.300  49.814  1.00  0.00     0.062 C 
HETATM   11  H   UNL     1      22.314  43.729  49.880  1.00  0.00     0.184 HD
ENDROOT
BRANCH  10  12
HETATM   12  C   UNL     1      26.806  43.709  50.537  1.00  0.00     0.256 C 
HETATM   13  N   UNL     1      26.931  43.168  51.800  1.00  0.00    -0.323 N 
HETATM   14  H   UNL     1      26.164  42.637  52.187  1.00  0.00     0.169 HD
HETATM   15  O   UNL     1      27.598  44.474  49.996  1.00  0.00    -0.267 OA
BRANCH  13  16
HETATM   16  C   UNL     1      28.058  43.245  52.648  1.00  0.00     0.035 A 
HETATM   17  C   UNL     1      29.221  42.490  52.470  1.00  0.00     0.032 A 
HETATM   18  C   UNL     1      30.270  42.582  53.389  1.00  0.00     0.044 A 
HETATM   19  C   UNL     1      30.161  43.438  54.478  1.00  0.00     0.116 A 
HETATM   20  F   UNL     1      31.166  43.522  55.358  1.00  0.00    -0.206 F 
HETATM   21  C   UNL     1      29.018  44.203  54.667  1.00  0.00     0.044 A 
HETATM   22  C   UNL     1      27.965  44.101  53.756  1.00  0.00     0.032 A 
ENDBRANCH  13  16
ENDBRANCH  10  12
BRANCH   9  23
HETATM   23  C   UNL     1      26.288  41.025  48.925  1.00  0.00    -0.005 A 
HETATM   24  C   UNL     1      27.203  40.368  48.074  1.00  0.00     0.064 A 
HETATM   25 CL   UNL     1      27.747  41.133  46.611  1.00  0.00    -0.082 Cl
HETATM   26  C   UNL     1      27.690  39.092  48.416  1.00  0.00     0.056 A 
HETATM   27 CL   UNL     1      28.805  38.222  47.418  1.00  0.00    -0.083 Cl
HETATM   28  C   UNL     1      27.281  38.473  49.599  1.00  0.00     0.026 A 
HETATM   29  C   UNL     1      26.389  39.116  50.451  1.00  0.00     0.002 A 
HETATM   30  C   UNL     1      25.898  40.377  50.118  1.00  0.00     0.011 A 
ENDBRANCH   9  23
BRANCH   7  31
HETATM   31  C   UNL     1      22.344  41.690  45.120  1.00  0.00     0.085 C 
BRANCH  31  32
HETATM   32  C   UNL     1      22.303  42.930  44.226  1.00  0.00     0.034 C 
BRANCH  32  33
HETATM   33  C   UNL     1      23.584  43.133  43.422  1.00  0.00     0.164 C 
BRANCH  33  34
HETATM   34  O   UNL     1      24.382  44.139  44.036  1.00  0.00    -0.401 OA
HETATM   35  H   UNL     1      24.084  44.999  43.694  1.00  0.00     0.209 HD
ENDBRANCH  33  34
ENDBRANCH  32  33
ENDBRANCH  31  32
ENDBRANCH   7  31
TORSDOF 7
ENDMDL
MODEL 10
REMARK VINA RESULT:      -6.6     12.264     14.907
REMARK  7 active torsions:
REMARK  status: ('A' for Active; 'I' for Inactive)
REMARK    1  A    between atoms: C_7  and  C_8 
REMARK    2  A    between atoms: C_8  and  C_9 
REMARK    3  A    between atoms: C_9  and  C_10 
REMARK    4  A    between atoms: C_10  and  O_11 
REMARK    5  A    between atoms: C_13  and  C_14 
REMARK    6  A    between atoms: C_22  and  C_23 
REMARK       I    between atoms: C_23  and  N_24 
REMARK    7  A    between atoms: N_24  and  C_25 
ROOT
HETATM    1  C   UNL     1      26.736  50.658  38.046  1.00  0.00     0.070 C 
HETATM    2  C   UNL     1      27.490  49.809  39.041  1.00  0.00     0.037 C 
HETATM    3  N   UNL     1      28.774  50.245  39.357  1.00  0.00    -0.192 N 
HETATM    4  C   UNL     1      29.500  49.722  40.363  1.00  0.00     0.726 A 
HETATM    5  N   UNL     1      29.061  48.584  40.976  1.00  0.00    -0.083 N 
HETATM    6  N   UNL     1      29.815  48.279  42.052  1.00  0.00    -0.140 NA
HETATM    7  C   UNL     1      30.731  49.258  41.999  1.00  0.00     0.166 A 
HETATM    8  N   UNL     1      30.578  50.151  40.962  1.00  0.00    -0.046 NA
HETATM    9  C   UNL     1      27.805  47.900  40.641  1.00  0.00     0.204 C 
HETATM   10  C   UNL     1      26.976  48.708  39.650  1.00  0.00     0.062 C 
HETATM   11  H   UNL     1      29.075  51.134  38.962  1.00  0.00     0.184 HD
ENDROOT
BRANCH  10  12
HETATM   12  C   UNL     1      25.596  48.239  39.326  1.00  0.00     0.256 C 
HETATM   13  N   UNL     1      24.656  48.532  40.292  1.00  0.00    -0.323 N 
HETATM   14  H   UNL     1      24.959  48.934  41.168  1.00  0.00     0.169 HD
HETATM   15  O   UNL     1      25.391  47.639  38.276  1.00  0.00    -0.267 OA
BRANCH  13  16
HETATM   16  C   UNL     1      23.257  48.358  40.197  1.00  0.00     0.035 A 
HETATM   17  C   UNL     1      22.387  49.312  39.662  1.00  0.00     0.032 A 
HETATM   18  C   UNL     1      21.008  49.086  39.656  1.00  0.00     0.044 A 
HETATM   19  C   UNL     1      20.501  47.901  40.175  1.00  0.00     0.116 A 
HETATM   20  F   UNL     1      19.180  47.688  40.171  1.00  0.00    -0.206 F 
HETATM   21  C   UNL     1      21.349  46.936  40.701  1.00  0.00     0.044 A 
HETATM   22  C   UNL     1      22.726  47.168  40.718  1.00  0.00     0.032 A 
ENDBRANCH  13  16
ENDBRANCH  10  12
BRANCH   9  23
HETATM   23  C   UNL     1      28.103  46.481  40.160  1.00  0.00    -0.005 A 
HETATM   24  C   UNL     1      27.445  45.348  40.683  1.00  0.00     0.064 A 
HETATM   25 CL   UNL     1      26.202  45.531  41.884  1.00  0.00    -0.082 Cl
HETATM   26  C   UNL     1      27.783  44.062  40.221  1.00  0.00     0.056 A 
HETATM   27 CL   UNL     1      27.025  42.627  40.822  1.00  0.00    -0.083 Cl
HETATM   28  C   UNL     1      28.763  43.898  39.239  1.00  0.00     0.026 A 
HETATM   29  C   UNL     1      29.411  45.009  38.708  1.00  0.00     0.002 A 
HETATM   30  C   UNL     1      29.086  46.286  39.163  1.00  0.00     0.011 A 
ENDBRANCH   9  23
BRANCH   7  31
HETATM   31  C   UNL     1      31.763  49.436  43.050  1.00  0.00     0.085 C 
BRANCH  31  32
HETATM   32  C   UNL     1      32.099  50.907  43.304  1.00  0.00     0.034 C 
BRANCH  32  33
HETATM   33  C   UNL     1      33.527  51.272  42.913  1.00  0.00     0.164 C 
BRANCH  33  34
HETATM   34  O   UNL     1      33.515  52.041  41.715  1.00  0.00    -0.401 OA
HETATM   35  H   UNL     1      33.510  52.979  41.969  1.00  0.00     0.209 HD
ENDBRANCH  33  34
ENDBRANCH  32  33
ENDBRANCH  31  32
ENDBRANCH   7  31
TORSDOF 7
ENDMDL
