MODEL 1
REMARK VINA RESULT:      -8.9      0.000      0.000
REMARK  7 active torsions:
REMARK  status: ('A' for Active; 'I' for Inactive)
REMARK    1  A    between atoms: O_2  and  C_3 
REMARK    2  A    between atoms: C_3  and  C_4 
REMARK    3  A    between atoms: C_8  and  C_9 
REMARK    4  A    between atoms: C_9  and  N_10 
REMARK    5  A    between atoms: C_13  and  C_14 
REMARK    6  A    between atoms: C_14  and  N_15 
REMARK       I    between atoms: N_15  and  C_16 
REMARK       I    between atoms: C_16  and  N_17 
REMARK    7  A    between atoms: N_17  and  C_18 
ROOT
HETATM    1  N   UNL     1      26.085  42.916  50.009  1.00  0.00    -0.067 N 
HETATM    2  H   UNL     1      26.263  42.573  50.978  1.00  0.00     0.280 HD
HETATM    3  C   UNL     1      26.718  44.279  49.926  1.00  0.00     0.241 C 
HETATM    4  C   UNL     1      26.010  45.308  50.817  1.00  0.00     0.029 C 
HETATM    5  C   UNL     1      24.517  45.347  50.465  1.00  0.00     0.009 C 
HETATM    6  C   UNL     1      23.878  43.964  50.560  1.00  0.00     0.028 C 
HETATM    7  C   UNL     1      24.610  42.930  49.720  1.00  0.00     0.235 C 
ENDROOT
BRANCH   4   8
HETATM    8  C   UNL     1      26.189  45.135  52.339  1.00  0.00     0.130 C 
BRANCH   8   9
HETATM    9  N   UNL     1      27.526  44.766  52.751  1.00  0.00    -0.342 N 
HETATM   10  C   UNL     1      27.833  44.731  54.100  1.00  0.00     0.320 C 
HETATM   11  N   UNL     1      29.175  44.527  54.299  1.00  0.00    -0.309 N 
HETATM   12  O   UNL     1      26.948  44.826  54.945  1.00  0.00    -0.247 OA
HETATM   13  H   UNL     1      29.708  44.252  53.485  1.00  0.00     0.170 HD
HETATM   14  H   UNL     1      28.279  45.089  52.154  1.00  0.00     0.164 HD
BRANCH  11  15
HETATM   15  C   UNL     1      29.873  44.520  55.524  1.00  0.00     0.039 A 
HETATM   16  C   UNL     1      30.759  43.515  55.904  1.00  0.00     0.071 A 
HETATM   17  C   UNL     1      31.417  43.599  57.129  1.00  0.00     0.118 A 
HETATM   18  F   UNL     1      32.295  42.646  57.467  1.00  0.00    -0.206 F 
HETATM   19  C   UNL     1      31.195  44.661  57.998  1.00  0.00     0.042 A 
HETATM   20  C   UNL     1      30.295  45.657  57.636  1.00  0.00     0.005 A 
HETATM   21  C   UNL     1      29.638  45.588  56.403  1.00  0.00     0.030 A 
ENDBRANCH  11  15
ENDBRANCH   8   9
ENDBRANCH   4   8
BRANCH   1  22
HETATM   22  C   UNL     1      26.775  41.903  49.110  1.00  0.00     0.274 C 
BRANCH  22  23
HETATM   23  C   UNL     1      27.635  40.922  49.826  1.00  0.00    -0.015 A 
HETATM   24  C   UNL     1      28.048  40.993  51.143  1.00  0.00     0.097 A 
HETATM   25  N   UNL     1      28.839  39.906  51.412  1.00  0.00    -0.360 N 
HETATM   26  C   UNL     1      28.983  39.138  50.280  1.00  0.00     0.108 A 
HETATM   27  H   UNL     1      29.303  39.712  52.294  1.00  0.00     0.165 HD
HETATM   28  C   UNL     1      28.193  39.720  49.304  1.00  0.00     0.046 A 
BRANCH  26  29
HETATM   29  C   UNL     1      29.822  37.969  50.173  1.00  0.00     0.309 C 
HETATM   30  O   UNL     1      30.950  37.959  49.701  1.00  0.00    -0.258 OA
BRANCH  29  31
HETATM   31  O   UNL     1      29.179  36.894  50.706  1.00  0.00    -0.321 OA
HETATM   32  C   UNL     1      29.903  36.255  51.758  1.00  0.00     0.213 C 
ENDBRANCH  29  31
ENDBRANCH  26  29
ENDBRANCH  22  23
ENDBRANCH   1  22
TORSDOF 7
ENDMDL
MODEL 2
REMARK VINA RESULT:      -8.6      2.784      6.150
REMARK  7 active torsions:
REMARK  status: ('A' for Active; 'I' for Inactive)
REMARK    1  A    between atoms: O_2  and  C_3 
REMARK    2  A    between atoms: C_3  and  C_4 
REMARK    3  A    between atoms: C_8  and  C_9 
REMARK    4  A    between atoms: C_9  and  N_10 
REMARK    5  A    between atoms: C_13  and  C_14 
REMARK    6  A    between atoms: C_14  and  N_15 
REMARK       I    between atoms: N_15  and  C_16 
REMARK       I    between atoms: C_16  and  N_17 
REMARK    7  A    between atoms: N_17  and  C_18 
ROOT
HETATM    1  N   UNL     1      26.146  41.817  49.849  1.00  0.00    -0.067 N 
HETATM    2  H   UNL     1      27.004  42.302  50.187  1.00  0.00     0.280 HD
HETATM    3  C   UNL     1      26.104  40.493  50.565  1.00  0.00     0.241 C 
HETATM    4  C   UNL     1      27.245  39.561  50.139  1.00  0.00     0.029 C 
HETATM    5  C   UNL     1      27.221  39.388  48.614  1.00  0.00     0.009 C 
HETATM    6  C   UNL     1      27.273  40.733  47.892  1.00  0.00     0.028 C 
HETATM    7  C   UNL     1      26.175  41.678  48.352  1.00  0.00     0.235 C 
ENDROOT
BRANCH   4   8
HETATM    8  C   UNL     1      28.663  39.956  50.602  1.00  0.00     0.130 C 
BRANCH   8   9
HETATM    9  N   UNL     1      28.762  40.314  52.001  1.00  0.00    -0.342 N 
HETATM   10  C   UNL     1      28.791  41.651  52.357  1.00  0.00     0.320 C 
HETATM   11  N   UNL     1      29.054  41.804  53.695  1.00  0.00    -0.309 N 
HETATM   12  O   UNL     1      28.548  42.523  51.528  1.00  0.00    -0.247 OA
HETATM   13  H   UNL     1      29.005  40.964  54.255  1.00  0.00     0.170 HD
HETATM   14  H   UNL     1      29.344  39.711  52.573  1.00  0.00     0.164 HD
BRANCH  11  15
HETATM   15  C   UNL     1      29.248  43.007  54.402  1.00  0.00     0.039 A 
HETATM   16  C   UNL     1      28.348  44.070  54.381  1.00  0.00     0.071 A 
HETATM   17  C   UNL     1      28.615  45.217  55.125  1.00  0.00     0.118 A 
HETATM   18  F   UNL     1      27.724  46.217  55.128  1.00  0.00    -0.206 F 
HETATM   19  C   UNL     1      29.776  45.337  55.879  1.00  0.00     0.042 A 
HETATM   20  C   UNL     1      30.691  44.289  55.888  1.00  0.00     0.005 A 
HETATM   21  C   UNL     1      30.426  43.128  55.154  1.00  0.00     0.030 A 
ENDBRANCH  11  15
ENDBRANCH   8   9
ENDBRANCH   4   8
BRANCH   1  22
HETATM   22  C   UNL     1      25.002  42.730  50.258  1.00  0.00     0.274 C 
BRANCH  22  23
HETATM   23  C   UNL     1      25.396  44.143  50.512  1.00  0.00    -0.015 A 
HETATM   24  C   UNL     1      25.691  44.710  51.738  1.00  0.00     0.097 A 
HETATM   25  N   UNL     1      25.991  46.034  51.546  1.00  0.00    -0.360 N 
HETATM   26  C   UNL     1      25.864  46.355  50.214  1.00  0.00     0.108 A 
HETATM   27  H   UNL     1      26.220  46.703  52.274  1.00  0.00     0.165 HD
HETATM   28  C   UNL     1      25.555  45.181  49.551  1.00  0.00     0.046 A 
BRANCH  26  29
HETATM   29  C   UNL     1      26.013  47.682  49.665  1.00  0.00     0.309 C 
HETATM   30  O   UNL     1      25.187  48.578  49.766  1.00  0.00    -0.258 OA
BRANCH  29  31
HETATM   31  O   UNL     1      27.223  47.788  49.050  1.00  0.00    -0.321 OA
HETATM   32  C   UNL     1      27.794  49.094  49.128  1.00  0.00     0.213 C 
ENDBRANCH  29  31
ENDBRANCH  26  29
ENDBRANCH  22  23
ENDBRANCH   1  22
TORSDOF 7
ENDMDL
MODEL 3
REMARK VINA RESULT:      -8.6      3.776      7.151
REMARK  7 active torsions:
REMARK  status: ('A' for Active; 'I' for Inactive)
REMARK    1  A    between atoms: O_2  and  C_3 
REMARK    2  A    between atoms: C_3  and  C_4 
REMARK    3  A    between atoms: C_8  and  C_9 
REMARK    4  A    between atoms: C_9  and  N_10 
REMARK    5  A    between atoms: C_13  and  C_14 
REMARK    6  A    between atoms: C_14  and  N_15 
REMARK       I    between atoms: N_15  and  C_16 
REMARK       I    between atoms: C_16  and  N_17 
REMARK    7  A    between atoms: N_17  and  C_18 
ROOT
HETATM    1  N   UNL     1      24.357  45.089  50.014  1.00  0.00    -0.067 N 
HETATM    2  H   UNL     1      24.454  46.022  50.469  1.00  0.00     0.280 HD
HETATM    3  C   UNL     1      24.132  44.102  51.129  1.00  0.00     0.241 C 
HETATM    4  C   UNL     1      25.365  43.945  52.028  1.00  0.00     0.029 C 
HETATM    5  C   UNL     1      26.581  43.572  51.168  1.00  0.00     0.009 C 
HETATM    6  C   UNL     1      26.809  44.582  50.045  1.00  0.00     0.028 C 
HETATM    7  C   UNL     1      25.572  44.779  49.184  1.00  0.00     0.235 C 
ENDROOT
BRANCH   4   8
HETATM    8  C   UNL     1      25.709  45.144  52.935  1.00  0.00     0.130 C 
BRANCH   8   9
HETATM    9  N   UNL     1      27.116  45.283  53.244  1.00  0.00    -0.342 N 
HETATM   10  C   UNL     1      27.588  44.835  54.464  1.00  0.00     0.320 C 
HETATM   11  N   UNL     1      28.898  45.195  54.653  1.00  0.00    -0.309 N 
HETATM   12  O   UNL     1      26.875  44.160  55.201  1.00  0.00    -0.247 OA
HETATM   13  H   UNL     1      29.381  45.556  53.841  1.00  0.00     0.170 HD
HETATM   14  H   UNL     1      27.563  46.126  52.901  1.00  0.00     0.164 HD
BRANCH  11  15
HETATM   15  C   UNL     1      29.690  44.996  55.803  1.00  0.00     0.039 A 
HETATM   16  C   UNL     1      30.623  43.970  55.931  1.00  0.00     0.071 A 
HETATM   17  C   UNL     1      31.372  43.859  57.100  1.00  0.00     0.118 A 
HETATM   18  F   UNL     1      32.293  42.891  57.197  1.00  0.00    -0.206 F 
HETATM   19  C   UNL     1      31.197  44.742  58.159  1.00  0.00     0.042 A 
HETATM   20  C   UNL     1      30.252  45.756  58.047  1.00  0.00     0.005 A 
HETATM   21  C   UNL     1      29.502  45.883  56.873  1.00  0.00     0.030 A 
ENDBRANCH  11  15
ENDBRANCH   8   9
ENDBRANCH   4   8
BRANCH   1  22
HETATM   22  C   UNL     1      23.141  45.227  49.111  1.00  0.00     0.274 C 
BRANCH  22  23
HETATM   23  C   UNL     1      22.847  46.619  48.674  1.00  0.00    -0.015 A 
HETATM   24  C   UNL     1      21.724  47.051  47.995  1.00  0.00     0.097 A 
HETATM   25  N   UNL     1      21.843  48.397  47.765  1.00  0.00    -0.360 N 
HETATM   26  C   UNL     1      23.046  48.852  48.253  1.00  0.00     0.108 A 
HETATM   27  H   UNL     1      21.177  48.976  47.262  1.00  0.00     0.165 HD
HETATM   28  C   UNL     1      23.654  47.775  48.874  1.00  0.00     0.046 A 
BRANCH  26  29
HETATM   29  C   UNL     1      23.545  50.198  48.104  1.00  0.00     0.309 C 
HETATM   30  O   UNL     1      23.081  51.181  48.664  1.00  0.00    -0.258 OA
BRANCH  29  31
HETATM   31  O   UNL     1      24.625  50.197  47.275  1.00  0.00    -0.321 OA
HETATM   32  C   UNL     1      25.876  50.179  47.962  1.00  0.00     0.213 C 
ENDBRANCH  29  31
ENDBRANCH  26  29
ENDBRANCH  22  23
ENDBRANCH   1  22
TORSDOF 7
ENDMDL
MODEL 4
REMARK VINA RESULT:      -8.6      5.364      9.322
REMARK  7 active torsions:
REMARK  status: ('A' for Active; 'I' for Inactive)
REMARK    1  A    between atoms: O_2  and  C_3 
REMARK    2  A    between atoms: C_3  and  C_4 
REMARK    3  A    between atoms: C_8  and  C_9 
REMARK    4  A    between atoms: C_9  and  N_10 
REMARK    5  A    between atoms: C_13  and  C_14 
REMARK    6  A    between atoms: C_14  and  N_15 
REMARK       I    between atoms: N_15  and  C_16 
REMARK       I    between atoms: C_16  and  N_17 
REMARK    7  A    between atoms: N_17  and  C_18 
ROOT
HETATM    1  N   UNL     1      26.598  44.291  51.619  1.00  0.00    -0.067 N 
HETATM    2  H   UNL     1      26.233  45.011  52.279  1.00  0.00     0.280 HD
HETATM    3  C   UNL     1      27.056  45.041  50.395  1.00  0.00     0.241 C 
HETATM    4  C   UNL     1      25.891  45.682  49.632  1.00  0.00     0.029 C 
HETATM    5  C   UNL     1      24.851  44.606  49.290  1.00  0.00     0.009 C 
HETATM    6  C   UNL     1      24.383  43.856  50.535  1.00  0.00     0.028 C 
HETATM    7  C   UNL     1      25.541  43.265  51.322  1.00  0.00     0.235 C 
ENDROOT
BRANCH   4   8
HETATM    8  C   UNL     1      25.203  46.883  50.314  1.00  0.00     0.130 C 
BRANCH   8   9
HETATM    9  N   UNL     1      23.805  47.048  49.977  1.00  0.00    -0.342 N 
HETATM   10  C   UNL     1      23.362  48.275  49.515  1.00  0.00     0.320 C 
HETATM   11  N   UNL     1      21.994  48.300  49.406  1.00  0.00    -0.309 N 
HETATM   12  O   UNL     1      24.161  49.156  49.214  1.00  0.00    -0.247 OA
HETATM   13  H   UNL     1      21.526  47.407  49.489  1.00  0.00     0.170 HD
HETATM   14  H   UNL     1      23.146  46.554  50.568  1.00  0.00     0.164 HD
BRANCH  11  15
HETATM   15  C   UNL     1      21.177  49.394  49.057  1.00  0.00     0.039 A 
HETATM   16  C   UNL     1      20.554  50.222  49.988  1.00  0.00     0.071 A 
HETATM   17  C   UNL     1      19.776  51.292  49.551  1.00  0.00     0.118 A 
HETATM   18  F   UNL     1      19.213  52.104  50.455  1.00  0.00    -0.206 F 
HETATM   19  C   UNL     1      19.588  51.544  48.197  1.00  0.00     0.042 A 
HETATM   20  C   UNL     1      20.188  50.708  47.261  1.00  0.00     0.005 A 
HETATM   21  C   UNL     1      20.981  49.639  47.690  1.00  0.00     0.030 A 
ENDBRANCH  11  15
ENDBRANCH   8   9
ENDBRANCH   4   8
BRANCH   1  22
HETATM   22  C   UNL     1      27.753  43.639  52.362  1.00  0.00     0.274 C 
BRANCH  22  23
HETATM   23  C   UNL     1      28.168  44.344  53.605  1.00  0.00    -0.015 A 
HETATM   24  C   UNL     1      27.567  45.456  54.164  1.00  0.00     0.097 A 
HETATM   25  N   UNL     1      28.259  45.807  55.293  1.00  0.00    -0.360 N 
HETATM   26  C   UNL     1      29.330  44.961  55.468  1.00  0.00     0.108 A 
HETATM   27  H   UNL     1      28.058  46.601  55.892  1.00  0.00     0.165 HD
HETATM   28  C   UNL     1      29.253  44.011  54.465  1.00  0.00     0.046 A 
BRANCH  26  29
HETATM   29  C   UNL     1      30.329  45.091  56.503  1.00  0.00     0.309 C 
HETATM   30  O   UNL     1      30.197  45.755  57.522  1.00  0.00    -0.258 OA
BRANCH  29  31
HETATM   31  O   UNL     1      31.418  44.339  56.186  1.00  0.00    -0.321 OA
HETATM   32  C   UNL     1      31.745  43.359  57.170  1.00  0.00     0.213 C 
ENDBRANCH  29  31
ENDBRANCH  26  29
ENDBRANCH  22  23
ENDBRANCH   1  22
TORSDOF 7
ENDMDL
MODEL 5
REMARK VINA RESULT:      -8.5      3.440      6.970
REMARK  7 active torsions:
REMARK  status: ('A' for Active; 'I' for Inactive)
REMARK    1  A    between atoms: O_2  and  C_3 
REMARK    2  A    between atoms: C_3  and  C_4 
REMARK    3  A    between atoms: C_8  and  C_9 
REMARK    4  A    between atoms: C_9  and  N_10 
REMARK    5  A    between atoms: C_13  and  C_14 
REMARK    6  A    between atoms: C_14  and  N_15 
REMARK       I    between atoms: N_15  and  C_16 
REMARK       I    between atoms: C_16  and  N_17 
REMARK    7  A    between atoms: N_17  and  C_18 
ROOT
HETATM    1  N   UNL     1      24.994  44.043  49.936  1.00  0.00    -0.067 N 
HETATM    2  H   UNL     1      25.830  44.651  49.795  1.00  0.00     0.280 HD
HETATM    3  C   UNL     1      25.125  43.469  51.322  1.00  0.00     0.241 C 
HETATM    4  C   UNL     1      26.308  42.501  51.444  1.00  0.00     0.029 C 
HETATM    5  C   UNL     1      26.183  41.403  50.378  1.00  0.00     0.009 C 
HETATM    6  C   UNL     1      26.059  41.991  48.974  1.00  0.00     0.028 C 
HETATM    7  C   UNL     1      24.921  42.992  48.864  1.00  0.00     0.235 C 
ENDROOT
BRANCH   4   8
HETATM    8  C   UNL     1      27.716  43.128  51.392  1.00  0.00     0.130 C 
BRANCH   8   9
HETATM    9  N   UNL     1      27.998  44.068  52.456  1.00  0.00    -0.342 N 
HETATM   10  C   UNL     1      28.963  43.755  53.396  1.00  0.00     0.320 C 
HETATM   11  N   UNL     1      28.979  44.674  54.416  1.00  0.00    -0.309 N 
HETATM   12  O   UNL     1      29.704  42.790  53.235  1.00  0.00    -0.247 OA
HETATM   13  H   UNL     1      28.446  45.518  54.261  1.00  0.00     0.170 HD
HETATM   14  H   UNL     1      27.200  44.576  52.821  1.00  0.00     0.164 HD
BRANCH  11  15
HETATM   15  C   UNL     1      29.758  44.643  55.590  1.00  0.00     0.039 A 
HETATM   16  C   UNL     1      30.706  43.660  55.864  1.00  0.00     0.071 A 
HETATM   17  C   UNL     1      31.442  43.719  57.046  1.00  0.00     0.118 A 
HETATM   18  F   UNL     1      32.378  42.789  57.281  1.00  0.00    -0.206 F 
HETATM   19  C   UNL     1      31.238  44.731  57.976  1.00  0.00     0.042 A 
HETATM   20  C   UNL     1      30.277  45.704  57.720  1.00  0.00     0.005 A 
HETATM   21  C   UNL     1      29.542  45.661  56.531  1.00  0.00     0.030 A 
ENDBRANCH  11  15
ENDBRANCH   8   9
ENDBRANCH   4   8
BRANCH   1  22
HETATM   22  C   UNL     1      23.808  44.986  49.812  1.00  0.00     0.274 C 
BRANCH  22  23
HETATM   23  C   UNL     1      24.170  46.410  49.571  1.00  0.00    -0.015 A 
HETATM   24  C   UNL     1      25.314  47.055  50.001  1.00  0.00     0.097 A 
HETATM   25  N   UNL     1      25.261  48.361  49.589  1.00  0.00    -0.360 N 
HETATM   26  C   UNL     1      24.081  48.595  48.922  1.00  0.00     0.108 A 
HETATM   27  H   UNL     1      25.955  49.076  49.785  1.00  0.00     0.165 HD
HETATM   28  C   UNL     1      23.420  47.381  48.849  1.00  0.00     0.046 A 
BRANCH  26  29
HETATM   29  C   UNL     1      23.648  49.881  48.429  1.00  0.00     0.309 C 
HETATM   30  O   UNL     1      23.467  50.153  47.251  1.00  0.00    -0.258 OA
BRANCH  29  31
HETATM   31  O   UNL     1      23.443  50.727  49.476  1.00  0.00    -0.321 OA
HETATM   32  C   UNL     1      22.073  50.842  49.861  1.00  0.00     0.213 C 
ENDBRANCH  29  31
ENDBRANCH  26  29
ENDBRANCH  22  23
ENDBRANCH   1  22
TORSDOF 7
ENDMDL
MODEL 6
REMARK VINA RESULT:      -8.5      2.404      6.005
REMARK  7 active torsions:
REMARK  status: ('A' for Active; 'I' for Inactive)
REMARK    1  A    between atoms: O_2  and  C_3 
REMARK    2  A    between atoms: C_3  and  C_4 
REMARK    3  A    between atoms: C_8  and  C_9 
REMARK    4  A    between atoms: C_9  and  N_10 
REMARK    5  A    between atoms: C_13  and  C_14 
REMARK    6  A    between atoms: C_14  and  N_15 
REMARK       I    between atoms: N_15  and  C_16 
REMARK       I    between atoms: C_16  and  N_17 
REMARK    7  A    between atoms: N_17  and  C_18 
ROOT
HETATM    1  N   UNL     1      26.242  41.296  49.530  1.00  0.00    -0.067 N 
HETATM    2  H   UNL     1      27.036  41.810  49.968  1.00  0.00     0.280 HD
HETATM    3  C   UNL     1      26.220  39.934  50.174  1.00  0.00     0.241 C 
HETATM    4  C   UNL     1      27.450  39.094  49.806  1.00  0.00     0.029 C 
HETATM    5  C   UNL     1      27.569  39.005  48.279  1.00  0.00     0.009 C 
HETATM    6  C   UNL     1      27.600  40.388  47.632  1.00  0.00     0.028 C 
HETATM    7  C   UNL     1      26.410  41.242  48.037  1.00  0.00     0.235 C 
ENDROOT
BRANCH   4   8
HETATM    8  C   UNL     1      28.794  39.544  50.415  1.00  0.00     0.130 C 
BRANCH   8   9
HETATM    9  N   UNL     1      28.723  39.944  51.804  1.00  0.00    -0.342 N 
HETATM   10  C   UNL     1      28.708  41.292  52.119  1.00  0.00     0.320 C 
HETATM   11  N   UNL     1      28.808  41.486  53.474  1.00  0.00    -0.309 N 
HETATM   12  O   UNL     1      28.567  42.138  51.241  1.00  0.00    -0.247 OA
HETATM   13  H   UNL     1      28.692  40.663  54.050  1.00  0.00     0.170 HD
HETATM   14  H   UNL     1      29.232  39.362  52.460  1.00  0.00     0.164 HD
BRANCH  11  15
HETATM   15  C   UNL     1      28.914  42.711  54.163  1.00  0.00     0.039 A 
HETATM   16  C   UNL     1      30.077  43.146  54.792  1.00  0.00     0.071 A 
HETATM   17  C   UNL     1      30.095  44.381  55.437  1.00  0.00     0.118 A 
HETATM   18  F   UNL     1      31.230  44.806  56.006  1.00  0.00    -0.206 F 
HETATM   19  C   UNL     1      28.964  45.188  55.486  1.00  0.00     0.042 A 
HETATM   20  C   UNL     1      27.791  44.751  54.880  1.00  0.00     0.005 A 
HETATM   21  C   UNL     1      27.767  43.518  54.219  1.00  0.00     0.030 A 
ENDBRANCH  11  15
ENDBRANCH   8   9
ENDBRANCH   4   8
BRANCH   1  22
HETATM   22  C   UNL     1      25.012  42.118  49.879  1.00  0.00     0.274 C 
BRANCH  22  23
HETATM   23  C   UNL     1      25.301  43.510  50.321  1.00  0.00    -0.015 A 
HETATM   24  C   UNL     1      25.162  44.015  51.600  1.00  0.00     0.097 A 
HETATM   25  N   UNL     1      25.514  45.340  51.586  1.00  0.00    -0.360 N 
HETATM   26  C   UNL     1      25.850  45.724  50.308  1.00  0.00     0.108 A 
HETATM   27  H   UNL     1      25.484  45.972  52.380  1.00  0.00     0.165 HD
HETATM   28  C   UNL     1      25.782  44.586  49.523  1.00  0.00     0.046 A 
BRANCH  26  29
HETATM   29  C   UNL     1      26.182  47.070  49.908  1.00  0.00     0.309 C 
HETATM   30  O   UNL     1      27.138  47.376  49.209  1.00  0.00    -0.258 OA
BRANCH  29  31
HETATM   31  O   UNL     1      25.253  47.936  50.398  1.00  0.00    -0.321 OA
HETATM   32  C   UNL     1      24.037  47.957  49.652  1.00  0.00     0.213 C 
ENDBRANCH  29  31
ENDBRANCH  26  29
ENDBRANCH  22  23
ENDBRANCH   1  22
TORSDOF 7
ENDMDL
MODEL 7
REMARK VINA RESULT:      -8.4      6.063     10.118
REMARK  7 active torsions:
REMARK  status: ('A' for Active; 'I' for Inactive)
REMARK    1  A    between atoms: O_2  and  C_3 
REMARK    2  A    between atoms: C_3  and  C_4 
REMARK    3  A    between atoms: C_8  and  C_9 
REMARK    4  A    between atoms: C_9  and  N_10 
REMARK    5  A    between atoms: C_13  and  C_14 
REMARK    6  A    between atoms: C_14  and  N_15 
REMARK       I    between atoms: N_15  and  C_16 
REMARK       I    between atoms: C_16  and  N_17 
REMARK    7  A    between atoms: N_17  and  C_18 
ROOT
HETATM    1  N   UNL     1      25.549  45.553  51.914  1.00  0.00    -0.067 N 
HETATM    2  H   UNL     1      24.662  45.212  51.486  1.00  0.00     0.280 HD
HETATM    3  C   UNL     1      25.533  47.052  51.771  1.00  0.00     0.241 C 
HETATM    4  C   UNL     1      25.635  47.500  50.308  1.00  0.00     0.029 C 
HETATM    5  C   UNL     1      26.883  46.877  49.668  1.00  0.00     0.009 C 
HETATM    6  C   UNL     1      26.889  45.356  49.807  1.00  0.00     0.028 C 
HETATM    7  C   UNL     1      26.735  44.908  51.251  1.00  0.00     0.235 C 
ENDROOT
BRANCH   4   8
HETATM    8  C   UNL     1      24.400  47.237  49.422  1.00  0.00     0.130 C 
BRANCH   8   9
HETATM    9  N   UNL     1      23.182  47.870  49.882  1.00  0.00    -0.342 N 
HETATM   10  C   UNL     1      22.343  48.471  48.960  1.00  0.00     0.320 C 
HETATM   11  N   UNL     1      21.333  49.159  49.583  1.00  0.00    -0.309 N 
HETATM   12  O   UNL     1      22.521  48.312  47.756  1.00  0.00    -0.247 OA
HETATM   13  H   UNL     1      21.226  48.990  50.574  1.00  0.00     0.170 HD
HETATM   14  H   UNL     1      23.241  48.347  50.775  1.00  0.00     0.164 HD
BRANCH  11  15
HETATM   15  C   UNL     1      20.343  49.965  48.984  1.00  0.00     0.039 A 
HETATM   16  C   UNL     1      19.193  49.458  48.384  1.00  0.00     0.071 A 
HETATM   17  C   UNL     1      18.259  50.332  47.830  1.00  0.00     0.118 A 
HETATM   18  F   UNL     1      17.139  49.836  47.290  1.00  0.00    -0.206 F 
HETATM   19  C   UNL     1      18.459  51.707  47.843  1.00  0.00     0.042 A 
HETATM   20  C   UNL     1      19.616  52.220  48.421  1.00  0.00     0.005 A 
HETATM   21  C   UNL     1      20.553  51.352  48.990  1.00  0.00     0.030 A 
ENDBRANCH  11  15
ENDBRANCH   8   9
ENDBRANCH   4   8
BRANCH   1  22
HETATM   22  C   UNL     1      25.470  45.111  53.366  1.00  0.00     0.274 C 
BRANCH  22  23
HETATM   23  C   UNL     1      26.654  45.474  54.191  1.00  0.00    -0.015 A 
HETATM   24  C   UNL     1      26.922  46.709  54.752  1.00  0.00     0.097 A 
HETATM   25  N   UNL     1      28.116  46.635  55.421  1.00  0.00    -0.360 N 
HETATM   26  C   UNL     1      28.656  45.378  55.280  1.00  0.00     0.108 A 
HETATM   27  H   UNL     1      28.575  47.400  55.906  1.00  0.00     0.165 HD
HETATM   28  C   UNL     1      27.733  44.627  54.573  1.00  0.00     0.046 A 
BRANCH  26  29
HETATM   29  C   UNL     1      29.949  44.971  55.776  1.00  0.00     0.309 C 
HETATM   30  O   UNL     1      30.530  43.944  55.455  1.00  0.00    -0.258 OA
BRANCH  29  31
HETATM   31  O   UNL     1      30.432  45.919  56.625  1.00  0.00    -0.321 OA
HETATM   32  C   UNL     1      30.406  45.528  57.998  1.00  0.00     0.213 C 
ENDBRANCH  29  31
ENDBRANCH  26  29
ENDBRANCH  22  23
ENDBRANCH   1  22
TORSDOF 7
ENDMDL
MODEL 8
REMARK VINA RESULT:      -8.4      3.817      8.943
REMARK  7 active torsions:
REMARK  status: ('A' for Active; 'I' for Inactive)
REMARK    1  A    between atoms: O_2  and  C_3 
REMARK    2  A    between atoms: C_3  and  C_4 
REMARK    3  A    between atoms: C_8  and  C_9 
REMARK    4  A    between atoms: C_9  and  N_10 
REMARK    5  A    between atoms: C_13  and  C_14 
REMARK    6  A    between atoms: C_14  and  N_15 
REMARK       I    between atoms: N_15  and  C_16 
REMARK       I    between atoms: C_16  and  N_17 
REMARK    7  A    between atoms: N_17  and  C_18 
ROOT
HETATM    1  N   UNL     1      27.934  44.319  54.116  1.00  0.00    -0.067 N 
HETATM    2  H   UNL     1      27.317  43.547  54.448  1.00  0.00     0.280 HD
HETATM    3  C   UNL     1      28.276  43.995  52.685  1.00  0.00     0.241 C 
HETATM    4  C   UNL     1      29.154  42.744  52.564  1.00  0.00     0.029 C 
HETATM    5  C   UNL     1      30.411  42.916  53.429  1.00  0.00     0.009 C 
HETATM    6  C   UNL     1      30.058  43.236  54.880  1.00  0.00     0.028 C 
HETATM    7  C   UNL     1      29.143  44.443  55.000  1.00  0.00     0.235 C 
ENDROOT
BRANCH   4   8
HETATM    8  C   UNL     1      28.476  41.396  52.881  1.00  0.00     0.130 C 
BRANCH   8   9
HETATM    9  N   UNL     1      28.968  40.276  52.109  1.00  0.00    -0.342 N 
HETATM   10  C   UNL     1      28.315  39.919  50.942  1.00  0.00     0.320 C 
HETATM   11  N   UNL     1      28.811  38.745  50.434  1.00  0.00    -0.309 N 
HETATM   12  O   UNL     1      27.449  40.646  50.464  1.00  0.00    -0.247 OA
HETATM   13  H   UNL     1      29.670  38.410  50.848  1.00  0.00     0.170 HD
HETATM   14  H   UNL     1      29.336  39.496  52.643  1.00  0.00     0.164 HD
BRANCH  11  15
HETATM   15  C   UNL     1      28.343  38.025  49.316  1.00  0.00     0.039 A 
HETATM   16  C   UNL     1      28.959  38.052  48.067  1.00  0.00     0.071 A 
HETATM   17  C   UNL     1      28.434  37.295  47.021  1.00  0.00     0.118 A 
HETATM   18  F   UNL     1      29.057  37.298  45.835  1.00  0.00    -0.206 F 
HETATM   19  C   UNL     1      27.291  36.522  47.189  1.00  0.00     0.042 A 
HETATM   20  C   UNL     1      26.658  36.508  48.427  1.00  0.00     0.005 A 
HETATM   21  C   UNL     1      27.183  37.255  49.486  1.00  0.00     0.030 A 
ENDBRANCH  11  15
ENDBRANCH   8   9
ENDBRANCH   4   8
BRANCH   1  22
HETATM   22  C   UNL     1      27.080  45.572  54.235  1.00  0.00     0.274 C 
BRANCH  22  23
HETATM   23  C   UNL     1      26.304  45.913  53.012  1.00  0.00    -0.015 A 
HETATM   24  C   UNL     1      25.244  45.201  52.482  1.00  0.00     0.097 A 
HETATM   25  N   UNL     1      24.816  45.836  51.345  1.00  0.00    -0.360 N 
HETATM   26  C   UNL     1      25.603  46.938  51.099  1.00  0.00     0.108 A 
HETATM   27  H   UNL     1      24.068  45.523  50.734  1.00  0.00     0.165 HD
HETATM   28  C   UNL     1      26.491  47.035  52.156  1.00  0.00     0.046 A 
BRANCH  26  29
HETATM   29  C   UNL     1      25.497  47.788  49.937  1.00  0.00     0.309 C 
HETATM   30  O   UNL     1      24.534  48.492  49.671  1.00  0.00    -0.258 OA
BRANCH  29  31
HETATM   31  O   UNL     1      26.644  47.709  49.207  1.00  0.00    -0.321 OA
HETATM   32  C   UNL     1      27.274  48.970  48.989  1.00  0.00     0.213 C 
ENDBRANCH  29  31
ENDBRANCH  26  29
ENDBRANCH  22  23
ENDBRANCH   1  22
TORSDOF 7
ENDMDL
MODEL 9
REMARK VINA RESULT:      -8.2      8.318     11.399
REMARK  7 active torsions:
REMARK  status: ('A' for Active; 'I' for Inactive)
REMARK    1  A    between atoms: O_2  and  C_3 
REMARK    2  A    between atoms: C_3  and  C_4 
REMARK    3  A    between atoms: C_8  and  C_9 
REMARK    4  A    between atoms: C_9  and  N_10 
REMARK    5  A    between atoms: C_13  and  C_14 
REMARK    6  A    between atoms: C_14  and  N_15 
REMARK       I    between atoms: N_15  and  C_16 
REMARK       I    between atoms: C_16  and  N_17 
REMARK    7  A    between atoms: N_17  and  C_18 
ROOT
HETATM    1  N   UNL     1      17.140  50.203  48.544  1.00  0.00    -0.067 N 
HETATM    2  H   UNL     1      17.502  49.674  49.366  1.00  0.00     0.280 HD
HETATM    3  C   UNL     1      18.336  50.500  47.678  1.00  0.00     0.241 C 
HETATM    4  C   UNL     1      19.311  51.478  48.345  1.00  0.00     0.029 C 
HETATM    5  C   UNL     1      18.560  52.756  48.743  1.00  0.00     0.009 C 
HETATM    6  C   UNL     1      17.354  52.450  49.629  1.00  0.00     0.028 C 
HETATM    7  C   UNL     1      16.413  51.440  48.994  1.00  0.00     0.235 C 
ENDROOT
BRANCH   4   8
HETATM    8  C   UNL     1      20.109  50.938  49.549  1.00  0.00     0.130 C 
BRANCH   8   9
HETATM    9  N   UNL     1      21.027  49.865  49.231  1.00  0.00    -0.342 N 
HETATM   10  C   UNL     1      22.367  50.007  49.546  1.00  0.00     0.320 C 
HETATM   11  N   UNL     1      23.111  48.977  49.027  1.00  0.00    -0.309 N 
HETATM   12  O   UNL     1      22.749  50.937  50.249  1.00  0.00    -0.247 OA
HETATM   13  H   UNL     1      22.589  48.190  48.666  1.00  0.00     0.170 HD
HETATM   14  H   UNL     1      20.846  49.368  48.366  1.00  0.00     0.164 HD
BRANCH  11  15
HETATM   15  C   UNL     1      24.512  48.823  49.062  1.00  0.00     0.039 A 
HETATM   16  C   UNL     1      25.156  47.745  49.664  1.00  0.00     0.071 A 
HETATM   17  C   UNL     1      26.547  47.668  49.637  1.00  0.00     0.118 A 
HETATM   18  F   UNL     1      27.154  46.608  50.186  1.00  0.00    -0.206 F 
HETATM   19  C   UNL     1      27.315  48.658  49.036  1.00  0.00     0.042 A 
HETATM   20  C   UNL     1      26.680  49.749  48.452  1.00  0.00     0.005 A 
HETATM   21  C   UNL     1      25.284  49.830  48.464  1.00  0.00     0.030 A 
ENDBRANCH  11  15
ENDBRANCH   8   9
ENDBRANCH   4   8
BRANCH   1  22
HETATM   22  C   UNL     1      16.164  49.249  47.873  1.00  0.00     0.274 C 
BRANCH  22  23
HETATM   23  C   UNL     1      16.592  47.824  47.870  1.00  0.00    -0.015 A 
HETATM   24  C   UNL     1      16.649  46.977  48.961  1.00  0.00     0.097 A 
HETATM   25  N   UNL     1      17.109  45.755  48.542  1.00  0.00    -0.360 N 
HETATM   26  C   UNL     1      17.389  45.796  47.196  1.00  0.00     0.108 A 
HETATM   27  H   UNL     1      17.276  44.948  49.134  1.00  0.00     0.165 HD
HETATM   28  C   UNL     1      17.017  47.053  46.751  1.00  0.00     0.046 A 
BRANCH  26  29
HETATM   29  C   UNL     1      17.977  44.716  46.439  1.00  0.00     0.309 C 
HETATM   30  O   UNL     1      17.704  44.446  45.279  1.00  0.00    -0.258 OA
BRANCH  29  31
HETATM   31  O   UNL     1      18.901  44.072  47.204  1.00  0.00    -0.321 OA
HETATM   32  C   UNL     1      20.210  44.635  47.120  1.00  0.00     0.213 C 
ENDBRANCH  29  31
ENDBRANCH  26  29
ENDBRANCH  22  23
ENDBRANCH   1  22
TORSDOF 7
ENDMDL
MODEL 10
REMARK VINA RESULT:      -8.1      3.373      6.853
REMARK  7 active torsions:
REMARK  status: ('A' for Active; 'I' for Inactive)
REMARK    1  A    between atoms: O_2  and  C_3 
REMARK    2  A    between atoms: C_3  and  C_4 
REMARK    3  A    between atoms: C_8  and  C_9 
REMARK    4  A    between atoms: C_9  and  N_10 
REMARK    5  A    between atoms: C_13  and  C_14 
REMARK    6  A    between atoms: C_14  and  N_15 
REMARK       I    between atoms: N_15  and  C_16 
REMARK       I    between atoms: C_16  and  N_17 
REMARK    7  A    between atoms: N_17  and  C_18 
ROOT
HETATM    1  N   UNL     1      24.726  43.340  49.448  1.00  0.00    -0.067 N 
HETATM    2  H   UNL     1      25.096  44.314  49.429  1.00  0.00     0.280 HD
HETATM    3  C   UNL     1      24.480  43.015  50.898  1.00  0.00     0.241 C 
HETATM    4  C   UNL     1      25.780  42.930  51.707  1.00  0.00     0.029 C 
HETATM    5  C   UNL     1      26.728  41.920  51.046  1.00  0.00     0.009 C 
HETATM    6  C   UNL     1      26.981  42.259  49.579  1.00  0.00     0.028 C 
HETATM    7  C   UNL     1      25.692  42.397  48.786  1.00  0.00     0.235 C 
ENDROOT
BRANCH   4   8
HETATM    8  C   UNL     1      26.519  44.260  51.959  1.00  0.00     0.130 C 
BRANCH   8   9
HETATM    9  N   UNL     1      27.866  44.115  52.467  1.00  0.00    -0.342 N 
HETATM   10  C   UNL     1      28.079  44.133  53.834  1.00  0.00     0.320 C 
HETATM   11  N   UNL     1      29.419  44.152  54.128  1.00  0.00    -0.309 N 
HETATM   12  O   UNL     1      27.133  44.083  54.615  1.00  0.00    -0.247 OA
HETATM   13  H   UNL     1      30.046  43.966  53.356  1.00  0.00     0.170 HD
HETATM   14  H   UNL     1      28.596  44.556  51.919  1.00  0.00     0.164 HD
BRANCH  11  15
HETATM   15  C   UNL     1      30.021  44.261  55.398  1.00  0.00     0.039 A 
HETATM   16  C   UNL     1      29.878  45.370  56.228  1.00  0.00     0.071 A 
HETATM   17  C   UNL     1      30.498  45.384  57.476  1.00  0.00     0.118 A 
HETATM   18  F   UNL     1      30.322  46.440  58.282  1.00  0.00    -0.206 F 
HETATM   19  C   UNL     1      31.279  44.319  57.908  1.00  0.00     0.042 A 
HETATM   20  C   UNL     1      31.446  43.218  57.075  1.00  0.00     0.005 A 
HETATM   21  C   UNL     1      30.818  43.189  55.826  1.00  0.00     0.030 A 
ENDBRANCH  11  15
ENDBRANCH   8   9
ENDBRANCH   4   8
BRANCH   1  22
HETATM   22  C   UNL     1      23.437  43.403  48.644  1.00  0.00     0.274 C 
BRANCH  22  23
HETATM   23  C   UNL     1      22.751  44.723  48.673  1.00  0.00    -0.015 A 
HETATM   24  C   UNL     1      21.388  44.944  48.739  1.00  0.00     0.097 A 
HETATM   25  N   UNL     1      21.164  46.296  48.729  1.00  0.00    -0.360 N 
HETATM   26  C   UNL     1      22.359  46.970  48.623  1.00  0.00     0.108 A 
HETATM   27  H   UNL     1      20.255  46.749  48.741  1.00  0.00     0.165 HD
HETATM   28  C   UNL     1      23.357  46.011  48.649  1.00  0.00     0.046 A 
BRANCH  26  29
HETATM   29  C   UNL     1      22.495  48.401  48.492  1.00  0.00     0.309 C 
HETATM   30  O   UNL     1      23.331  48.963  47.799  1.00  0.00    -0.258 OA
BRANCH  29  31
HETATM   31  O   UNL     1      21.533  49.021  49.230  1.00  0.00    -0.321 OA
HETATM   32  C   UNL     1      21.891  50.338  49.650  1.00  0.00     0.213 C 
ENDBRANCH  29  31
ENDBRANCH  26  29
ENDBRANCH  22  23
ENDBRANCH   1  22
TORSDOF 7
ENDMDL
