MODEL 1
REMARK VINA RESULT:      -9.4      0.000      0.000
REMARK  5 active torsions:
REMARK  status: ('A' for Active; 'I' for Inactive)
REMARK    1  A    between atoms: C_2  and  C_3 
REMARK       I    between atoms: C_3  and  N_4 
REMARK    2  A    between atoms: N_4  and  N_5 
REMARK       I    between atoms: N_5  and  C_6 
REMARK       I    between atoms: C_6  and  N_7 
REMARK    3  A    between atoms: N_7  and  C_8 
REMARK    4  A    between atoms: C_18  and  N_19 
REMARK       I    between atoms: N_19  and  C_20 
REMARK       I    between atoms: C_20  and  N_21 
REMARK    5  A    between atoms: N_21  and  C_22 
ROOT
HETATM    1  C   UNL     1      25.553  44.802  52.143  1.00  0.00     0.019 A 
HETATM    2  C   UNL     1      26.274  43.935  51.315  1.00  0.00     0.033 A 
HETATM    3  C   UNL     1      26.065  43.979  49.933  1.00  0.00     0.019 A 
HETATM    4  C   UNL     1      25.154  44.897  49.387  1.00  0.00     0.030 A 
HETATM    5  C   UNL     1      24.456  45.783  50.212  1.00  0.00     0.036 A 
HETATM    6  C   UNL     1      24.652  45.717  51.595  1.00  0.00     0.030 A 
ENDROOT
BRANCH   2   7
HETATM    7  C   UNL     1      27.288  43.051  51.952  1.00  0.00     0.270 C 
HETATM    8  N   UNL     1      27.334  43.029  53.337  1.00  0.00    -0.262 N 
HETATM    9  H   UNL     1      27.012  43.840  53.858  1.00  0.00     0.190 HD
HETATM   10  O   UNL     1      28.062  42.400  51.254  1.00  0.00    -0.266 OA
BRANCH   8  11
HETATM   11  N   UNL     1      28.436  42.350  53.886  1.00  0.00    -0.249 N 
HETATM   12  C   UNL     1      29.478  42.973  54.524  1.00  0.00     0.335 C 
HETATM   13  N   UNL     1      29.234  44.286  54.818  1.00  0.00    -0.337 N 
HETATM   14  O   UNL     1      30.508  42.365  54.769  1.00  0.00    -0.246 OA
HETATM   15  H   UNL     1      28.246  44.455  54.945  1.00  0.00     0.164 HD
HETATM   16  H   UNL     1      28.537  41.365  53.645  1.00  0.00     0.192 HD
BRANCH  13  17
HETATM   17  C   UNL     1      30.131  45.197  55.528  1.00  0.00     0.086 C 
HETATM   18  C   UNL     1      29.397  46.285  56.324  1.00  0.00     0.025 C 
HETATM   19  C   UNL     1      29.099  45.926  57.774  1.00  0.00     0.002 C 
HETATM   20  C   UNL     1      30.339  45.413  58.495  1.00  0.00     0.000 C 
HETATM   21  C   UNL     1      30.958  44.218  57.783  1.00  0.00     0.002 C 
HETATM   22  C   UNL     1      31.254  44.502  56.313  1.00  0.00     0.025 C 
ENDBRANCH  13  17
ENDBRANCH   8  11
ENDBRANCH   2   7
BRANCH   5  23
HETATM   23  N   UNL     1      23.618  46.809  49.736  1.00  0.00    -0.309 N 
HETATM   24  C   UNL     1      23.905  48.154  49.625  1.00  0.00     0.321 C 
HETATM   25  N   UNL     1      22.740  48.877  49.456  1.00  0.00    -0.338 N 
HETATM   26  O   UNL     1      25.013  48.663  49.711  1.00  0.00    -0.247 OA
HETATM   27  H   UNL     1      21.988  48.374  49.013  1.00  0.00     0.164 HD
HETATM   28  H   UNL     1      22.686  46.533  49.473  1.00  0.00     0.170 HD
BRANCH  25  29
HETATM   29  C   UNL     1      22.691  50.333  49.307  1.00  0.00     0.086 C 
HETATM   30  C   UNL     1      22.280  50.675  47.863  1.00  0.00     0.025 C 
HETATM   31  C   UNL     1      20.818  50.316  47.580  1.00  0.00     0.002 C 
HETATM   32  C   UNL     1      19.869  50.968  48.581  1.00  0.00     0.000 C 
HETATM   33  C   UNL     1      20.271  50.676  50.024  1.00  0.00     0.002 C 
HETATM   34  C   UNL     1      21.732  51.038  50.281  1.00  0.00     0.025 C 
ENDBRANCH  25  29
ENDBRANCH   5  23
TORSDOF 5
ENDMDL
MODEL 2
REMARK VINA RESULT:      -9.4      2.444     10.783
REMARK  5 active torsions:
REMARK  status: ('A' for Active; 'I' for Inactive)
REMARK    1  A    between atoms: C_2  and  C_3 
REMARK       I    between atoms: C_3  and  N_4 
REMARK    2  A    between atoms: N_4  and  N_5 
REMARK       I    between atoms: N_5  and  C_6 
REMARK       I    between atoms: C_6  and  N_7 
REMARK    3  A    between atoms: N_7  and  C_8 
REMARK    4  A    between atoms: C_18  and  N_19 
REMARK       I    between atoms: N_19  and  C_20 
REMARK       I    between atoms: C_20  and  N_21 
REMARK    5  A    between atoms: N_21  and  C_22 
ROOT
HETATM    1  C   UNL     1      25.925  48.555  49.222  1.00  0.00     0.019 A 
HETATM    2  C   UNL     1      24.554  48.424  48.979  1.00  0.00     0.033 A 
HETATM    3  C   UNL     1      23.938  47.186  49.190  1.00  0.00     0.019 A 
HETATM    4  C   UNL     1      24.690  46.096  49.658  1.00  0.00     0.030 A 
HETATM    5  C   UNL     1      26.053  46.236  49.929  1.00  0.00     0.036 A 
HETATM    6  C   UNL     1      26.668  47.471  49.693  1.00  0.00     0.030 A 
ENDROOT
BRANCH   2   7
HETATM    7  C   UNL     1      23.802  49.642  48.571  1.00  0.00     0.270 C 
HETATM    8  N   UNL     1      23.001  50.247  49.527  1.00  0.00    -0.262 N 
HETATM    9  H   UNL     1      22.628  49.688  50.289  1.00  0.00     0.190 HD
HETATM   10  O   UNL     1      23.883  50.057  47.417  1.00  0.00    -0.266 OA
BRANCH   8  11
HETATM   11  N   UNL     1      22.155  51.259  49.041  1.00  0.00    -0.249 N 
HETATM   12  C   UNL     1      20.789  51.234  49.157  1.00  0.00     0.335 C 
HETATM   13  N   UNL     1      20.329  50.275  50.016  1.00  0.00    -0.337 N 
HETATM   14  O   UNL     1      20.098  52.013  48.518  1.00  0.00    -0.246 OA
HETATM   15  H   UNL     1      21.011  50.069  50.733  1.00  0.00     0.164 HD
HETATM   16  H   UNL     1      22.575  51.957  48.428  1.00  0.00     0.192 HD
BRANCH  13  17
HETATM   17  C   UNL     1      18.933  50.032  50.378  1.00  0.00     0.086 C 
HETATM   18  C   UNL     1      17.927  50.716  49.442  1.00  0.00     0.025 C 
HETATM   19  C   UNL     1      17.460  49.861  48.271  1.00  0.00     0.002 C 
HETATM   20  C   UNL     1      16.989  48.486  48.727  1.00  0.00     0.000 C 
HETATM   21  C   UNL     1      18.066  47.747  49.510  1.00  0.00     0.002 C 
HETATM   22  C   UNL     1      18.601  48.564  50.684  1.00  0.00     0.025 C 
ENDBRANCH  13  17
ENDBRANCH   8  11
ENDBRANCH   2   7
BRANCH   5  23
HETATM   23  N   UNL     1      26.849  45.231  50.510  1.00  0.00    -0.309 N 
HETATM   24  C   UNL     1      26.536  44.414  51.578  1.00  0.00     0.321 C 
HETATM   25  N   UNL     1      27.680  43.813  52.067  1.00  0.00    -0.338 N 
HETATM   26  O   UNL     1      25.428  44.266  52.071  1.00  0.00    -0.247 OA
HETATM   27  H   UNL     1      28.414  43.679  51.391  1.00  0.00     0.164 HD
HETATM   28  H   UNL     1      27.768  45.112  50.118  1.00  0.00     0.170 HD
BRANCH  25  29
HETATM   29  C   UNL     1      27.699  42.886  53.202  1.00  0.00     0.086 C 
HETATM   30  C   UNL     1      28.873  41.906  53.027  1.00  0.00     0.025 C 
HETATM   31  C   UNL     1      30.230  42.594  53.207  1.00  0.00     0.002 C 
HETATM   32  C   UNL     1      30.326  43.322  54.545  1.00  0.00     0.000 C 
HETATM   33  C   UNL     1      29.155  44.276  54.763  1.00  0.00     0.002 C 
HETATM   34  C   UNL     1      27.815  43.568  54.575  1.00  0.00     0.025 C 
ENDBRANCH  25  29
ENDBRANCH   5  23
TORSDOF 5
ENDMDL
MODEL 3
REMARK VINA RESULT:      -9.3      5.485     13.615
REMARK  5 active torsions:
REMARK  status: ('A' for Active; 'I' for Inactive)
REMARK    1  A    between atoms: C_2  and  C_3 
REMARK       I    between atoms: C_3  and  N_4 
REMARK    2  A    between atoms: N_4  and  N_5 
REMARK       I    between atoms: N_5  and  C_6 
REMARK       I    between atoms: C_6  and  N_7 
REMARK    3  A    between atoms: N_7  and  C_8 
REMARK    4  A    between atoms: C_18  and  N_19 
REMARK       I    between atoms: N_19  and  C_20 
REMARK       I    between atoms: C_20  and  N_21 
REMARK    5  A    between atoms: N_21  and  C_22 
ROOT
HETATM    1  C   UNL     1      19.092  49.699  47.615  1.00  0.00     0.019 A 
HETATM    2  C   UNL     1      18.949  51.091  47.613  1.00  0.00     0.033 A 
HETATM    3  C   UNL     1      19.809  51.867  48.396  1.00  0.00     0.019 A 
HETATM    4  C   UNL     1      20.814  51.253  49.159  1.00  0.00     0.030 A 
HETATM    5  C   UNL     1      20.976  49.865  49.137  1.00  0.00     0.036 A 
HETATM    6  C   UNL     1      20.097  49.093  48.371  1.00  0.00     0.030 A 
ENDROOT
BRANCH   2   7
HETATM    7  C   UNL     1      17.921  51.680  46.712  1.00  0.00     0.270 C 
HETATM    8  N   UNL     1      16.985  52.530  47.282  1.00  0.00    -0.262 N 
HETATM    9  H   UNL     1      16.756  52.428  48.267  1.00  0.00     0.190 HD
HETATM   10  O   UNL     1      17.906  51.384  45.519  1.00  0.00    -0.266 OA
BRANCH   8  11
HETATM   11  N   UNL     1      15.918  52.890  46.441  1.00  0.00    -0.249 N 
HETATM   12  C   UNL     1      14.760  53.477  46.884  1.00  0.00     0.335 C 
HETATM   13  N   UNL     1      14.832  53.926  48.173  1.00  0.00    -0.337 N 
HETATM   14  O   UNL     1      13.784  53.552  46.153  1.00  0.00    -0.246 OA
HETATM   15  H   UNL     1      15.780  54.171  48.423  1.00  0.00     0.164 HD
HETATM   16  H   UNL     1      15.946  52.542  45.484  1.00  0.00     0.192 HD
BRANCH  13  17
HETATM   17  C   UNL     1      13.780  54.629  48.907  1.00  0.00     0.086 C 
HETATM   18  C   UNL     1      13.388  53.946  50.224  1.00  0.00     0.025 C 
HETATM   19  C   UNL     1      14.153  54.433  51.449  1.00  0.00     0.002 C 
HETATM   20  C   UNL     1      14.143  55.952  51.555  1.00  0.00     0.000 C 
HETATM   21  C   UNL     1      14.699  56.614  50.301  1.00  0.00     0.002 C 
HETATM   22  C   UNL     1      13.994  56.145  49.030  1.00  0.00     0.025 C 
ENDBRANCH  13  17
ENDBRANCH   8  11
ENDBRANCH   2   7
BRANCH   5  23
HETATM   23  N   UNL     1      22.028  49.184  49.777  1.00  0.00    -0.309 N 
HETATM   24  C   UNL     1      23.131  48.592  49.196  1.00  0.00     0.321 C 
HETATM   25  N   UNL     1      23.741  47.738  50.094  1.00  0.00    -0.338 N 
HETATM   26  O   UNL     1      23.506  48.744  48.043  1.00  0.00    -0.247 OA
HETATM   27  H   UNL     1      23.619  47.981  51.063  1.00  0.00     0.164 HD
HETATM   28  H   UNL     1      21.953  49.092  50.777  1.00  0.00     0.170 HD
BRANCH  25  29
HETATM   29  C   UNL     1      24.939  46.950  49.794  1.00  0.00     0.086 C 
HETATM   30  C   UNL     1      26.096  47.438  50.685  1.00  0.00     0.025 C 
HETATM   31  C   UNL     1      25.883  47.073  52.157  1.00  0.00     0.002 C 
HETATM   32  C   UNL     1      25.651  45.576  52.344  1.00  0.00     0.000 C 
HETATM   33  C   UNL     1      24.532  45.054  51.446  1.00  0.00     0.002 C 
HETATM   34  C   UNL     1      24.765  45.434  49.986  1.00  0.00     0.025 C 
ENDBRANCH  25  29
ENDBRANCH   5  23
TORSDOF 5
ENDMDL
MODEL 4
REMARK VINA RESULT:      -9.2      2.171      3.296
REMARK  5 active torsions:
REMARK  status: ('A' for Active; 'I' for Inactive)
REMARK    1  A    between atoms: C_2  and  C_3 
REMARK       I    between atoms: C_3  and  N_4 
REMARK    2  A    between atoms: N_4  and  N_5 
REMARK       I    between atoms: N_5  and  C_6 
REMARK       I    between atoms: C_6  and  N_7 
REMARK    3  A    between atoms: N_7  and  C_8 
REMARK    4  A    between atoms: C_18  and  N_19 
REMARK       I    between atoms: N_19  and  C_20 
REMARK       I    between atoms: C_20  and  N_21 
REMARK    5  A    between atoms: N_21  and  C_22 
ROOT
HETATM    1  C   UNL     1      24.147  45.050  49.155  1.00  0.00     0.019 A 
HETATM    2  C   UNL     1      25.427  45.366  49.624  1.00  0.00     0.033 A 
HETATM    3  C   UNL     1      25.706  46.680  50.013  1.00  0.00     0.019 A 
HETATM    4  C   UNL     1      24.705  47.661  49.948  1.00  0.00     0.030 A 
HETATM    5  C   UNL     1      23.419  47.338  49.507  1.00  0.00     0.036 A 
HETATM    6  C   UNL     1      23.153  46.027  49.097  1.00  0.00     0.030 A 
ENDROOT
BRANCH   2   7
HETATM    7  C   UNL     1      26.412  44.257  49.752  1.00  0.00     0.270 C 
HETATM    8  N   UNL     1      25.923  43.005  50.089  1.00  0.00    -0.262 N 
HETATM    9  H   UNL     1      25.054  42.935  50.612  1.00  0.00     0.190 HD
HETATM   10  O   UNL     1      27.610  44.477  49.589  1.00  0.00    -0.266 OA
BRANCH   8  11
HETATM   11  N   UNL     1      26.903  42.047  50.403  1.00  0.00    -0.249 N 
HETATM   12  C   UNL     1      27.516  41.954  51.626  1.00  0.00     0.335 C 
HETATM   13  N   UNL     1      26.911  42.697  52.601  1.00  0.00    -0.337 N 
HETATM   14  O   UNL     1      28.515  41.265  51.768  1.00  0.00    -0.246 OA
HETATM   15  H   UNL     1      25.924  42.809  52.416  1.00  0.00     0.164 HD
HETATM   16  H   UNL     1      27.289  41.511  49.627  1.00  0.00     0.192 HD
BRANCH  13  17
HETATM   17  C   UNL     1      27.304  42.768  54.008  1.00  0.00     0.086 C 
HETATM   18  C   UNL     1      28.811  42.583  54.235  1.00  0.00     0.025 C 
HETATM   19  C   UNL     1      29.617  43.876  54.254  1.00  0.00     0.002 C 
HETATM   20  C   UNL     1      29.009  44.908  55.194  1.00  0.00     0.000 C 
HETATM   21  C   UNL     1      27.558  45.210  54.846  1.00  0.00     0.002 C 
HETATM   22  C   UNL     1      26.698  43.950  54.780  1.00  0.00     0.025 C 
ENDBRANCH  13  17
ENDBRANCH   8  11
ENDBRANCH   2   7
BRANCH   5  23
HETATM   23  N   UNL     1      22.331  48.232  49.524  1.00  0.00    -0.309 N 
HETATM   24  C   UNL     1      21.713  48.833  48.446  1.00  0.00     0.321 C 
HETATM   25  N   UNL     1      20.935  49.892  48.874  1.00  0.00    -0.338 N 
HETATM   26  O   UNL     1      21.855  48.527  47.272  1.00  0.00    -0.247 OA
HETATM   27  H   UNL     1      20.581  49.807  49.813  1.00  0.00     0.164 HD
HETATM   28  H   UNL     1      21.981  48.486  50.432  1.00  0.00     0.170 HD
BRANCH  25  29
HETATM   29  C   UNL     1      20.146  50.744  47.982  1.00  0.00     0.086 C 
HETATM   30  C   UNL     1      18.881  49.979  47.550  1.00  0.00     0.025 C 
HETATM   31  C   UNL     1      17.894  49.796  48.707  1.00  0.00     0.002 C 
HETATM   32  C   UNL     1      17.527  51.128  49.356  1.00  0.00     0.000 C 
HETATM   33  C   UNL     1      18.762  51.926  49.765  1.00  0.00     0.002 C 
HETATM   34  C   UNL     1      19.731  52.091  48.596  1.00  0.00     0.025 C 
ENDBRANCH  25  29
ENDBRANCH   5  23
TORSDOF 5
ENDMDL
MODEL 5
REMARK VINA RESULT:      -9.1      2.463      3.351
REMARK  5 active torsions:
REMARK  status: ('A' for Active; 'I' for Inactive)
REMARK    1  A    between atoms: C_2  and  C_3 
REMARK       I    between atoms: C_3  and  N_4 
REMARK    2  A    between atoms: N_4  and  N_5 
REMARK       I    between atoms: N_5  and  C_6 
REMARK       I    between atoms: C_6  and  N_7 
REMARK    3  A    between atoms: N_7  and  C_8 
REMARK    4  A    between atoms: C_18  and  N_19 
REMARK       I    between atoms: N_19  and  C_20 
REMARK       I    between atoms: C_20  and  N_21 
REMARK    5  A    between atoms: N_21  and  C_22 
ROOT
HETATM    1  C   UNL     1      25.140  44.352  50.258  1.00  0.00     0.019 A 
HETATM    2  C   UNL     1      25.079  43.398  49.237  1.00  0.00     0.033 A 
HETATM    3  C   UNL     1      24.121  43.538  48.227  1.00  0.00     0.019 A 
HETATM    4  C   UNL     1      23.246  44.636  48.234  1.00  0.00     0.030 A 
HETATM    5  C   UNL     1      23.328  45.604  49.238  1.00  0.00     0.036 A 
HETATM    6  C   UNL     1      24.272  45.445  50.258  1.00  0.00     0.030 A 
ENDROOT
BRANCH   2   7
HETATM    7  C   UNL     1      26.095  42.310  49.243  1.00  0.00     0.270 C 
HETATM    8  N   UNL     1      25.708  41.079  49.749  1.00  0.00    -0.262 N 
HETATM    9  H   UNL     1      24.957  41.036  50.433  1.00  0.00     0.190 HD
HETATM   10  O   UNL     1      27.234  42.530  48.838  1.00  0.00    -0.266 OA
BRANCH   8  11
HETATM   11  N   UNL     1      26.751  40.154  49.929  1.00  0.00    -0.249 N 
HETATM   12  C   UNL     1      27.657  40.215  50.956  1.00  0.00     0.335 C 
HETATM   13  N   UNL     1      27.308  41.093  51.944  1.00  0.00    -0.337 N 
HETATM   14  O   UNL     1      28.671  39.533  50.931  1.00  0.00    -0.246 OA
HETATM   15  H   UNL     1      26.305  41.198  52.003  1.00  0.00     0.164 HD
HETATM   16  H   UNL     1      26.935  39.511  49.161  1.00  0.00     0.192 HD
BRANCH  13  17
HETATM   17  C   UNL     1      28.046  41.346  53.181  1.00  0.00     0.086 C 
HETATM   18  C   UNL     1      29.519  41.714  52.954  1.00  0.00     0.025 C 
HETATM   19  C   UNL     1      29.795  43.208  52.838  1.00  0.00     0.002 C 
HETATM   20  C   UNL     1      29.170  43.989  53.985  1.00  0.00     0.000 C 
HETATM   21  C   UNL     1      27.670  43.747  54.089  1.00  0.00     0.002 C 
HETATM   22  C   UNL     1      27.322  42.263  54.179  1.00  0.00     0.025 C 
ENDBRANCH  13  17
ENDBRANCH   8  11
ENDBRANCH   2   7
BRANCH   5  23
HETATM   23  N   UNL     1      22.571  46.791  49.252  1.00  0.00    -0.309 N 
HETATM   24  C   UNL     1      23.032  48.090  49.192  1.00  0.00     0.321 C 
HETATM   25  N   UNL     1      22.036  48.966  49.579  1.00  0.00    -0.338 N 
HETATM   26  O   UNL     1      24.164  48.440  48.894  1.00  0.00    -0.247 OA
HETATM   27  H   UNL     1      21.097  48.644  49.413  1.00  0.00     0.164 HD
HETATM   28  H   UNL     1      21.575  46.680  49.346  1.00  0.00     0.170 HD
BRANCH  25  29
HETATM   29  C   UNL     1      22.197  50.422  49.630  1.00  0.00     0.086 C 
HETATM   30  C   UNL     1      22.010  50.996  48.214  1.00  0.00     0.025 C 
HETATM   31  C   UNL     1      20.558  50.892  47.737  1.00  0.00     0.002 C 
HETATM   32  C   UNL     1      19.589  51.545  48.719  1.00  0.00     0.000 C 
HETATM   33  C   UNL     1      19.774  51.022  50.140  1.00  0.00     0.002 C 
HETATM   34  C   UNL     1      21.229  51.132  50.591  1.00  0.00     0.025 C 
ENDBRANCH  25  29
ENDBRANCH   5  23
TORSDOF 5
ENDMDL
MODEL 6
REMARK VINA RESULT:      -8.8      3.053     10.950
REMARK  5 active torsions:
REMARK  status: ('A' for Active; 'I' for Inactive)
REMARK    1  A    between atoms: C_2  and  C_3 
REMARK       I    between atoms: C_3  and  N_4 
REMARK    2  A    between atoms: N_4  and  N_5 
REMARK       I    between atoms: N_5  and  C_6 
REMARK       I    between atoms: C_6  and  N_7 
REMARK    3  A    between atoms: N_7  and  C_8 
REMARK    4  A    between atoms: C_18  and  N_19 
REMARK       I    between atoms: N_19  and  C_20 
REMARK       I    between atoms: C_20  and  N_21 
REMARK    5  A    between atoms: N_21  and  C_22 
ROOT
HETATM    1  C   UNL     1      23.226  46.888  49.158  1.00  0.00     0.019 A 
HETATM    2  C   UNL     1      22.715  45.979  48.225  1.00  0.00     0.033 A 
HETATM    3  C   UNL     1      23.282  44.704  48.132  1.00  0.00     0.019 A 
HETATM    4  C   UNL     1      24.338  44.340  48.982  1.00  0.00     0.030 A 
HETATM    5  C   UNL     1      24.827  45.237  49.934  1.00  0.00     0.036 A 
HETATM    6  C   UNL     1      24.272  46.519  50.005  1.00  0.00     0.030 A 
ENDROOT
BRANCH   2   7
HETATM    7  C   UNL     1      21.537  46.402  47.419  1.00  0.00     0.270 C 
HETATM    8  N   UNL     1      20.301  46.395  48.046  1.00  0.00    -0.262 N 
HETATM    9  H   UNL     1      20.144  45.767  48.830  1.00  0.00     0.190 HD
HETATM   10  O   UNL     1      21.678  46.710  46.238  1.00  0.00    -0.266 OA
BRANCH   8  11
HETATM   11  N   UNL     1      19.200  46.595  47.195  1.00  0.00    -0.249 N 
HETATM   12  C   UNL     1      18.257  47.572  47.382  1.00  0.00     0.335 C 
HETATM   13  N   UNL     1      18.614  48.507  48.314  1.00  0.00    -0.337 N 
HETATM   14  O   UNL     1      17.208  47.552  46.755  1.00  0.00    -0.246 OA
HETATM   15  H   UNL     1      19.618  48.604  48.369  1.00  0.00     0.164 HD
HETATM   16  H   UNL     1      19.011  45.868  46.505  1.00  0.00     0.192 HD
BRANCH  13  17
HETATM   17  C   UNL     1      17.841  49.687  48.699  1.00  0.00     0.086 C 
HETATM   18  C   UNL     1      18.336  50.352  49.991  1.00  0.00     0.025 C 
HETATM   19  C   UNL     1      19.362  51.460  49.787  1.00  0.00     0.002 C 
HETATM   20  C   UNL     1      18.899  52.475  48.750  1.00  0.00     0.000 C 
HETATM   21  C   UNL     1      18.575  51.818  47.415  1.00  0.00     0.002 C 
HETATM   22  C   UNL     1      17.572  50.675  47.553  1.00  0.00     0.025 C 
ENDBRANCH  13  17
ENDBRANCH   8  11
ENDBRANCH   2   7
BRANCH   5  23
HETATM   23  N   UNL     1      25.799  44.911  50.899  1.00  0.00    -0.309 N 
HETATM   24  C   UNL     1      25.600  44.366  52.151  1.00  0.00     0.321 C 
HETATM   25  N   UNL     1      26.737  44.518  52.922  1.00  0.00    -0.338 N 
HETATM   26  O   UNL     1      24.565  43.865  52.562  1.00  0.00    -0.247 OA
HETATM   27  H   UNL     1      27.600  44.559  52.404  1.00  0.00     0.164 HD
HETATM   28  H   UNL     1      26.752  45.128  50.658  1.00  0.00     0.170 HD
BRANCH  25  29
HETATM   29  C   UNL     1      26.860  44.051  54.305  1.00  0.00     0.086 C 
HETATM   30  C   UNL     1      27.549  42.673  54.308  1.00  0.00     0.025 C 
HETATM   31  C   UNL     1      29.026  42.767  53.913  1.00  0.00     0.002 C 
HETATM   32  C   UNL     1      29.788  43.756  54.790  1.00  0.00     0.000 C 
HETATM   33  C   UNL     1      29.110  45.122  54.835  1.00  0.00     0.002 C 
HETATM   34  C   UNL     1      27.639  45.003  55.228  1.00  0.00     0.025 C 
ENDBRANCH  25  29
ENDBRANCH   5  23
TORSDOF 5
ENDMDL
MODEL 7
REMARK VINA RESULT:      -8.8      3.957     10.891
REMARK  5 active torsions:
REMARK  status: ('A' for Active; 'I' for Inactive)
REMARK    1  A    between atoms: C_2  and  C_3 
REMARK       I    between atoms: C_3  and  N_4 
REMARK    2  A    between atoms: N_4  and  N_5 
REMARK       I    between atoms: N_5  and  C_6 
REMARK       I    between atoms: C_6  and  N_7 
REMARK    3  A    between atoms: N_7  and  C_8 
REMARK    4  A    between atoms: C_18  and  N_19 
REMARK       I    between atoms: N_19  and  C_20 
REMARK       I    between atoms: C_20  and  N_21 
REMARK    5  A    between atoms: N_21  and  C_22 
ROOT
HETATM    1  C   UNL     1      24.623  44.621  49.626  1.00  0.00     0.019 A 
HETATM    2  C   UNL     1      24.861  45.414  50.754  1.00  0.00     0.033 A 
HETATM    3  C   UNL     1      25.333  44.812  51.924  1.00  0.00     0.019 A 
HETATM    4  C   UNL     1      25.581  43.431  51.955  1.00  0.00     0.030 A 
HETATM    5  C   UNL     1      25.372  42.645  50.820  1.00  0.00     0.036 A 
HETATM    6  C   UNL     1      24.876  43.249  49.659  1.00  0.00     0.030 A 
ENDROOT
BRANCH   2   7
HETATM    7  C   UNL     1      24.662  46.884  50.622  1.00  0.00     0.270 C 
HETATM    8  N   UNL     1      23.514  47.317  49.977  1.00  0.00    -0.262 N 
HETATM    9  H   UNL     1      23.071  46.711  49.291  1.00  0.00     0.190 HD
HETATM   10  O   UNL     1      25.513  47.661  51.051  1.00  0.00    -0.266 OA
BRANCH   8  11
HETATM   11  N   UNL     1      23.474  48.693  49.692  1.00  0.00    -0.249 N 
HETATM   12  C   UNL     1      22.333  49.368  49.346  1.00  0.00     0.335 C 
HETATM   13  N   UNL     1      21.187  48.653  49.556  1.00  0.00    -0.337 N 
HETATM   14  O   UNL     1      22.395  50.498  48.885  1.00  0.00    -0.246 OA
HETATM   15  H   UNL     1      21.304  47.988  50.309  1.00  0.00     0.164 HD
HETATM   16  H   UNL     1      24.369  49.166  49.576  1.00  0.00     0.192 HD
BRANCH  13  17
HETATM   17  C   UNL     1      19.819  49.117  49.326  1.00  0.00     0.086 C 
HETATM   18  C   UNL     1      19.359  50.192  50.319  1.00  0.00     0.025 C 
HETATM   19  C   UNL     1      19.603  51.626  49.867  1.00  0.00     0.002 C 
HETATM   20  C   UNL     1      19.078  51.872  48.459  1.00  0.00     0.000 C 
HETATM   21  C   UNL     1      19.679  50.903  47.450  1.00  0.00     0.002 C 
HETATM   22  C   UNL     1      19.496  49.443  47.860  1.00  0.00     0.025 C 
ENDBRANCH  13  17
ENDBRANCH   8  11
ENDBRANCH   2   7
BRANCH   5  23
HETATM   23  N   UNL     1      25.707  41.281  50.732  1.00  0.00    -0.309 N 
HETATM   24  C   UNL     1      26.954  40.726  50.527  1.00  0.00     0.321 C 
HETATM   25  N   UNL     1      26.830  39.401  50.157  1.00  0.00    -0.338 N 
HETATM   26  O   UNL     1      28.024  41.311  50.605  1.00  0.00    -0.247 OA
HETATM   27  H   UNL     1      26.005  38.938  50.501  1.00  0.00     0.164 HD
HETATM   28  H   UNL     1      24.941  40.632  50.799  1.00  0.00     0.170 HD
BRANCH  25  29
HETATM   29  C   UNL     1      27.964  38.521  49.862  1.00  0.00     0.086 C 
HETATM   30  C   UNL     1      27.473  37.062  49.846  1.00  0.00     0.025 C 
HETATM   31  C   UNL     1      26.573  36.770  48.642  1.00  0.00     0.002 C 
HETATM   32  C   UNL     1      27.254  37.127  47.323  1.00  0.00     0.000 C 
HETATM   33  C   UNL     1      27.782  38.559  47.321  1.00  0.00     0.002 C 
HETATM   34  C   UNL     1      28.673  38.826  48.532  1.00  0.00     0.025 C 
ENDBRANCH  25  29
ENDBRANCH   5  23
TORSDOF 5
ENDMDL
MODEL 8
REMARK VINA RESULT:      -8.8      3.167     11.370
REMARK  5 active torsions:
REMARK  status: ('A' for Active; 'I' for Inactive)
REMARK    1  A    between atoms: C_2  and  C_3 
REMARK       I    between atoms: C_3  and  N_4 
REMARK    2  A    between atoms: N_4  and  N_5 
REMARK       I    between atoms: N_5  and  C_6 
REMARK       I    between atoms: C_6  and  N_7 
REMARK    3  A    between atoms: N_7  and  C_8 
REMARK    4  A    between atoms: C_18  and  N_19 
REMARK       I    between atoms: N_19  and  C_20 
REMARK       I    between atoms: C_20  and  N_21 
REMARK    5  A    between atoms: N_21  and  C_22 
ROOT
HETATM    1  C   UNL     1      24.516  47.776  49.901  1.00  0.00     0.019 A 
HETATM    2  C   UNL     1      23.426  47.390  49.114  1.00  0.00     0.033 A 
HETATM    3  C   UNL     1      23.261  46.040  48.790  1.00  0.00     0.019 A 
HETATM    4  C   UNL     1      24.172  45.085  49.268  1.00  0.00     0.030 A 
HETATM    5  C   UNL     1      25.243  45.467  50.080  1.00  0.00     0.036 A 
HETATM    6  C   UNL     1      25.416  46.823  50.379  1.00  0.00     0.030 A 
ENDROOT
BRANCH   2   7
HETATM    7  C   UNL     1      22.450  48.442  48.717  1.00  0.00     0.270 C 
HETATM    8  N   UNL     1      21.314  48.585  49.498  1.00  0.00    -0.262 N 
HETATM    9  H   UNL     1      20.969  47.787  50.024  1.00  0.00     0.190 HD
HETATM   10  O   UNL     1      22.653  49.123  47.714  1.00  0.00    -0.266 OA
BRANCH   8  11
HETATM   11  N   UNL     1      20.330  49.438  48.968  1.00  0.00    -0.249 N 
HETATM   12  C   UNL     1      19.164  48.998  48.397  1.00  0.00     0.335 C 
HETATM   13  N   UNL     1      18.910  47.674  48.621  1.00  0.00    -0.337 N 
HETATM   14  O   UNL     1      18.463  49.761  47.749  1.00  0.00    -0.246 OA
HETATM   15  H   UNL     1      19.325  47.363  49.489  1.00  0.00     0.164 HD
HETATM   16  H   UNL     1      20.582  50.419  48.855  1.00  0.00     0.192 HD
BRANCH  13  17
HETATM   17  C   UNL     1      17.730  46.929  48.180  1.00  0.00     0.086 C 
HETATM   18  C   UNL     1      16.429  47.384  48.854  1.00  0.00     0.025 C 
HETATM   19  C   UNL     1      15.661  48.462  48.099  1.00  0.00     0.002 C 
HETATM   20  C   UNL     1      15.461  48.093  46.635  1.00  0.00     0.000 C 
HETATM   21  C   UNL     1      16.782  47.811  45.933  1.00  0.00     0.002 C 
HETATM   22  C   UNL     1      17.618  46.758  46.657  1.00  0.00     0.025 C 
ENDBRANCH  13  17
ENDBRANCH   8  11
ENDBRANCH   2   7
BRANCH   5  23
HETATM   23  N   UNL     1      26.129  44.562  50.695  1.00  0.00    -0.309 N 
HETATM   24  C   UNL     1      25.996  43.949  51.924  1.00  0.00     0.321 C 
HETATM   25  N   UNL     1      27.207  43.420  52.325  1.00  0.00    -0.338 N 
HETATM   26  O   UNL     1      24.980  43.910  52.602  1.00  0.00    -0.247 OA
HETATM   27  H   UNL     1      27.826  43.157  51.576  1.00  0.00     0.164 HD
HETATM   28  H   UNL     1      26.976  44.360  50.190  1.00  0.00     0.170 HD
BRANCH  25  29
HETATM   29  C   UNL     1      27.413  42.703  53.586  1.00  0.00     0.086 C 
HETATM   30  C   UNL     1      28.531  41.663  53.394  1.00  0.00     0.025 C 
HETATM   31  C   UNL     1      29.904  42.318  53.218  1.00  0.00     0.002 C 
HETATM   32  C   UNL     1      30.235  43.262  54.371  1.00  0.00     0.000 C 
HETATM   33  C   UNL     1      29.128  44.285  54.610  1.00  0.00     0.002 C 
HETATM   34  C   UNL     1      27.769  43.608  54.778  1.00  0.00     0.025 C 
ENDBRANCH  25  29
ENDBRANCH   5  23
TORSDOF 5
ENDMDL
MODEL 9
REMARK VINA RESULT:      -8.8     13.009     16.319
REMARK  5 active torsions:
REMARK  status: ('A' for Active; 'I' for Inactive)
REMARK    1  A    between atoms: C_2  and  C_3 
REMARK       I    between atoms: C_3  and  N_4 
REMARK    2  A    between atoms: N_4  and  N_5 
REMARK       I    between atoms: N_5  and  C_6 
REMARK       I    between atoms: C_6  and  N_7 
REMARK    3  A    between atoms: N_7  and  C_8 
REMARK    4  A    between atoms: C_18  and  N_19 
REMARK       I    between atoms: N_19  and  C_20 
REMARK       I    between atoms: C_20  and  N_21 
REMARK    5  A    between atoms: N_21  and  C_22 
ROOT
HETATM    1  C   UNL     1      32.489  50.725  42.692  1.00  0.00     0.019 A 
HETATM    2  C   UNL     1      32.972  49.871  41.695  1.00  0.00     0.033 A 
HETATM    3  C   UNL     1      34.349  49.807  41.459  1.00  0.00     0.019 A 
HETATM    4  C   UNL     1      35.233  50.578  42.229  1.00  0.00     0.030 A 
HETATM    5  C   UNL     1      34.752  51.408  43.245  1.00  0.00     0.036 A 
HETATM    6  C   UNL     1      33.372  51.487  43.460  1.00  0.00     0.030 A 
ENDROOT
BRANCH   2   7
HETATM    7  C   UNL     1      31.987  49.016  40.978  1.00  0.00     0.270 C 
HETATM    8  N   UNL     1      32.126  48.897  39.604  1.00  0.00    -0.262 N 
HETATM    9  H   UNL     1      32.579  49.643  39.084  1.00  0.00     0.190 HD
HETATM   10  O   UNL     1      31.076  48.473  41.600  1.00  0.00    -0.266 OA
BRANCH   8  11
HETATM   11  N   UNL     1      31.058  48.257  38.950  1.00  0.00    -0.249 N 
HETATM   12  C   UNL     1      29.805  48.798  38.826  1.00  0.00     0.335 C 
HETATM   13  N   UNL     1      29.744  50.123  39.158  1.00  0.00    -0.337 N 
HETATM   14  O   UNL     1      28.864  48.108  38.461  1.00  0.00    -0.246 OA
HETATM   15  H   UNL     1      30.630  50.582  38.996  1.00  0.00     0.164 HD
HETATM   16  H   UNL     1      31.186  47.276  38.709  1.00  0.00     0.192 HD
BRANCH  13  17
HETATM   17  C   UNL     1      28.562  50.982  39.087  1.00  0.00     0.086 C 
HETATM   18  C   UNL     1      27.469  50.608  40.096  1.00  0.00     0.025 C 
HETATM   19  C   UNL     1      27.551  51.340  41.430  1.00  0.00     0.002 C 
HETATM   20  C   UNL     1      27.679  52.846  41.241  1.00  0.00     0.000 C 
HETATM   21  C   UNL     1      28.876  53.212  40.375  1.00  0.00     0.002 C 
HETATM   22  C   UNL     1      28.871  52.486  39.031  1.00  0.00     0.025 C 
ENDBRANCH  13  17
ENDBRANCH   8  11
ENDBRANCH   2   7
BRANCH   5  23
HETATM   23  N   UNL     1      35.576  52.121  44.137  1.00  0.00    -0.309 N 
HETATM   24  C   UNL     1      36.556  53.043  43.831  1.00  0.00     0.321 C 
HETATM   25  N   UNL     1      37.367  53.256  44.929  1.00  0.00    -0.338 N 
HETATM   26  O   UNL     1      36.735  53.570  42.743  1.00  0.00    -0.247 OA
HETATM   27  H   UNL     1      36.924  53.109  45.821  1.00  0.00     0.164 HD
HETATM   28  H   UNL     1      35.455  51.912  45.114  1.00  0.00     0.170 HD
BRANCH  25  29
HETATM   29  C   UNL     1      38.507  54.176  44.942  1.00  0.00     0.086 C 
HETATM   30  C   UNL     1      38.344  55.159  46.115  1.00  0.00     0.025 C 
HETATM   31  C   UNL     1      38.525  54.472  47.472  1.00  0.00     0.002 C 
HETATM   32  C   UNL     1      39.859  53.737  47.563  1.00  0.00     0.000 C 
HETATM   33  C   UNL     1      40.066  52.779  46.393  1.00  0.00     0.002 C 
HETATM   34  C   UNL     1      39.877  53.486  45.053  1.00  0.00     0.025 C 
ENDBRANCH  25  29
ENDBRANCH   5  23
TORSDOF 5
ENDMDL
MODEL 10
REMARK VINA RESULT:      -8.5      4.354      8.236
REMARK  5 active torsions:
REMARK  status: ('A' for Active; 'I' for Inactive)
REMARK    1  A    between atoms: C_2  and  C_3 
REMARK       I    between atoms: C_3  and  N_4 
REMARK    2  A    between atoms: N_4  and  N_5 
REMARK       I    between atoms: N_5  and  C_6 
REMARK       I    between atoms: C_6  and  N_7 
REMARK    3  A    between atoms: N_7  and  C_8 
REMARK    4  A    between atoms: C_18  and  N_19 
REMARK       I    between atoms: N_19  and  C_20 
REMARK       I    between atoms: C_20  and  N_21 
REMARK    5  A    between atoms: N_21  and  C_22 
ROOT
HETATM    1  C   UNL     1      21.107  51.149  48.375  1.00  0.00     0.019 A 
HETATM    2  C   UNL     1      21.274  49.925  49.030  1.00  0.00     0.033 A 
HETATM    3  C   UNL     1      20.357  49.547  50.016  1.00  0.00     0.019 A 
HETATM    4  C   UNL     1      19.274  50.383  50.328  1.00  0.00     0.030 A 
HETATM    5  C   UNL     1      19.090  51.591  49.652  1.00  0.00     0.036 A 
HETATM    6  C   UNL     1      20.024  51.975  48.684  1.00  0.00     0.030 A 
ENDROOT
BRANCH   2   7
HETATM    7  C   UNL     1      22.393  49.049  48.586  1.00  0.00     0.270 C 
HETATM    8  N   UNL     1      23.230  48.539  49.566  1.00  0.00    -0.262 N 
HETATM    9  H   UNL     1      23.337  49.044  50.441  1.00  0.00     0.190 HD
HETATM   10  O   UNL     1      22.564  48.828  47.389  1.00  0.00    -0.266 OA
BRANCH   8  11
HETATM   11  N   UNL     1      24.386  47.897  49.087  1.00  0.00    -0.249 N 
HETATM   12  C   UNL     1      24.923  46.769  49.652  1.00  0.00     0.335 C 
HETATM   13  N   UNL     1      24.098  46.164  50.558  1.00  0.00    -0.337 N 
HETATM   14  O   UNL     1      26.045  46.395  49.344  1.00  0.00    -0.246 OA
HETATM   15  H   UNL     1      23.127  46.340  50.344  1.00  0.00     0.164 HD
HETATM   16  H   UNL     1      24.937  48.398  48.391  1.00  0.00     0.192 HD
BRANCH  13  17
HETATM   17  C   UNL     1      24.372  44.927  51.290  1.00  0.00     0.086 C 
HETATM   18  C   UNL     1      24.485  43.691  50.388  1.00  0.00     0.025 C 
HETATM   19  C   UNL     1      25.899  43.372  49.916  1.00  0.00     0.002 C 
HETATM   20  C   UNL     1      26.888  43.340  51.074  1.00  0.00     0.000 C 
HETATM   21  C   UNL     1      26.887  44.645  51.858  1.00  0.00     0.002 C 
HETATM   22  C   UNL     1      25.492  45.041  52.336  1.00  0.00     0.025 C 
ENDBRANCH  13  17
ENDBRANCH   8  11
ENDBRANCH   2   7
BRANCH   5  23
HETATM   23  N   UNL     1      17.970  52.427  49.821  1.00  0.00    -0.309 N 
HETATM   24  C   UNL     1      16.663  52.174  49.458  1.00  0.00     0.321 C 
HETATM   25  N   UNL     1      15.933  53.347  49.463  1.00  0.00    -0.338 N 
HETATM   26  O   UNL     1      16.204  51.092  49.125  1.00  0.00    -0.247 OA
HETATM   27  H   UNL     1      16.263  54.052  50.102  1.00  0.00     0.164 HD
HETATM   28  H   UNL     1      18.148  53.329  50.229  1.00  0.00     0.170 HD
BRANCH  25  29
HETATM   29  C   UNL     1      14.510  53.430  49.123  1.00  0.00     0.086 C 
HETATM   30  C   UNL     1      13.685  53.440  50.423  1.00  0.00     0.025 C 
HETATM   31  C   UNL     1      13.861  54.744  51.207  1.00  0.00     0.002 C 
HETATM   32  C   UNL     1      13.542  55.968  50.355  1.00  0.00     0.000 C 
HETATM   33  C   UNL     1      14.320  55.969  49.042  1.00  0.00     0.002 C 
HETATM   34  C   UNL     1      14.131  54.660  48.280  1.00  0.00     0.025 C 
ENDBRANCH  25  29
ENDBRANCH   5  23
TORSDOF 5
ENDMDL
