MODEL 1
REMARK VINA RESULT:      -7.7      0.000      0.000
REMARK  3 active torsions:
REMARK  status: ('A' for Active; 'I' for Inactive)
REMARK    1  A    between atoms: C_5  and  C_6 
REMARK    2  A    between atoms: C_10  and  N_11 
REMARK    3  A    between atoms: C_18  and  C_19 
ROOT
HETATM    1  C   UNL     1      29.689  48.686  41.127  1.00  0.00     0.106 A 
HETATM    2  C   UNL     1      31.137  48.557  41.612  1.00  0.00     0.081 A 
HETATM    3  C   UNL     1      31.560  49.484  42.610  1.00  0.00     0.100 C 
HETATM    4  N   UNL     1      31.903  50.236  43.425  1.00  0.00    -0.191 NA
HETATM    5  C   UNL     1      31.984  47.589  41.167  1.00  0.00     0.140 A 
HETATM    6  O   UNL     1      31.583  46.629  40.222  1.00  0.00    -0.279 OA
HETATM    7  C   UNL     1      30.309  46.662  39.851  1.00  0.00     0.175 A 
HETATM    8  C   UNL     1      29.338  47.562  40.214  1.00  0.00     0.040 A 
HETATM    9  N   UNL     1      29.730  45.768  39.017  1.00  0.00    -0.256 N 
HETATM   10  H   UNL     1      30.154  44.969  38.559  1.00  0.00     0.191 HD
HETATM   11  N   UNL     1      28.425  46.017  38.813  1.00  0.00    -0.172 NA
HETATM   12  C   UNL     1      28.155  47.105  39.565  1.00  0.00     0.099 A 
ENDROOT
BRANCH   1  13
HETATM   13  C   UNL     1      29.458  49.985  40.363  1.00  0.00    -0.044 A 
HETATM   14  C   UNL     1      28.525  50.954  40.773  1.00  0.00     0.009 A 
HETATM   15  C   UNL     1      28.291  52.096  40.003  1.00  0.00     0.007 A 
HETATM   16  C   UNL     1      28.975  52.296  38.800  1.00  0.00    -0.062 A 
HETATM   17  C   UNL     1      28.677  53.494  37.948  1.00  0.00     0.048 C 
HETATM   18  C   UNL     1      29.888  51.328  38.372  1.00  0.00     0.007 A 
HETATM   19  C   UNL     1      30.131  50.189  39.146  1.00  0.00     0.009 A 
ENDBRANCH   1  13
BRANCH   5  20
HETATM   20  N   UNL     1      33.291  47.424  41.568  1.00  0.00    -0.282 NA
HETATM   21  H   UNL     1      33.992  47.825  40.951  1.00  0.00     0.126 HD
HETATM   22  H   UNL     1      33.493  46.461  41.827  1.00  0.00     0.126 HD
ENDBRANCH   5  20
BRANCH  12  23
HETATM   23  C   UNL     1      26.794  47.646  39.612  1.00  0.00    -0.005 A 
HETATM   24  C   UNL     1      25.829  47.125  40.482  1.00  0.00     0.014 A 
HETATM   25  C   UNL     1      24.532  47.647  40.499  1.00  0.00     0.001 A 
HETATM   26  C   UNL     1      24.185  48.689  39.640  1.00  0.00     0.000 A 
HETATM   27  C   UNL     1      25.133  49.208  38.761  1.00  0.00     0.001 A 
HETATM   28  C   UNL     1      26.429  48.688  38.747  1.00  0.00     0.014 A 
ENDBRANCH  12  23
TORSDOF 3
ENDMDL
MODEL 2
REMARK VINA RESULT:      -7.7     10.700     12.560
REMARK  3 active torsions:
REMARK  status: ('A' for Active; 'I' for Inactive)
REMARK    1  A    between atoms: C_5  and  C_6 
REMARK    2  A    between atoms: C_10  and  N_11 
REMARK    3  A    between atoms: C_18  and  C_19 
ROOT
HETATM    1  C   UNL     1      25.874  45.756  49.573  1.00  0.00     0.106 A 
HETATM    2  C   UNL     1      25.702  47.277  49.498  1.00  0.00     0.081 A 
HETATM    3  C   UNL     1      26.897  48.048  49.389  1.00  0.00     0.100 C 
HETATM    4  N   UNL     1      27.869  48.677  49.296  1.00  0.00    -0.191 NA
HETATM    5  C   UNL     1      24.485  47.886  49.486  1.00  0.00     0.140 A 
HETATM    6  O   UNL     1      23.288  47.153  49.540  1.00  0.00    -0.279 OA
HETATM    7  C   UNL     1      23.404  45.831  49.516  1.00  0.00     0.175 A 
HETATM    8  C   UNL     1      24.549  45.075  49.519  1.00  0.00     0.040 A 
HETATM    9  N   UNL     1      22.360  44.971  49.479  1.00  0.00    -0.256 N 
HETATM   10  H   UNL     1      21.370  45.183  49.468  1.00  0.00     0.191 HD
HETATM   11  N   UNL     1      22.748  43.684  49.446  1.00  0.00    -0.172 NA
HETATM   12  C   UNL     1      24.098  43.726  49.442  1.00  0.00     0.099 A 
ENDROOT
BRANCH   1  13
HETATM   13  C   UNL     1      26.559  45.324  50.864  1.00  0.00    -0.044 A 
HETATM   14  C   UNL     1      27.614  44.395  50.892  1.00  0.00     0.009 A 
HETATM   15  C   UNL     1      28.164  43.969  52.103  1.00  0.00     0.007 A 
HETATM   16  C   UNL     1      27.669  44.452  53.318  1.00  0.00    -0.062 A 
HETATM   17  C   UNL     1      28.223  43.947  54.618  1.00  0.00     0.048 C 
HETATM   18  C   UNL     1      26.605  45.359  53.303  1.00  0.00     0.007 A 
HETATM   19  C   UNL     1      26.060  45.793  52.092  1.00  0.00     0.009 A 
ENDBRANCH   1  13
BRANCH   5  20
HETATM   20  N   UNL     1      24.272  49.245  49.418  1.00  0.00    -0.282 NA
HETATM   21  H   UNL     1      24.948  49.820  49.916  1.00  0.00     0.126 HD
HETATM   22  H   UNL     1      23.308  49.492  49.629  1.00  0.00     0.126 HD
ENDBRANCH   5  20
BRANCH  12  23
HETATM   23  C   UNL     1      24.871  42.484  49.375  1.00  0.00    -0.005 A 
HETATM   24  C   UNL     1      25.158  41.864  48.152  1.00  0.00     0.014 A 
HETATM   25  C   UNL     1      25.884  40.671  48.113  1.00  0.00     0.001 A 
HETATM   26  C   UNL     1      26.324  40.079  49.296  1.00  0.00     0.000 A 
HETATM   27  C   UNL     1      26.035  40.678  50.520  1.00  0.00     0.001 A 
HETATM   28  C   UNL     1      25.311  41.872  50.559  1.00  0.00     0.014 A 
ENDBRANCH  12  23
TORSDOF 3
ENDMDL
MODEL 3
REMARK VINA RESULT:      -7.6     10.980     12.252
REMARK  3 active torsions:
REMARK  status: ('A' for Active; 'I' for Inactive)
REMARK    1  A    between atoms: C_5  and  C_6 
REMARK    2  A    between atoms: C_10  and  N_11 
REMARK    3  A    between atoms: C_18  and  C_19 
ROOT
HETATM    1  C   UNL     1      25.835  45.808  52.405  1.00  0.00     0.106 A 
HETATM    2  C   UNL     1      26.614  46.358  53.606  1.00  0.00     0.081 A 
HETATM    3  C   UNL     1      26.046  47.483  54.273  1.00  0.00     0.100 C 
HETATM    4  N   UNL     1      25.583  48.397  54.818  1.00  0.00    -0.191 NA
HETATM    5  C   UNL     1      27.765  45.794  54.063  1.00  0.00     0.140 A 
HETATM    6  O   UNL     1      28.323  44.654  53.460  1.00  0.00    -0.279 OA
HETATM    7  C   UNL     1      27.624  44.105  52.475  1.00  0.00     0.175 A 
HETATM    8  C   UNL     1      26.453  44.546  51.912  1.00  0.00     0.040 A 
HETATM    9  N   UNL     1      27.966  42.962  51.837  1.00  0.00    -0.256 N 
HETATM   10  H   UNL     1      28.773  42.370  51.996  1.00  0.00     0.191 HD
HETATM   11  N   UNL     1      27.081  42.612  50.887  1.00  0.00    -0.172 NA
HETATM   12  C   UNL     1      26.123  43.562  50.934  1.00  0.00     0.099 A 
ENDROOT
BRANCH   1  13
HETATM   13  C   UNL     1      25.813  46.793  51.242  1.00  0.00    -0.044 A 
HETATM   14  C   UNL     1      26.974  47.411  50.746  1.00  0.00     0.009 A 
HETATM   15  C   UNL     1      26.901  48.364  49.727  1.00  0.00     0.007 A 
HETATM   16  C   UNL     1      25.666  48.733  49.185  1.00  0.00    -0.062 A 
HETATM   17  C   UNL     1      25.588  49.800  48.133  1.00  0.00     0.048 C 
HETATM   18  C   UNL     1      24.503  48.142  49.686  1.00  0.00     0.007 A 
HETATM   19  C   UNL     1      24.575  47.180  50.699  1.00  0.00     0.009 A 
ENDBRANCH   1  13
BRANCH   5  20
HETATM   20  N   UNL     1      28.504  46.242  55.135  1.00  0.00    -0.282 NA
HETATM   21  H   UNL     1      28.229  45.871  56.041  1.00  0.00     0.126 HD
HETATM   22  H   UNL     1      28.603  47.255  55.134  1.00  0.00     0.126 HD
ENDBRANCH   5  20
BRANCH  12  23
HETATM   23  C   UNL     1      24.963  43.481  50.045  1.00  0.00    -0.005 A 
HETATM   24  C   UNL     1      24.908  44.200  48.845  1.00  0.00     0.014 A 
HETATM   25  C   UNL     1      23.783  44.119  48.018  1.00  0.00     0.001 A 
HETATM   26  C   UNL     1      22.698  43.326  48.388  1.00  0.00     0.000 A 
HETATM   27  C   UNL     1      22.735  42.615  49.585  1.00  0.00     0.001 A 
HETATM   28  C   UNL     1      23.860  42.694  50.409  1.00  0.00     0.014 A 
ENDBRANCH  12  23
TORSDOF 3
ENDMDL
MODEL 4
REMARK VINA RESULT:      -7.5     11.053     12.861
REMARK  3 active torsions:
REMARK  status: ('A' for Active; 'I' for Inactive)
REMARK    1  A    between atoms: C_5  and  C_6 
REMARK    2  A    between atoms: C_10  and  N_11 
REMARK    3  A    between atoms: C_18  and  C_19 
ROOT
HETATM    1  C   UNL     1      26.058  44.816  49.786  1.00  0.00     0.106 A 
HETATM    2  C   UNL     1      25.356  46.178  49.772  1.00  0.00     0.081 A 
HETATM    3  C   UNL     1      26.195  47.328  49.839  1.00  0.00     0.100 C 
HETATM    4  N   UNL     1      26.879  48.266  49.889  1.00  0.00    -0.191 NA
HETATM    5  C   UNL     1      24.006  46.315  49.656  1.00  0.00     0.140 A 
HETATM    6  O   UNL     1      23.155  45.204  49.537  1.00  0.00    -0.279 OA
HETATM    7  C   UNL     1      23.742  44.017  49.457  1.00  0.00     0.175 A 
HETATM    8  C   UNL     1      25.078  43.718  49.548  1.00  0.00     0.040 A 
HETATM    9  N   UNL     1      23.088  42.849  49.258  1.00  0.00    -0.256 N 
HETATM   10  H   UNL     1      22.092  42.698  49.146  1.00  0.00     0.191 HD
HETATM   11  N   UNL     1      23.915  41.792  49.200  1.00  0.00    -0.172 NA
HETATM   12  C   UNL     1      25.154  42.309  49.350  1.00  0.00     0.099 A 
ENDROOT
BRANCH   1  13
HETATM   13  C   UNL     1      26.740  44.540  51.121  1.00  0.00    -0.044 A 
HETATM   14  C   UNL     1      26.188  44.935  52.353  1.00  0.00     0.009 A 
HETATM   15  C   UNL     1      26.882  44.729  53.548  1.00  0.00     0.007 A 
HETATM   16  C   UNL     1      28.147  44.134  53.544  1.00  0.00    -0.062 A 
HETATM   17  C   UNL     1      28.912  43.970  54.824  1.00  0.00     0.048 C 
HETATM   18  C   UNL     1      28.713  43.758  52.323  1.00  0.00     0.007 A 
HETATM   19  C   UNL     1      28.017  43.954  51.126  1.00  0.00     0.009 A 
ENDBRANCH   1  13
BRANCH   5  20
HETATM   20  N   UNL     1      23.324  47.511  49.636  1.00  0.00    -0.282 NA
HETATM   21  H   UNL     1      22.348  47.453  49.354  1.00  0.00     0.126 HD
HETATM   22  H   UNL     1      23.837  48.236  49.142  1.00  0.00     0.126 HD
ENDBRANCH   5  20
BRANCH  12  23
HETATM   23  C   UNL     1      26.327  41.432  49.304  1.00  0.00    -0.005 A 
HETATM   24  C   UNL     1      26.639  40.572  50.364  1.00  0.00     0.014 A 
HETATM   25  C   UNL     1      27.772  39.755  50.305  1.00  0.00     0.001 A 
HETATM   26  C   UNL     1      28.610  39.797  49.191  1.00  0.00     0.000 A 
HETATM   27  C   UNL     1      28.317  40.659  48.137  1.00  0.00     0.001 A 
HETATM   28  C   UNL     1      27.183  41.473  48.194  1.00  0.00     0.014 A 
ENDBRANCH  12  23
TORSDOF 3
ENDMDL
MODEL 5
REMARK VINA RESULT:      -7.4     11.563     12.755
REMARK  3 active torsions:
REMARK  status: ('A' for Active; 'I' for Inactive)
REMARK    1  A    between atoms: C_5  and  C_6 
REMARK    2  A    between atoms: C_10  and  N_11 
REMARK    3  A    between atoms: C_18  and  C_19 
ROOT
HETATM    1  C   UNL     1      26.979  43.617  52.571  1.00  0.00     0.106 A 
HETATM    2  C   UNL     1      28.074  43.868  53.613  1.00  0.00     0.081 A 
HETATM    3  C   UNL     1      27.797  44.854  54.604  1.00  0.00     0.100 C 
HETATM    4  N   UNL     1      27.571  45.655  55.414  1.00  0.00    -0.191 NA
HETATM    5  C   UNL     1      29.241  43.167  53.645  1.00  0.00     0.140 A 
HETATM    6  O   UNL     1      29.523  42.153  52.714  1.00  0.00    -0.279 OA
HETATM    7  C   UNL     1      28.556  41.854  51.856  1.00  0.00     0.175 A 
HETATM    8  C   UNL     1      27.333  42.457  51.705  1.00  0.00     0.040 A 
HETATM    9  N   UNL     1      28.620  40.854  50.946  1.00  0.00    -0.256 N 
HETATM   10  H   UNL     1      29.380  40.205  50.778  1.00  0.00     0.191 HD
HETATM   11  N   UNL     1      27.503  40.752  50.207  1.00  0.00    -0.172 NA
HETATM   12  C   UNL     1      26.682  41.716  50.677  1.00  0.00     0.099 A 
ENDROOT
BRANCH   1  13
HETATM   13  C   UNL     1      26.774  44.823  51.661  1.00  0.00    -0.044 A 
HETATM   14  C   UNL     1      27.437  44.968  50.430  1.00  0.00     0.009 A 
HETATM   15  C   UNL     1      27.278  46.124  49.661  1.00  0.00     0.007 A 
HETATM   16  C   UNL     1      26.460  47.167  50.106  1.00  0.00    -0.062 A 
HETATM   17  C   UNL     1      26.340  48.430  49.304  1.00  0.00     0.048 C 
HETATM   18  C   UNL     1      25.814  47.042  51.338  1.00  0.00     0.007 A 
HETATM   19  C   UNL     1      25.964  45.883  52.104  1.00  0.00     0.009 A 
ENDBRANCH   1  13
BRANCH   5  20
HETATM   20  N   UNL     1      30.257  43.347  54.557  1.00  0.00    -0.282 NA
HETATM   21  H   UNL     1      30.933  44.070  54.323  1.00  0.00     0.126 HD
HETATM   22  H   UNL     1      30.693  42.467  54.823  1.00  0.00     0.126 HD
ENDBRANCH   5  20
BRANCH  12  23
HETATM   23  C   UNL     1      25.339  41.876  50.115  1.00  0.00    -0.005 A 
HETATM   24  C   UNL     1      24.380  42.689  50.731  1.00  0.00     0.014 A 
HETATM   25  C   UNL     1      23.099  42.815  50.186  1.00  0.00     0.001 A 
HETATM   26  C   UNL     1      22.761  42.122  49.024  1.00  0.00     0.000 A 
HETATM   27  C   UNL     1      23.702  41.301  48.408  1.00  0.00     0.001 A 
HETATM   28  C   UNL     1      24.983  41.177  48.952  1.00  0.00     0.014 A 
ENDBRANCH  12  23
TORSDOF 3
ENDMDL
MODEL 6
REMARK VINA RESULT:      -7.3     10.855     13.505
REMARK  3 active torsions:
REMARK  status: ('A' for Active; 'I' for Inactive)
REMARK    1  A    between atoms: C_5  and  C_6 
REMARK    2  A    between atoms: C_10  and  N_11 
REMARK    3  A    between atoms: C_18  and  C_19 
ROOT
HETATM    1  C   UNL     1      19.865  50.813  47.616  1.00  0.00     0.106 A 
HETATM    2  C   UNL     1      21.105  50.656  48.504  1.00  0.00     0.081 A 
HETATM    3  C   UNL     1      22.286  50.172  47.870  1.00  0.00     0.100 C 
HETATM    4  N   UNL     1      23.249  49.780  47.353  1.00  0.00    -0.191 NA
HETATM    5  C   UNL     1      21.120  50.999  49.822  1.00  0.00     0.140 A 
HETATM    6  O   UNL     1      19.988  51.528  50.464  1.00  0.00    -0.279 OA
HETATM    7  C   UNL     1      18.928  51.757  49.700  1.00  0.00     0.175 A 
HETATM    8  C   UNL     1      18.762  51.477  48.367  1.00  0.00     0.040 A 
HETATM    9  N   UNL     1      17.784  52.336  50.130  1.00  0.00    -0.256 N 
HETATM   10  H   UNL     1      17.559  52.670  51.060  1.00  0.00     0.191 HD
HETATM   11  N   UNL     1      16.869  52.467  49.154  1.00  0.00    -0.172 NA
HETATM   12  C   UNL     1      17.462  51.968  48.048  1.00  0.00     0.099 A 
ENDROOT
BRANCH   1  13
HETATM   13  C   UNL     1      19.341  49.468  47.128  1.00  0.00    -0.044 A 
HETATM   14  C   UNL     1      18.903  49.254  45.809  1.00  0.00     0.009 A 
HETATM   15  C   UNL     1      18.360  48.027  45.422  1.00  0.00     0.007 A 
HETATM   16  C   UNL     1      18.232  46.983  46.344  1.00  0.00    -0.062 A 
HETATM   17  C   UNL     1      17.594  45.687  45.938  1.00  0.00     0.048 C 
HETATM   18  C   UNL     1      18.644  47.191  47.663  1.00  0.00     0.007 A 
HETATM   19  C   UNL     1      19.197  48.416  48.050  1.00  0.00     0.009 A 
ENDBRANCH   1  13
BRANCH   5  20
HETATM   20  N   UNL     1      22.203  50.882  50.664  1.00  0.00    -0.282 NA
HETATM   21  H   UNL     1      22.058  50.298  51.484  1.00  0.00     0.126 HD
HETATM   22  H   UNL     1      22.612  51.786  50.889  1.00  0.00     0.126 HD
ENDBRANCH   5  20
BRANCH  12  23
HETATM   23  C   UNL     1      16.756  51.980  46.766  1.00  0.00    -0.005 A 
HETATM   24  C   UNL     1      15.529  51.325  46.599  1.00  0.00     0.014 A 
HETATM   25  C   UNL     1      14.880  51.337  45.361  1.00  0.00     0.001 A 
HETATM   26  C   UNL     1      15.455  51.995  44.275  1.00  0.00     0.000 A 
HETATM   27  C   UNL     1      16.681  52.639  44.424  1.00  0.00     0.001 A 
HETATM   28  C   UNL     1      17.328  52.630  45.662  1.00  0.00     0.014 A 
ENDBRANCH  12  23
TORSDOF 3
ENDMDL
MODEL 7
REMARK VINA RESULT:      -7.3     10.255     11.425
REMARK  3 active torsions:
REMARK  status: ('A' for Active; 'I' for Inactive)
REMARK    1  A    between atoms: C_5  and  C_6 
REMARK    2  A    between atoms: C_10  and  N_11 
REMARK    3  A    between atoms: C_18  and  C_19 
ROOT
HETATM    1  C   UNL     1      25.091  45.623  51.441  1.00  0.00     0.106 A 
HETATM    2  C   UNL     1      26.086  45.637  52.607  1.00  0.00     0.081 A 
HETATM    3  C   UNL     1      25.882  46.633  53.606  1.00  0.00     0.100 C 
HETATM    4  N   UNL     1      25.715  47.442  54.422  1.00  0.00    -0.191 NA
HETATM    5  C   UNL     1      27.092  44.729  52.734  1.00  0.00     0.140 A 
HETATM    6  O   UNL     1      27.288  43.703  51.793  1.00  0.00    -0.279 OA
HETATM    7  C   UNL     1      26.389  43.613  50.821  1.00  0.00     0.175 A 
HETATM    8  C   UNL     1      25.324  44.439  50.566  1.00  0.00     0.040 A 
HETATM    9  N   UNL     1      26.374  42.642  49.879  1.00  0.00    -0.256 N 
HETATM   10  H   UNL     1      27.015  41.866  49.766  1.00  0.00     0.191 HD
HETATM   11  N   UNL     1      25.350  42.770  49.018  1.00  0.00    -0.172 NA
HETATM   12  C   UNL     1      24.672  43.859  49.439  1.00  0.00     0.099 A 
ENDROOT
BRANCH   1  13
HETATM   13  C   UNL     1      25.219  46.868  50.570  1.00  0.00    -0.044 A 
HETATM   14  C   UNL     1      24.105  47.545  50.042  1.00  0.00     0.009 A 
HETATM   15  C   UNL     1      24.268  48.638  49.187  1.00  0.00     0.007 A 
HETATM   16  C   UNL     1      25.547  49.076  48.829  1.00  0.00    -0.062 A 
HETATM   17  C   UNL     1      25.715  50.213  47.864  1.00  0.00     0.048 C 
HETATM   18  C   UNL     1      26.660  48.397  49.330  1.00  0.00     0.007 A 
HETATM   19  C   UNL     1      26.499  47.309  50.194  1.00  0.00     0.009 A 
ENDBRANCH   1  13
BRANCH   5  20
HETATM   20  N   UNL     1      28.010  44.692  53.759  1.00  0.00    -0.282 NA
HETATM   21  H   UNL     1      28.696  43.942  53.705  1.00  0.00     0.126 HD
HETATM   22  H   UNL     1      27.567  44.759  54.672  1.00  0.00     0.126 HD
ENDBRANCH   5  20
BRANCH  12  23
HETATM   23  C   UNL     1      23.456  44.283  48.742  1.00  0.00    -0.005 A 
HETATM   24  C   UNL     1      23.467  44.603  47.379  1.00  0.00     0.014 A 
HETATM   25  C   UNL     1      22.297  45.021  46.738  1.00  0.00     0.001 A 
HETATM   26  C   UNL     1      21.106  45.132  47.454  1.00  0.00     0.000 A 
HETATM   27  C   UNL     1      21.085  44.829  48.813  1.00  0.00     0.001 A 
HETATM   28  C   UNL     1      22.253  44.409  49.454  1.00  0.00     0.014 A 
ENDBRANCH  12  23
TORSDOF 3
ENDMDL
MODEL 8
REMARK VINA RESULT:      -7.3     10.317     12.311
REMARK  3 active torsions:
REMARK  status: ('A' for Active; 'I' for Inactive)
REMARK    1  A    between atoms: C_5  and  C_6 
REMARK    2  A    between atoms: C_10  and  N_11 
REMARK    3  A    between atoms: C_18  and  C_19 
ROOT
HETATM    1  C   UNL     1      25.913  44.112  49.822  1.00  0.00     0.106 A 
HETATM    2  C   UNL     1      26.258  42.663  50.186  1.00  0.00     0.081 A 
HETATM    3  C   UNL     1      26.266  41.722  49.115  1.00  0.00     0.100 C 
HETATM    4  N   UNL     1      26.277  40.956  48.243  1.00  0.00    -0.191 NA
HETATM    5  C   UNL     1      26.588  42.275  51.448  1.00  0.00     0.140 A 
HETATM    6  O   UNL     1      26.639  43.187  52.516  1.00  0.00    -0.279 OA
HETATM    7  C   UNL     1      26.433  44.462  52.213  1.00  0.00     0.175 A 
HETATM    8  C   UNL     1      26.101  45.007  50.998  1.00  0.00     0.040 A 
HETATM    9  N   UNL     1      26.524  45.484  53.095  1.00  0.00    -0.256 N 
HETATM   10  H   UNL     1      26.750  45.444  54.082  1.00  0.00     0.191 HD
HETATM   11  N   UNL     1      26.282  46.680  52.532  1.00  0.00    -0.172 NA
HETATM   12  C   UNL     1      26.045  46.412  51.230  1.00  0.00     0.099 A 
ENDROOT
BRANCH   1  13
HETATM   13  C   UNL     1      24.467  44.255  49.363  1.00  0.00    -0.044 A 
HETATM   14  C   UNL     1      24.115  44.772  48.104  1.00  0.00     0.009 A 
HETATM   15  C   UNL     1      22.775  44.956  47.753  1.00  0.00     0.007 A 
HETATM   16  C   UNL     1      21.753  44.638  48.652  1.00  0.00    -0.062 A 
HETATM   17  C   UNL     1      20.319  44.893  48.291  1.00  0.00     0.048 C 
HETATM   18  C   UNL     1      22.093  44.144  49.914  1.00  0.00     0.007 A 
HETATM   19  C   UNL     1      23.432  43.949  50.265  1.00  0.00     0.009 A 
ENDBRANCH   1  13
BRANCH   5  20
HETATM   20  N   UNL     1      26.908  40.991  51.831  1.00  0.00    -0.282 NA
HETATM   21  H   UNL     1      27.723  40.905  52.433  1.00  0.00     0.126 HD
HETATM   22  H   UNL     1      26.928  40.350  51.041  1.00  0.00     0.126 HD
ENDBRANCH   5  20
BRANCH  12  23
HETATM   23  C   UNL     1      25.772  47.504  50.293  1.00  0.00    -0.005 A 
HETATM   24  C   UNL     1      24.464  47.856  49.939  1.00  0.00     0.014 A 
HETATM   25  C   UNL     1      24.228  48.892  49.030  1.00  0.00     0.001 A 
HETATM   26  C   UNL     1      25.297  49.580  48.459  1.00  0.00     0.000 A 
HETATM   27  C   UNL     1      26.604  49.231  48.792  1.00  0.00     0.001 A 
HETATM   28  C   UNL     1      26.839  48.198  49.702  1.00  0.00     0.014 A 
ENDBRANCH  12  23
TORSDOF 3
ENDMDL
MODEL 9
REMARK VINA RESULT:      -7.2      2.961      6.441
REMARK  3 active torsions:
REMARK  status: ('A' for Active; 'I' for Inactive)
REMARK    1  A    between atoms: C_5  and  C_6 
REMARK    2  A    between atoms: C_10  and  N_11 
REMARK    3  A    between atoms: C_18  and  C_19 
ROOT
HETATM    1  C   UNL     1      27.187  48.784  39.834  1.00  0.00     0.106 A 
HETATM    2  C   UNL     1      25.782  49.066  39.291  1.00  0.00     0.081 A 
HETATM    3  C   UNL     1      24.727  48.253  39.800  1.00  0.00     0.100 C 
HETATM    4  N   UNL     1      23.868  47.593  40.216  1.00  0.00    -0.191 NA
HETATM    5  C   UNL     1      25.516  50.065  38.405  1.00  0.00     0.140 A 
HETATM    6  O   UNL     1      26.524  50.918  37.924  1.00  0.00    -0.279 OA
HETATM    7  C   UNL     1      27.734  50.753  38.444  1.00  0.00     0.175 A 
HETATM    8  C   UNL     1      28.154  49.806  39.344  1.00  0.00     0.040 A 
HETATM    9  N   UNL     1      28.803  51.534  38.161  1.00  0.00    -0.256 N 
HETATM   10  H   UNL     1      28.852  52.329  37.535  1.00  0.00     0.191 HD
HETATM   11  N   UNL     1      29.908  51.165  38.831  1.00  0.00    -0.172 NA
HETATM   12  C   UNL     1      29.524  50.116  39.589  1.00  0.00     0.099 A 
ENDROOT
BRANCH   1  13
HETATM   13  C   UNL     1      27.703  47.418  39.395  1.00  0.00    -0.044 A 
HETATM   14  C   UNL     1      28.143  46.442  40.306  1.00  0.00     0.009 A 
HETATM   15  C   UNL     1      28.679  45.232  39.859  1.00  0.00     0.007 A 
HETATM   16  C   UNL     1      28.797  44.969  38.491  1.00  0.00    -0.062 A 
HETATM   17  C   UNL     1      29.427  43.693  38.016  1.00  0.00     0.048 C 
HETATM   18  C   UNL     1      28.383  45.941  37.576  1.00  0.00     0.007 A 
HETATM   19  C   UNL     1      27.838  47.149  38.022  1.00  0.00     0.009 A 
ENDBRANCH   1  13
BRANCH   5  20
HETATM   20  N   UNL     1      24.276  50.365  37.888  1.00  0.00    -0.282 NA
HETATM   21  H   UNL     1      24.110  50.046  36.936  1.00  0.00     0.126 HD
HETATM   22  H   UNL     1      24.029  51.342  38.027  1.00  0.00     0.126 HD
ENDBRANCH   5  20
BRANCH  12  23
HETATM   23  C   UNL     1      30.481  49.470  40.490  1.00  0.00    -0.005 A 
HETATM   24  C   UNL     1      31.318  48.437  40.051  1.00  0.00     0.014 A 
HETATM   25  C   UNL     1      32.214  47.825  40.932  1.00  0.00     0.001 A 
HETATM   26  C   UNL     1      32.275  48.233  42.264  1.00  0.00     0.000 A 
HETATM   27  C   UNL     1      31.439  49.250  42.717  1.00  0.00     0.001 A 
HETATM   28  C   UNL     1      30.546  49.864  41.835  1.00  0.00     0.014 A 
ENDBRANCH  12  23
TORSDOF 3
ENDMDL
MODEL 10
REMARK VINA RESULT:      -7.1     25.855     27.986
REMARK  3 active torsions:
REMARK  status: ('A' for Active; 'I' for Inactive)
REMARK    1  A    between atoms: C_5  and  C_6 
REMARK    2  A    between atoms: C_10  and  N_11 
REMARK    3  A    between atoms: C_18  and  C_19 
ROOT
HETATM    1  C   UNL     1      38.506  45.934  66.198  1.00  0.00     0.106 A 
HETATM    2  C   UNL     1      37.069  46.113  66.699  1.00  0.00     0.081 A 
HETATM    3  C   UNL     1      36.551  45.079  67.532  1.00  0.00     0.100 C 
HETATM    4  N   UNL     1      36.130  44.238  68.213  1.00  0.00    -0.191 NA
HETATM    5  C   UNL     1      36.318  47.214  66.420  1.00  0.00     0.140 A 
HETATM    6  O   UNL     1      36.817  48.275  65.645  1.00  0.00    -0.279 OA
HETATM    7  C   UNL     1      38.088  48.187  65.272  1.00  0.00     0.175 A 
HETATM    8  C   UNL     1      38.968  47.156  65.481  1.00  0.00     0.040 A 
HETATM    9  N   UNL     1      38.756  49.149  64.594  1.00  0.00    -0.256 N 
HETATM   10  H   UNL     1      38.412  50.047  64.274  1.00  0.00     0.191 HD
HETATM   11  N   UNL     1      40.036  48.819  64.351  1.00  0.00    -0.172 NA
HETATM   12  C   UNL     1      40.197  47.602  64.914  1.00  0.00     0.099 A 
ENDROOT
BRANCH   1  13
HETATM   13  C   UNL     1      38.629  44.762  65.231  1.00  0.00    -0.044 A 
HETATM   14  C   UNL     1      37.959  44.721  63.995  1.00  0.00     0.009 A 
HETATM   15  C   UNL     1      38.039  43.594  63.172  1.00  0.00     0.007 A 
HETATM   16  C   UNL     1      38.782  42.477  63.566  1.00  0.00    -0.062 A 
HETATM   17  C   UNL     1      38.816  41.248  62.706  1.00  0.00     0.048 C 
HETATM   18  C   UNL     1      39.433  42.499  64.802  1.00  0.00     0.007 A 
HETATM   19  C   UNL     1      39.363  43.628  65.623  1.00  0.00     0.009 A 
ENDBRANCH   1  13
BRANCH   5  20
HETATM   20  N   UNL     1      35.027  47.430  66.845  1.00  0.00    -0.282 NA
HETATM   21  H   UNL     1      34.930  47.769  67.799  1.00  0.00     0.126 HD
HETATM   22  H   UNL     1      34.420  46.638  66.642  1.00  0.00     0.126 HD
ENDBRANCH   5  20
BRANCH  12  23
HETATM   23  C   UNL     1      41.502  46.939  64.870  1.00  0.00    -0.005 A 
HETATM   24  C   UNL     1      42.568  47.365  65.673  1.00  0.00     0.014 A 
HETATM   25  C   UNL     1      43.809  46.727  65.603  1.00  0.00     0.001 A 
HETATM   26  C   UNL     1      44.002  45.663  64.723  1.00  0.00     0.000 A 
HETATM   27  C   UNL     1      42.954  45.238  63.910  1.00  0.00     0.001 A 
HETATM   28  C   UNL     1      41.713  45.874  63.982  1.00  0.00     0.014 A 
ENDBRANCH  12  23
TORSDOF 3
ENDMDL
