MODEL 1
REMARK VINA RESULT:      -8.3      0.000      0.000
REMARK  5 active torsions:
REMARK  status: ('A' for Active; 'I' for Inactive)
REMARK    1  A    between atoms: C_2  and  C_3 
REMARK    2  A    between atoms: C_4  and  C_5 
REMARK    3  A    between atoms: C_8  and  C_9 
REMARK       I    between atoms: C_9  and  N_10 
REMARK    4  A    between atoms: N_10  and  C_11 
REMARK    5  A    between atoms: C_13  and  C_14 
ROOT
HETATM    1  C   UNL     1      26.657  46.307  53.875  1.00  0.00     0.280 C 
HETATM    2  N   UNL     1      26.749  45.974  52.534  1.00  0.00    -0.321 N 
HETATM    3  O   UNL     1      25.711  46.882  54.401  1.00  0.00    -0.265 OA
HETATM    4  H   UNL     1      27.604  45.489  52.283  1.00  0.00     0.169 HD
ENDROOT
BRANCH   2   5
HETATM    5  C   UNL     1      25.802  46.184  51.514  1.00  0.00     0.035 A 
HETATM    6  C   UNL     1      25.768  47.322  50.700  1.00  0.00     0.042 A 
HETATM    7  C   UNL     1      24.782  47.484  49.709  1.00  0.00    -0.021 A 
HETATM    8  C   UNL     1      23.825  46.474  49.546  1.00  0.00     0.012 A 
HETATM    9  C   UNL     1      23.855  45.331  50.346  1.00  0.00     0.003 A 
HETATM   10  C   UNL     1      24.839  45.187  51.323  1.00  0.00     0.029 A 
BRANCH   7  11
HETATM   11  C   UNL     1      24.766  48.689  48.889  1.00  0.00     0.010 A 
HETATM   12  C   UNL     1      25.829  49.446  48.334  1.00  0.00     0.152 A 
HETATM   13  N   UNL     1      25.407  50.497  47.625  1.00  0.00    -0.187 NA
HETATM   14  N   UNL     1      24.072  50.417  47.715  1.00  0.00    -0.289 N 
HETATM   15  H   UNL     1      23.516  51.122  47.241  1.00  0.00     0.188 HD
HETATM   16  C   UNL     1      23.637  49.357  48.458  1.00  0.00     0.123 A 
ENDBRANCH   7  11
ENDBRANCH   2   5
BRANCH   1  17
HETATM   17  C   UNL     1      27.816  45.883  54.638  1.00  0.00     0.144 A 
HETATM   18  O   UNL     1      28.441  44.704  54.327  1.00  0.00    -0.309 OA
HETATM   19  C   UNL     1      29.474  44.550  55.202  1.00  0.00     0.060 A 
HETATM   20  C   UNL     1      29.530  45.614  56.089  1.00  0.00    -0.026 A 
HETATM   21  C   UNL     1      28.462  46.475  55.705  1.00  0.00     0.052 A 
BRANCH  19  22
HETATM   22  C   UNL     1      30.294  43.321  55.035  1.00  0.00     0.061 C 
HETATM   23  C   UNL     1      30.302  42.847  53.591  1.00  0.00     0.012 C 
ENDBRANCH  19  22
BRANCH  20  24
HETATM   24  C   UNL     1      30.520  45.794  57.197  1.00  0.00     0.036 C 
HETATM   25  C   UNL     1      30.002  45.435  58.582  1.00  0.00     0.010 C 
ENDBRANCH  20  24
ENDBRANCH   1  17
TORSDOF 5
ENDMDL
MODEL 2
REMARK VINA RESULT:      -8.2      4.746      8.649
REMARK  5 active torsions:
REMARK  status: ('A' for Active; 'I' for Inactive)
REMARK    1  A    between atoms: C_2  and  C_3 
REMARK    2  A    between atoms: C_4  and  C_5 
REMARK    3  A    between atoms: C_8  and  C_9 
REMARK       I    between atoms: C_9  and  N_10 
REMARK    4  A    between atoms: N_10  and  C_11 
REMARK    5  A    between atoms: C_13  and  C_14 
ROOT
HETATM    1  C   UNL     1      28.040  41.791  52.591  1.00  0.00     0.280 C 
HETATM    2  N   UNL     1      28.343  43.139  52.515  1.00  0.00    -0.321 N 
HETATM    3  O   UNL     1      27.811  41.171  53.625  1.00  0.00    -0.265 OA
HETATM    4  H   UNL     1      28.490  43.480  51.570  1.00  0.00     0.169 HD
ENDROOT
BRANCH   2   5
HETATM    5  C   UNL     1      28.425  44.078  53.560  1.00  0.00     0.035 A 
HETATM    6  C   UNL     1      29.337  43.993  54.618  1.00  0.00     0.042 A 
HETATM    7  C   UNL     1      29.357  44.953  55.647  1.00  0.00    -0.021 A 
HETATM    8  C   UNL     1      28.439  46.011  55.593  1.00  0.00     0.012 A 
HETATM    9  C   UNL     1      27.532  46.110  54.538  1.00  0.00     0.003 A 
HETATM   10  C   UNL     1      27.526  45.150  53.526  1.00  0.00     0.029 A 
BRANCH   7  11
HETATM   11  C   UNL     1      30.310  44.827  56.743  1.00  0.00     0.010 A 
HETATM   12  C   UNL     1      31.362  43.900  56.952  1.00  0.00     0.152 A 
HETATM   13  N   UNL     1      32.028  44.114  58.090  1.00  0.00    -0.187 NA
HETATM   14  N   UNL     1      31.411  45.183  58.615  1.00  0.00    -0.289 N 
HETATM   15  H   UNL     1      31.750  45.546  59.500  1.00  0.00     0.188 HD
HETATM   16  C   UNL     1      30.379  45.647  57.851  1.00  0.00     0.123 A 
ENDBRANCH   7  11
ENDBRANCH   2   5
BRANCH   1  17
HETATM   17  C   UNL     1      27.996  41.151  51.289  1.00  0.00     0.144 A 
HETATM   18  O   UNL     1      28.725  40.013  51.065  1.00  0.00    -0.309 OA
HETATM   19  C   UNL     1      28.511  39.643  49.772  1.00  0.00     0.060 A 
HETATM   20  C   UNL     1      27.655  40.532  49.141  1.00  0.00    -0.026 A 
HETATM   21  C   UNL     1      27.318  41.494  50.137  1.00  0.00     0.052 A 
BRANCH  19  22
HETATM   22  C   UNL     1      29.216  38.414  49.319  1.00  0.00     0.061 C 
HETATM   23  C   UNL     1      29.843  37.668  50.485  1.00  0.00     0.012 C 
ENDBRANCH  19  22
BRANCH  20  24
HETATM   24  C   UNL     1      27.194  40.462  47.719  1.00  0.00     0.036 C 
HETATM   25  C   UNL     1      28.226  40.898  46.690  1.00  0.00     0.010 C 
ENDBRANCH  20  24
ENDBRANCH   1  17
TORSDOF 5
ENDMDL
MODEL 3
REMARK VINA RESULT:      -7.9      2.909      8.777
REMARK  5 active torsions:
REMARK  status: ('A' for Active; 'I' for Inactive)
REMARK    1  A    between atoms: C_2  and  C_3 
REMARK    2  A    between atoms: C_4  and  C_5 
REMARK    3  A    between atoms: C_8  and  C_9 
REMARK       I    between atoms: C_9  and  N_10 
REMARK    4  A    between atoms: N_10  and  C_11 
REMARK    5  A    between atoms: C_13  and  C_14 
ROOT
HETATM    1  C   UNL     1      25.373  47.490  50.427  1.00  0.00     0.280 C 
HETATM    2  N   UNL     1      25.132  46.974  51.689  1.00  0.00    -0.321 N 
HETATM    3  O   UNL     1      26.475  47.596  49.900  1.00  0.00    -0.265 OA
HETATM    4  H   UNL     1      24.152  46.955  51.952  1.00  0.00     0.169 HD
ENDROOT
BRANCH   2   5
HETATM    5  C   UNL     1      26.058  46.447  52.610  1.00  0.00     0.035 A 
HETATM    6  C   UNL     1      26.707  45.218  52.449  1.00  0.00     0.042 A 
HETATM    7  C   UNL     1      27.608  44.734  53.415  1.00  0.00    -0.021 A 
HETATM    8  C   UNL     1      27.849  45.513  54.555  1.00  0.00     0.012 A 
HETATM    9  C   UNL     1      27.213  46.743  54.721  1.00  0.00     0.003 A 
HETATM   10  C   UNL     1      26.323  47.208  53.753  1.00  0.00     0.029 A 
BRANCH   7  11
HETATM   11  C   UNL     1      28.257  43.443  53.224  1.00  0.00     0.010 A 
HETATM   12  C   UNL     1      27.814  42.130  53.526  1.00  0.00     0.152 A 
HETATM   13  N   UNL     1      28.702  41.189  53.194  1.00  0.00    -0.187 NA
HETATM   14  N   UNL     1      29.717  41.891  52.671  1.00  0.00    -0.289 N 
HETATM   15  H   UNL     1      30.528  41.383  52.334  1.00  0.00     0.188 HD
HETATM   16  C   UNL     1      29.502  43.240  52.665  1.00  0.00     0.123 A 
ENDBRANCH   7  11
ENDBRANCH   2   5
BRANCH   1  17
HETATM   17  C   UNL     1      24.157  47.893  49.745  1.00  0.00     0.144 A 
HETATM   18  O   UNL     1      23.807  49.217  49.703  1.00  0.00    -0.309 OA
HETATM   19  C   UNL     1      22.630  49.303  49.022  1.00  0.00     0.060 A 
HETATM   20  C   UNL     1      22.199  48.047  48.624  1.00  0.00    -0.026 A 
HETATM   21  C   UNL     1      23.201  47.147  49.085  1.00  0.00     0.052 A 
BRANCH  19  22
HETATM   22  C   UNL     1      22.070  50.671  48.857  1.00  0.00     0.061 C 
HETATM   23  C   UNL     1      20.972  50.951  49.870  1.00  0.00     0.012 C 
ENDBRANCH  19  22
BRANCH  20  24
HETATM   24  C   UNL     1      20.947  47.740  47.864  1.00  0.00     0.036 C 
HETATM   25  C   UNL     1      19.723  47.474  48.728  1.00  0.00     0.010 C 
ENDBRANCH  20  24
ENDBRANCH   1  17
TORSDOF 5
ENDMDL
MODEL 4
REMARK VINA RESULT:      -7.9      3.187      8.334
REMARK  5 active torsions:
REMARK  status: ('A' for Active; 'I' for Inactive)
REMARK    1  A    between atoms: C_2  and  C_3 
REMARK    2  A    between atoms: C_4  and  C_5 
REMARK    3  A    between atoms: C_8  and  C_9 
REMARK       I    between atoms: C_9  and  N_10 
REMARK    4  A    between atoms: N_10  and  C_11 
REMARK    5  A    between atoms: C_13  and  C_14 
ROOT
HETATM    1  C   UNL     1      24.810  46.041  50.577  1.00  0.00     0.280 C 
HETATM    2  N   UNL     1      26.072  45.964  51.142  1.00  0.00    -0.321 N 
HETATM    3  O   UNL     1      23.919  45.209  50.710  1.00  0.00    -0.265 OA
HETATM    4  H   UNL     1      26.672  46.754  50.929  1.00  0.00     0.169 HD
ENDROOT
BRANCH   2   5
HETATM    5  C   UNL     1      26.592  44.967  51.989  1.00  0.00     0.035 A 
HETATM    6  C   UNL     1      27.101  43.745  51.539  1.00  0.00     0.042 A 
HETATM    7  C   UNL     1      27.588  42.778  52.438  1.00  0.00    -0.021 A 
HETATM    8  C   UNL     1      27.557  43.065  53.809  1.00  0.00     0.012 A 
HETATM    9  C   UNL     1      27.060  44.285  54.269  1.00  0.00     0.003 A 
HETATM   10  C   UNL     1      26.581  45.231  53.363  1.00  0.00     0.029 A 
BRANCH   7  11
HETATM   11  C   UNL     1      28.098  41.508  51.937  1.00  0.00     0.010 A 
HETATM   12  C   UNL     1      27.904  40.859  50.691  1.00  0.00     0.152 A 
HETATM   13  N   UNL     1      28.550  39.694  50.603  1.00  0.00    -0.187 NA
HETATM   14  N   UNL     1      29.169  39.591  51.787  1.00  0.00    -0.289 N 
HETATM   15  H   UNL     1      29.741  38.771  51.960  1.00  0.00     0.188 HD
HETATM   16  C   UNL     1      28.932  40.647  52.620  1.00  0.00     0.123 A 
ENDBRANCH   7  11
ENDBRANCH   2   5
BRANCH   1  17
HETATM   17  C   UNL     1      24.618  47.249  49.797  1.00  0.00     0.144 A 
HETATM   18  O   UNL     1      25.697  48.030  49.475  1.00  0.00    -0.309 OA
HETATM   19  C   UNL     1      25.230  49.093  48.762  1.00  0.00     0.060 A 
HETATM   20  C   UNL     1      23.853  49.022  48.618  1.00  0.00    -0.026 A 
HETATM   21  C   UNL     1      23.472  47.819  49.280  1.00  0.00     0.052 A 
BRANCH  19  22
HETATM   22  C   UNL     1      26.251  50.073  48.306  1.00  0.00     0.061 C 
HETATM   23  C   UNL     1      27.623  49.758  48.879  1.00  0.00     0.012 C 
ENDBRANCH  19  22
BRANCH  20  24
HETATM   24  C   UNL     1      22.984  50.011  47.907  1.00  0.00     0.036 C 
HETATM   25  C   UNL     1      22.395  51.099  48.792  1.00  0.00     0.010 C 
ENDBRANCH  20  24
ENDBRANCH   1  17
TORSDOF 5
ENDMDL
MODEL 5
REMARK VINA RESULT:      -7.8      2.684      8.397
REMARK  5 active torsions:
REMARK  status: ('A' for Active; 'I' for Inactive)
REMARK    1  A    between atoms: C_2  and  C_3 
REMARK    2  A    between atoms: C_4  and  C_5 
REMARK    3  A    between atoms: C_8  and  C_9 
REMARK       I    between atoms: C_9  and  N_10 
REMARK    4  A    between atoms: N_10  and  C_11 
REMARK    5  A    between atoms: C_13  and  C_14 
ROOT
HETATM    1  C   UNL     1      25.548  45.267  51.835  1.00  0.00     0.280 C 
HETATM    2  N   UNL     1      26.876  44.907  51.681  1.00  0.00    -0.321 N 
HETATM    3  O   UNL     1      24.784  44.819  52.683  1.00  0.00    -0.265 OA
HETATM    4  H   UNL     1      27.355  45.394  50.930  1.00  0.00     0.169 HD
ENDROOT
BRANCH   2   5
HETATM    5  C   UNL     1      27.633  44.004  52.451  1.00  0.00     0.035 A 
HETATM    6  C   UNL     1      28.419  44.377  53.547  1.00  0.00     0.042 A 
HETATM    7  C   UNL     1      29.170  43.430  54.266  1.00  0.00    -0.021 A 
HETATM    8  C   UNL     1      29.116  42.088  53.863  1.00  0.00     0.012 A 
HETATM    9  C   UNL     1      28.328  41.704  52.778  1.00  0.00     0.003 A 
HETATM   10  C   UNL     1      27.590  42.657  52.077  1.00  0.00     0.029 A 
BRANCH   7  11
HETATM   11  C   UNL     1      29.992  43.854  55.393  1.00  0.00     0.010 A 
HETATM   12  C   UNL     1      31.008  43.170  56.106  1.00  0.00     0.152 A 
HETATM   13  N   UNL     1      31.542  43.903  57.087  1.00  0.00    -0.187 NA
HETATM   14  N   UNL     1      30.875  45.064  57.005  1.00  0.00    -0.289 N 
HETATM   15  H   UNL     1      31.113  45.801  57.661  1.00  0.00     0.188 HD
HETATM   16  C   UNL     1      29.940  45.087  56.011  1.00  0.00     0.123 A 
ENDBRANCH   7  11
ENDBRANCH   2   5
BRANCH   1  17
HETATM   17  C   UNL     1      25.126  46.273  50.879  1.00  0.00     0.144 A 
HETATM   18  O   UNL     1      23.989  46.077  50.140  1.00  0.00    -0.309 OA
HETATM   19  C   UNL     1      23.843  47.158  49.325  1.00  0.00     0.060 A 
HETATM   20  C   UNL     1      24.877  48.061  49.516  1.00  0.00    -0.026 A 
HETATM   21  C   UNL     1      25.691  47.484  50.532  1.00  0.00     0.052 A 
BRANCH  19  22
HETATM   22  C   UNL     1      22.654  47.147  48.432  1.00  0.00     0.061 C 
HETATM   23  C   UNL     1      21.627  48.184  48.856  1.00  0.00     0.012 C 
ENDBRANCH  19  22
BRANCH  20  24
HETATM   24  C   UNL     1      25.064  49.360  48.797  1.00  0.00     0.036 C 
HETATM   25  C   UNL     1      26.497  49.666  48.388  1.00  0.00     0.010 C 
ENDBRANCH  20  24
ENDBRANCH   1  17
TORSDOF 5
ENDMDL
MODEL 6
REMARK VINA RESULT:      -7.8      2.621      8.500
REMARK  5 active torsions:
REMARK  status: ('A' for Active; 'I' for Inactive)
REMARK    1  A    between atoms: C_2  and  C_3 
REMARK    2  A    between atoms: C_4  and  C_5 
REMARK    3  A    between atoms: C_8  and  C_9 
REMARK       I    between atoms: C_9  and  N_10 
REMARK    4  A    between atoms: N_10  and  C_11 
REMARK    5  A    between atoms: C_13  and  C_14 
ROOT
HETATM    1  C   UNL     1      26.491  45.726  52.700  1.00  0.00     0.280 C 
HETATM    2  N   UNL     1      27.342  44.665  52.442  1.00  0.00    -0.321 N 
HETATM    3  O   UNL     1      26.512  46.426  53.707  1.00  0.00    -0.265 OA
HETATM    4  H   UNL     1      27.182  44.210  51.549  1.00  0.00     0.169 HD
ENDROOT
BRANCH   2   5
HETATM    5  C   UNL     1      28.404  44.183  53.231  1.00  0.00     0.035 A 
HETATM    6  C   UNL     1      28.754  44.712  54.478  1.00  0.00     0.042 A 
HETATM    7  C   UNL     1      29.841  44.201  55.211  1.00  0.00    -0.021 A 
HETATM    8  C   UNL     1      30.575  43.138  54.667  1.00  0.00     0.012 A 
HETATM    9  C   UNL     1      30.228  42.597  53.428  1.00  0.00     0.003 A 
HETATM   10  C   UNL     1      29.148  43.117  52.715  1.00  0.00     0.029 A 
BRANCH   7  11
HETATM   11  C   UNL     1      30.189  44.784  56.501  1.00  0.00     0.010 A 
HETATM   12  C   UNL     1      29.658  45.909  57.182  1.00  0.00     0.152 A 
HETATM   13  N   UNL     1      30.242  46.129  58.362  1.00  0.00    -0.187 NA
HETATM   14  N   UNL     1      31.147  45.143  58.450  1.00  0.00    -0.289 N 
HETATM   15  H   UNL     1      31.726  45.096  59.282  1.00  0.00     0.188 HD
HETATM   16  C   UNL     1      31.156  44.313  57.365  1.00  0.00     0.123 A 
ENDBRANCH   7  11
ENDBRANCH   2   5
BRANCH   1  17
HETATM   17  C   UNL     1      25.546  45.960  51.624  1.00  0.00     0.144 A 
HETATM   18  O   UNL     1      25.294  47.241  51.207  1.00  0.00    -0.309 OA
HETATM   19  C   UNL     1      24.368  47.166  50.210  1.00  0.00     0.060 A 
HETATM   20  C   UNL     1      24.005  45.850  49.973  1.00  0.00    -0.026 A 
HETATM   21  C   UNL     1      24.783  45.080  50.884  1.00  0.00     0.052 A 
BRANCH  19  22
HETATM   22  C   UNL     1      23.953  48.461  49.607  1.00  0.00     0.061 C 
HETATM   23  C   UNL     1      25.107  49.137  48.885  1.00  0.00     0.012 C 
ENDBRANCH  19  22
BRANCH  20  24
HETATM   24  C   UNL     1      23.010  45.374  48.961  1.00  0.00     0.036 C 
HETATM   25  C   UNL     1      22.417  44.001  49.244  1.00  0.00     0.010 C 
ENDBRANCH  20  24
ENDBRANCH   1  17
TORSDOF 5
ENDMDL
MODEL 7
REMARK VINA RESULT:      -7.8      2.304      4.061
REMARK  5 active torsions:
REMARK  status: ('A' for Active; 'I' for Inactive)
REMARK    1  A    between atoms: C_2  and  C_3 
REMARK    2  A    between atoms: C_4  and  C_5 
REMARK    3  A    between atoms: C_8  and  C_9 
REMARK       I    between atoms: C_9  and  N_10 
REMARK    4  A    between atoms: N_10  and  C_11 
REMARK    5  A    between atoms: C_13  and  C_14 
ROOT
HETATM    1  C   UNL     1      26.176  45.630  50.205  1.00  0.00     0.280 C 
HETATM    2  N   UNL     1      26.178  46.991  50.459  1.00  0.00    -0.321 N 
HETATM    3  O   UNL     1      25.672  45.090  49.226  1.00  0.00    -0.265 OA
HETATM    4  H   UNL     1      26.655  47.254  51.315  1.00  0.00     0.169 HD
ENDROOT
BRANCH   2   5
HETATM    5  C   UNL     1      25.649  48.029  49.669  1.00  0.00     0.035 A 
HETATM    6  C   UNL     1      24.282  48.294  49.538  1.00  0.00     0.042 A 
HETATM    7  C   UNL     1      23.812  49.334  48.715  1.00  0.00    -0.021 A 
HETATM    8  C   UNL     1      24.749  50.113  48.022  1.00  0.00     0.012 A 
HETATM    9  C   UNL     1      26.115  49.864  48.153  1.00  0.00     0.003 A 
HETATM   10  C   UNL     1      26.563  48.828  48.973  1.00  0.00     0.029 A 
BRANCH   7  11
HETATM   11  C   UNL     1      22.380  49.574  48.589  1.00  0.00     0.010 A 
HETATM   12  C   UNL     1      21.280  48.685  48.693  1.00  0.00     0.152 A 
HETATM   13  N   UNL     1      20.102  49.290  48.519  1.00  0.00    -0.187 NA
HETATM   14  N   UNL     1      20.438  50.570  48.309  1.00  0.00    -0.289 N 
HETATM   15  H   UNL     1      19.693  51.242  48.152  1.00  0.00     0.188 HD
HETATM   16  C   UNL     1      21.784  50.794  48.341  1.00  0.00     0.123 A 
ENDBRANCH   7  11
ENDBRANCH   2   5
BRANCH   1  17
HETATM   17  C   UNL     1      26.866  44.868  51.229  1.00  0.00     0.144 A 
HETATM   18  O   UNL     1      26.762  45.243  52.542  1.00  0.00    -0.309 OA
HETATM   19  C   UNL     1      27.513  44.372  53.273  1.00  0.00     0.060 A 
HETATM   20  C   UNL     1      28.115  43.432  52.451  1.00  0.00    -0.026 A 
HETATM   21  C   UNL     1      27.678  43.756  51.134  1.00  0.00     0.052 A 
BRANCH  19  22
HETATM   22  C   UNL     1      27.535  44.602  54.742  1.00  0.00     0.061 C 
HETATM   23  C   UNL     1      28.538  45.678  55.124  1.00  0.00     0.012 C 
ENDBRANCH  19  22
BRANCH  20  24
HETATM   24  C   UNL     1      29.019  42.323  52.887  1.00  0.00     0.036 C 
HETATM   25  C   UNL     1      30.402  42.765  53.344  1.00  0.00     0.010 C 
ENDBRANCH  20  24
ENDBRANCH   1  17
TORSDOF 5
ENDMDL
MODEL 8
REMARK VINA RESULT:      -7.8      2.664      8.358
REMARK  5 active torsions:
REMARK  status: ('A' for Active; 'I' for Inactive)
REMARK    1  A    between atoms: C_2  and  C_3 
REMARK    2  A    between atoms: C_4  and  C_5 
REMARK    3  A    between atoms: C_8  and  C_9 
REMARK       I    between atoms: C_9  and  N_10 
REMARK    4  A    between atoms: N_10  and  C_11 
REMARK    5  A    between atoms: C_13  and  C_14 
ROOT
HETATM    1  C   UNL     1      26.588  45.757  52.726  1.00  0.00     0.280 C 
HETATM    2  N   UNL     1      27.337  44.608  52.543  1.00  0.00    -0.321 N 
HETATM    3  O   UNL     1      26.747  46.574  53.627  1.00  0.00    -0.265 OA
HETATM    4  H   UNL     1      27.067  44.058  51.734  1.00  0.00     0.169 HD
ENDROOT
BRANCH   2   5
HETATM    5  C   UNL     1      28.429  44.145  53.302  1.00  0.00     0.035 A 
HETATM    6  C   UNL     1      28.795  44.670  54.546  1.00  0.00     0.042 A 
HETATM    7  C   UNL     1      29.911  44.179  55.248  1.00  0.00    -0.021 A 
HETATM    8  C   UNL     1      30.658  43.140  54.676  1.00  0.00     0.012 A 
HETATM    9  C   UNL     1      30.295  42.603  53.441  1.00  0.00     0.003 A 
HETATM   10  C   UNL     1      29.186  43.102  52.758  1.00  0.00     0.029 A 
BRANCH   7  11
HETATM   11  C   UNL     1      30.275  44.758  56.535  1.00  0.00     0.010 A 
HETATM   12  C   UNL     1      29.816  45.932  57.185  1.00  0.00     0.152 A 
HETATM   13  N   UNL     1      30.391  46.130  58.374  1.00  0.00    -0.187 NA
HETATM   14  N   UNL     1      31.217  45.081  58.498  1.00  0.00    -0.289 N 
HETATM   15  H   UNL     1      31.773  45.006  59.344  1.00  0.00     0.188 HD
HETATM   16  C   UNL     1      31.186  44.233  57.429  1.00  0.00     0.123 A 
ENDBRANCH   7  11
ENDBRANCH   2   5
BRANCH   1  17
HETATM   17  C   UNL     1      25.570  45.930  51.707  1.00  0.00     0.144 A 
HETATM   18  O   UNL     1      24.848  44.849  51.276  1.00  0.00    -0.309 OA
HETATM   19  C   UNL     1      23.985  45.293  50.319  1.00  0.00     0.060 A 
HETATM   20  C   UNL     1      24.138  46.655  50.112  1.00  0.00    -0.026 A 
HETATM   21  C   UNL     1      25.156  47.057  51.025  1.00  0.00     0.052 A 
BRANCH  19  22
HETATM   22  C   UNL     1      23.095  44.266  49.715  1.00  0.00     0.061 C 
HETATM   23  C   UNL     1      23.568  42.858  50.037  1.00  0.00     0.012 C 
ENDBRANCH  19  22
BRANCH  20  24
HETATM   24  C   UNL     1      23.375  47.494  49.137  1.00  0.00     0.036 C 
HETATM   25  C   UNL     1      23.991  48.855  48.845  1.00  0.00     0.010 C 
ENDBRANCH  20  24
ENDBRANCH   1  17
TORSDOF 5
ENDMDL
MODEL 9
REMARK VINA RESULT:      -7.7      4.376      7.649
REMARK  5 active torsions:
REMARK  status: ('A' for Active; 'I' for Inactive)
REMARK    1  A    between atoms: C_2  and  C_3 
REMARK    2  A    between atoms: C_4  and  C_5 
REMARK    3  A    between atoms: C_8  and  C_9 
REMARK       I    between atoms: C_9  and  N_10 
REMARK    4  A    between atoms: N_10  and  C_11 
REMARK    5  A    between atoms: C_13  and  C_14 
ROOT
HETATM    1  C   UNL     1      27.819  42.012  51.446  1.00  0.00     0.280 C 
HETATM    2  N   UNL     1      28.431  41.962  52.687  1.00  0.00    -0.321 N 
HETATM    3  O   UNL     1      27.351  43.018  50.925  1.00  0.00    -0.265 OA
HETATM    4  H   UNL     1      28.769  41.041  52.949  1.00  0.00     0.169 HD
ENDROOT
BRANCH   2   5
HETATM    5  C   UNL     1      28.674  43.018  53.586  1.00  0.00     0.035 A 
HETATM    6  C   UNL     1      27.863  44.152  53.698  1.00  0.00     0.042 A 
HETATM    7  C   UNL     1      28.170  45.185  54.602  1.00  0.00    -0.021 A 
HETATM    8  C   UNL     1      29.314  45.058  55.401  1.00  0.00     0.012 A 
HETATM    9  C   UNL     1      30.124  43.927  55.304  1.00  0.00     0.003 A 
HETATM   10  C   UNL     1      29.805  42.911  54.402  1.00  0.00     0.029 A 
BRANCH   7  11
HETATM   11  C   UNL     1      27.312  46.361  54.683  1.00  0.00     0.010 A 
HETATM   12  C   UNL     1      26.165  46.724  53.932  1.00  0.00     0.152 A 
HETATM   13  N   UNL     1      25.641  47.893  54.310  1.00  0.00    -0.187 NA
HETATM   14  N   UNL     1      26.444  48.284  55.310  1.00  0.00    -0.289 N 
HETATM   15  H   UNL     1      26.240  49.164  55.773  1.00  0.00     0.188 HD
HETATM   16  C   UNL     1      27.457  47.407  55.572  1.00  0.00     0.123 A 
ENDBRANCH   7  11
ENDBRANCH   2   5
BRANCH   1  17
HETATM   17  C   UNL     1      27.795  40.722  50.781  1.00  0.00     0.144 A 
HETATM   18  O   UNL     1      28.896  39.909  50.832  1.00  0.00    -0.309 OA
HETATM   19  C   UNL     1      28.604  38.785  50.120  1.00  0.00     0.060 A 
HETATM   20  C   UNL     1      27.323  38.855  49.595  1.00  0.00    -0.026 A 
HETATM   21  C   UNL     1      26.806  40.106  50.041  1.00  0.00     0.052 A 
BRANCH  19  22
HETATM   22  C   UNL     1      29.677  37.758  50.051  1.00  0.00     0.061 C 
HETATM   23  C   UNL     1      29.927  37.121  51.408  1.00  0.00     0.012 C 
ENDBRANCH  19  22
BRANCH  20  24
HETATM   24  C   UNL     1      26.653  37.817  48.751  1.00  0.00     0.036 C 
HETATM   25  C   UNL     1      26.350  38.250  47.324  1.00  0.00     0.010 C 
ENDBRANCH  20  24
ENDBRANCH   1  17
TORSDOF 5
ENDMDL
MODEL 10
REMARK VINA RESULT:      -7.7      1.160      2.439
REMARK  5 active torsions:
REMARK  status: ('A' for Active; 'I' for Inactive)
REMARK    1  A    between atoms: C_2  and  C_3 
REMARK    2  A    between atoms: C_4  and  C_5 
REMARK    3  A    between atoms: C_8  and  C_9 
REMARK       I    between atoms: C_9  and  N_10 
REMARK    4  A    between atoms: N_10  and  C_11 
REMARK    5  A    between atoms: C_13  and  C_14 
ROOT
HETATM    1  C   UNL     1      26.115  46.271  52.780  1.00  0.00     0.280 C 
HETATM    2  N   UNL     1      25.847  45.601  51.598  1.00  0.00    -0.321 N 
HETATM    3  O   UNL     1      25.516  47.260  53.189  1.00  0.00    -0.265 OA
HETATM    4  H   UNL     1      26.441  44.795  51.432  1.00  0.00     0.169 HD
ENDROOT
BRANCH   2   5
HETATM    5  C   UNL     1      24.845  45.872  50.647  1.00  0.00     0.035 A 
HETATM    6  C   UNL     1      24.648  47.124  50.054  1.00  0.00     0.042 A 
HETATM    7  C   UNL     1      23.615  47.339  49.123  1.00  0.00    -0.021 A 
HETATM    8  C   UNL     1      22.777  46.265  48.794  1.00  0.00     0.012 A 
HETATM    9  C   UNL     1      22.971  45.010  49.372  1.00  0.00     0.003 A 
HETATM   10  C   UNL     1      24.000  44.815  50.293  1.00  0.00     0.029 A 
BRANCH   7  11
HETATM   11  C   UNL     1      23.427  48.659  48.535  1.00  0.00     0.010 A 
HETATM   12  C   UNL     1      24.360  49.689  48.255  1.00  0.00     0.152 A 
HETATM   13  N   UNL     1      23.798  50.767  47.700  1.00  0.00    -0.187 NA
HETATM   14  N   UNL     1      22.503  50.433  47.616  1.00  0.00    -0.289 N 
HETATM   15  H   UNL     1      21.859  51.106  47.212  1.00  0.00     0.188 HD
HETATM   16  C   UNL     1      22.228  49.186  48.100  1.00  0.00     0.123 A 
ENDBRANCH   7  11
ENDBRANCH   2   5
BRANCH   1  17
HETATM   17  C   UNL     1      27.198  45.666  53.533  1.00  0.00     0.144 A 
HETATM   18  O   UNL     1      27.755  46.343  54.586  1.00  0.00    -0.309 OA
HETATM   19  C   UNL     1      28.746  45.557  55.094  1.00  0.00     0.060 A 
HETATM   20  C   UNL     1      28.850  44.374  54.379  1.00  0.00    -0.026 A 
HETATM   21  C   UNL     1      27.836  44.452  53.382  1.00  0.00     0.052 A 
BRANCH  19  22
HETATM   22  C   UNL     1      29.484  46.110  56.260  1.00  0.00     0.061 C 
HETATM   23  C   UNL     1      28.585  46.242  57.479  1.00  0.00     0.012 C 
ENDBRANCH  19  22
BRANCH  20  24
HETATM   24  C   UNL     1      29.827  43.269  54.632  1.00  0.00     0.036 C 
HETATM   25  C   UNL     1      30.273  42.512  53.391  1.00  0.00     0.010 C 
ENDBRANCH  20  24
ENDBRANCH   1  17
TORSDOF 5
ENDMDL
