MODEL 1
REMARK VINA RESULT:      -7.4      0.000      0.000
REMARK  5 active torsions:
REMARK  status: ('A' for Active; 'I' for Inactive)
REMARK    1  A    between atoms: C_8  and  C_9 
REMARK    2  A    between atoms: N_10  and  N_11 
REMARK       I    between atoms: N_11  and  C_12 
REMARK    3  A    between atoms: C_12  and  C_13 
REMARK    4  A    between atoms: C_13  and  N_14 
REMARK    5  A    between atoms: N_14  and  C_15 
ROOT
HETATM    1  N   UNL     1      29.554  48.099  40.314  1.00  0.00    -0.246 N 
HETATM    2  C   UNL     1      30.786  47.862  39.688  1.00  0.00     0.250 C 
HETATM    3  O   UNL     1      30.985  47.908  38.475  1.00  0.00    -0.270 OA
HETATM    4  H   UNL     1      29.352  47.518  41.121  1.00  0.00     0.192 HD
ENDROOT
BRANCH   1   5
HETATM    5  N   UNL     1      28.440  48.407  39.574  1.00  0.00    -0.184 NA
HETATM    6  C   UNL     1      28.093  49.660  39.469  1.00  0.00     0.152 C 
BRANCH   6   7
HETATM    7  C   UNL     1      28.612  50.776  40.241  1.00  0.00     0.011 A 
HETATM    8  C   UNL     1      29.855  51.486  40.123  1.00  0.00     0.004 A 
HETATM    9  C   UNL     1      30.995  51.362  39.299  1.00  0.00     0.014 A 
HETATM   10  C   UNL     1      29.846  52.502  41.082  1.00  0.00     0.043 A 
HETATM   11  C   UNL     1      32.052  52.271  39.430  1.00  0.00     0.001 A 
HETATM   12  C   UNL     1      31.995  53.290  40.376  1.00  0.00     0.002 A 
HETATM   13  C   UNL     1      30.893  53.420  41.226  1.00  0.00     0.030 A 
HETATM   14  N   UNL     1      28.670  52.387  41.784  1.00  0.00    -0.364 N 
HETATM   15  H   UNL     1      28.393  52.997  42.541  1.00  0.00     0.165 HD
HETATM   16  C   UNL     1      27.941  51.328  41.317  1.00  0.00     0.102 A 
ENDBRANCH   6   7
ENDBRANCH   1   5
BRANCH   2  17
HETATM   17  C   UNL     1      31.880  47.524  40.712  1.00  0.00     0.197 C 
BRANCH  17  18
HETATM   18  N   UNL     1      32.990  48.481  40.650  1.00  0.00    -0.283 NA
HETATM   19  H   UNL     1      33.887  48.015  40.488  1.00  0.00     0.128 HD
BRANCH  18  20
HETATM   20  C   UNL     1      33.063  49.462  41.652  1.00  0.00     0.030 A 
HETATM   21  C   UNL     1      34.173  50.325  41.746  1.00  0.00     0.055 A 
HETATM   22 CL   UNL     1      35.530  50.138  40.688  1.00  0.00    -0.082 Cl
HETATM   23  C   UNL     1      34.229  51.334  42.713  1.00  0.00     0.026 A 
HETATM   24  C   UNL     1      33.163  51.516  43.592  1.00  0.00     0.002 A 
HETATM   25  C   UNL     1      32.042  50.696  43.496  1.00  0.00     0.002 A 
HETATM   26  C   UNL     1      31.991  49.685  42.531  1.00  0.00     0.025 A 
ENDBRANCH  18  20
ENDBRANCH  17  18
ENDBRANCH   2  17
TORSDOF 5
ENDMDL
MODEL 2
REMARK VINA RESULT:      -7.2     13.420     14.634
REMARK  5 active torsions:
REMARK  status: ('A' for Active; 'I' for Inactive)
REMARK    1  A    between atoms: C_8  and  C_9 
REMARK    2  A    between atoms: N_10  and  N_11 
REMARK       I    between atoms: N_11  and  C_12 
REMARK    3  A    between atoms: C_12  and  C_13 
REMARK    4  A    between atoms: C_13  and  N_14 
REMARK    5  A    between atoms: N_14  and  C_15 
ROOT
HETATM    1  N   UNL     1      28.291  42.215  51.740  1.00  0.00    -0.246 N 
HETATM    2  C   UNL     1      28.799  41.831  52.989  1.00  0.00     0.250 C 
HETATM    3  O   UNL     1      28.331  40.944  53.702  1.00  0.00    -0.270 OA
HETATM    4  H   UNL     1      28.332  43.207  51.534  1.00  0.00     0.192 HD
ENDROOT
BRANCH   1   5
HETATM    5  N   UNL     1      27.184  41.597  51.214  1.00  0.00    -0.184 NA
HETATM    6  C   UNL     1      26.282  42.336  50.630  1.00  0.00     0.152 C 
BRANCH   6   7
HETATM    7  C   UNL     1      26.183  43.786  50.669  1.00  0.00     0.011 A 
HETATM    8  C   UNL     1      26.011  44.673  51.784  1.00  0.00     0.004 A 
HETATM    9  C   UNL     1      25.840  44.499  53.175  1.00  0.00     0.014 A 
HETATM   10  C   UNL     1      26.019  45.977  51.283  1.00  0.00     0.043 A 
HETATM   11  C   UNL     1      25.730  45.617  54.009  1.00  0.00     0.001 A 
HETATM   12  C   UNL     1      25.773  46.903  53.478  1.00  0.00     0.002 A 
HETATM   13  C   UNL     1      25.911  47.107  52.102  1.00  0.00     0.030 A 
HETATM   14  N   UNL     1      26.145  45.886  49.917  1.00  0.00    -0.364 N 
HETATM   15  H   UNL     1      26.182  46.679  49.292  1.00  0.00     0.165 HD
HETATM   16  C   UNL     1      26.201  44.575  49.533  1.00  0.00     0.102 A 
ENDBRANCH   6   7
ENDBRANCH   1   5
BRANCH   2  17
HETATM   17  C   UNL     1      30.027  42.667  53.377  1.00  0.00     0.197 C 
BRANCH  17  18
HETATM   18  N   UNL     1      29.643  43.897  54.077  1.00  0.00    -0.283 NA
HETATM   19  H   UNL     1      29.706  44.718  53.470  1.00  0.00     0.128 HD
BRANCH  18  20
HETATM   20  C   UNL     1      30.194  44.122  55.350  1.00  0.00     0.030 A 
HETATM   21  C   UNL     1      29.875  45.280  56.086  1.00  0.00     0.055 A 
HETATM   22 CL   UNL     1      28.870  46.513  55.402  1.00  0.00    -0.082 Cl
HETATM   23  C   UNL     1      30.383  45.487  57.373  1.00  0.00     0.026 A 
HETATM   24  C   UNL     1      31.203  44.525  57.960  1.00  0.00     0.002 A 
HETATM   25  C   UNL     1      31.505  43.358  57.264  1.00  0.00     0.002 A 
HETATM   26  C   UNL     1      30.999  43.157  55.976  1.00  0.00     0.025 A 
ENDBRANCH  18  20
ENDBRANCH  17  18
ENDBRANCH   2  17
TORSDOF 5
ENDMDL
MODEL 3
REMARK VINA RESULT:      -7.2     12.422     14.176
REMARK  5 active torsions:
REMARK  status: ('A' for Active; 'I' for Inactive)
REMARK    1  A    between atoms: C_8  and  C_9 
REMARK    2  A    between atoms: N_10  and  N_11 
REMARK       I    between atoms: N_11  and  C_12 
REMARK    3  A    between atoms: C_12  and  C_13 
REMARK    4  A    between atoms: C_13  and  N_14 
REMARK    5  A    between atoms: N_14  and  C_15 
ROOT
HETATM    1  N   UNL     1      25.025  45.073  52.761  1.00  0.00    -0.246 N 
HETATM    2  C   UNL     1      24.591  44.690  51.484  1.00  0.00     0.250 C 
HETATM    3  O   UNL     1      23.810  43.769  51.248  1.00  0.00    -0.270 OA
HETATM    4  H   UNL     1      25.992  45.371  52.826  1.00  0.00     0.192 HD
ENDROOT
BRANCH   1   5
HETATM    5  N   UNL     1      24.586  44.408  53.878  1.00  0.00    -0.184 NA
HETATM    6  C   UNL     1      25.451  44.134  54.816  1.00  0.00     0.152 C 
BRANCH   6   7
HETATM    7  C   UNL     1      26.897  44.240  54.726  1.00  0.00     0.011 A 
HETATM    8  C   UNL     1      27.856  43.356  54.125  1.00  0.00     0.004 A 
HETATM    9  C   UNL     1      27.780  42.106  53.471  1.00  0.00     0.014 A 
HETATM   10  C   UNL     1      29.115  43.940  54.278  1.00  0.00     0.043 A 
HETATM   11  C   UNL     1      28.942  41.515  52.961  1.00  0.00     0.001 A 
HETATM   12  C   UNL     1      30.176  42.142  53.104  1.00  0.00     0.002 A 
HETATM   13  C   UNL     1      30.287  43.365  53.773  1.00  0.00     0.030 A 
HETATM   14  N   UNL     1      28.937  45.108  54.981  1.00  0.00    -0.364 N 
HETATM   15  H   UNL     1      29.681  45.743  55.234  1.00  0.00     0.165 HD
HETATM   16  C   UNL     1      27.616  45.277  55.292  1.00  0.00     0.102 A 
ENDBRANCH   6   7
ENDBRANCH   1   5
BRANCH   2  17
HETATM   17  C   UNL     1      25.222  45.565  50.391  1.00  0.00     0.197 C 
BRANCH  17  18
HETATM   18  N   UNL     1      24.626  46.904  50.362  1.00  0.00    -0.283 NA
HETATM   19  H   UNL     1      23.628  46.874  50.135  1.00  0.00     0.128 HD
BRANCH  18  20
HETATM   20  C   UNL     1      25.311  47.908  49.657  1.00  0.00     0.030 A 
HETATM   21  C   UNL     1      24.611  48.921  48.970  1.00  0.00     0.055 A 
HETATM   22 CL   UNL     1      22.882  48.902  48.890  1.00  0.00    -0.082 Cl
HETATM   23  C   UNL     1      25.288  49.949  48.306  1.00  0.00     0.026 A 
HETATM   24  C   UNL     1      26.680  49.999  48.336  1.00  0.00     0.002 A 
HETATM   25  C   UNL     1      27.390  49.028  49.035  1.00  0.00     0.002 A 
HETATM   26  C   UNL     1      26.711  47.998  49.695  1.00  0.00     0.025 A 
ENDBRANCH  18  20
ENDBRANCH  17  18
ENDBRANCH   2  17
TORSDOF 5
ENDMDL
MODEL 4
REMARK VINA RESULT:      -7.1     11.668     13.464
REMARK  5 active torsions:
REMARK  status: ('A' for Active; 'I' for Inactive)
REMARK    1  A    between atoms: C_8  and  C_9 
REMARK    2  A    between atoms: N_10  and  N_11 
REMARK       I    between atoms: N_11  and  C_12 
REMARK    3  A    between atoms: C_12  and  C_13 
REMARK    4  A    between atoms: C_13  and  N_14 
REMARK    5  A    between atoms: N_14  and  C_15 
ROOT
HETATM    1  N   UNL     1      19.647  46.416  47.777  1.00  0.00    -0.246 N 
HETATM    2  C   UNL     1      20.603  45.619  48.422  1.00  0.00     0.250 C 
HETATM    3  O   UNL     1      20.352  44.713  49.215  1.00  0.00    -0.270 OA
HETATM    4  H   UNL     1      19.899  47.391  47.652  1.00  0.00     0.192 HD
ENDROOT
BRANCH   1   5
HETATM    5  N   UNL     1      18.307  46.227  48.007  1.00  0.00    -0.184 NA
HETATM    6  C   UNL     1      17.646  47.167  48.622  1.00  0.00     0.152 C 
BRANCH   6   7
HETATM    7  C   UNL     1      18.205  48.316  49.316  1.00  0.00     0.011 A 
HETATM    8  C   UNL     1      18.475  49.643  48.841  1.00  0.00     0.004 A 
HETATM    9  C   UNL     1      18.354  50.296  47.594  1.00  0.00     0.014 A 
HETATM   10  C   UNL     1      18.974  50.377  49.919  1.00  0.00     0.043 A 
HETATM   11  C   UNL     1      18.688  51.651  47.481  1.00  0.00     0.001 A 
HETATM   12  C   UNL     1      19.153  52.359  48.586  1.00  0.00     0.002 A 
HETATM   13  C   UNL     1      19.312  51.733  49.825  1.00  0.00     0.030 A 
HETATM   14  N   UNL     1      19.047  49.522  50.993  1.00  0.00    -0.364 N 
HETATM   15  H   UNL     1      19.372  49.785  51.913  1.00  0.00     0.165 HD
HETATM   16  C   UNL     1      18.629  48.271  50.632  1.00  0.00     0.102 A 
ENDBRANCH   6   7
ENDBRANCH   1   5
BRANCH   2  17
HETATM   17  C   UNL     1      22.030  46.020  48.022  1.00  0.00     0.197 C 
BRANCH  17  18
HETATM   18  N   UNL     1      22.666  46.849  49.052  1.00  0.00    -0.283 NA
HETATM   19  H   UNL     1      22.215  46.738  49.964  1.00  0.00     0.128 HD
BRANCH  18  20
HETATM   20  C   UNL     1      22.928  48.192  48.739  1.00  0.00     0.030 A 
HETATM   21  C   UNL     1      24.207  48.750  48.941  1.00  0.00     0.055 A 
HETATM   22 CL   UNL     1      25.469  47.823  49.677  1.00  0.00    -0.082 Cl
HETATM   23  C   UNL     1      24.487  50.074  48.587  1.00  0.00     0.026 A 
HETATM   24  C   UNL     1      23.498  50.861  47.999  1.00  0.00     0.002 A 
HETATM   25  C   UNL     1      22.238  50.321  47.760  1.00  0.00     0.002 A 
HETATM   26  C   UNL     1      21.960  48.998  48.119  1.00  0.00     0.025 A 
ENDBRANCH  18  20
ENDBRANCH  17  18
ENDBRANCH   2  17
TORSDOF 5
ENDMDL
MODEL 5
REMARK VINA RESULT:      -7.1     12.353     14.237
REMARK  5 active torsions:
REMARK  status: ('A' for Active; 'I' for Inactive)
REMARK    1  A    between atoms: C_8  and  C_9 
REMARK    2  A    between atoms: N_10  and  N_11 
REMARK       I    between atoms: N_11  and  C_12 
REMARK    3  A    between atoms: C_12  and  C_13 
REMARK    4  A    between atoms: C_13  and  N_14 
REMARK    5  A    between atoms: N_14  and  C_15 
ROOT
HETATM    1  N   UNL     1      26.597  44.791  51.771  1.00  0.00    -0.246 N 
HETATM    2  C   UNL     1      25.238  45.125  51.861  1.00  0.00     0.250 C 
HETATM    3  O   UNL     1      24.329  44.335  52.106  1.00  0.00    -0.270 OA
HETATM    4  H   UNL     1      27.125  45.285  51.060  1.00  0.00     0.192 HD
ENDROOT
BRANCH   1   5
HETATM    5  N   UNL     1      27.013  43.497  51.956  1.00  0.00    -0.184 NA
HETATM    6  C   UNL     1      27.597  43.188  53.081  1.00  0.00     0.152 C 
BRANCH   6   7
HETATM    7  C   UNL     1      28.081  44.111  54.094  1.00  0.00     0.011 A 
HETATM    8  C   UNL     1      29.225  44.021  54.958  1.00  0.00     0.004 A 
HETATM    9  C   UNL     1      30.229  43.053  55.178  1.00  0.00     0.014 A 
HETATM   10  C   UNL     1      29.265  45.192  55.718  1.00  0.00     0.043 A 
HETATM   11  C   UNL     1      31.249  43.305  56.103  1.00  0.00     0.001 A 
HETATM   12  C   UNL     1      31.274  44.498  56.820  1.00  0.00     0.002 A 
HETATM   13  C   UNL     1      30.277  45.462  56.647  1.00  0.00     0.030 A 
HETATM   14  N   UNL     1      28.169  45.943  55.365  1.00  0.00    -0.364 N 
HETATM   15  H   UNL     1      27.944  46.848  55.755  1.00  0.00     0.165 HD
HETATM   16  C   UNL     1      27.428  45.285  54.422  1.00  0.00     0.102 A 
ENDBRANCH   6   7
ENDBRANCH   1   5
BRANCH   2  17
HETATM   17  C   UNL     1      25.011  46.622  51.605  1.00  0.00     0.197 C 
BRANCH  17  18
HETATM   18  N   UNL     1      24.699  46.887  50.196  1.00  0.00    -0.283 NA
HETATM   19  H   UNL     1      24.673  46.027  49.642  1.00  0.00     0.128 HD
BRANCH  18  20
HETATM   20  C   UNL     1      25.402  47.921  49.556  1.00  0.00     0.030 A 
HETATM   21  C   UNL     1      24.721  48.961  48.891  1.00  0.00     0.055 A 
HETATM   22 CL   UNL     1      22.995  48.942  48.757  1.00  0.00    -0.082 Cl
HETATM   23  C   UNL     1      25.414  50.018  48.292  1.00  0.00     0.026 A 
HETATM   24  C   UNL     1      26.804  50.070  48.368  1.00  0.00     0.002 A 
HETATM   25  C   UNL     1      27.496  49.071  49.047  1.00  0.00     0.002 A 
HETATM   26  C   UNL     1      26.800  48.013  49.641  1.00  0.00     0.025 A 
ENDBRANCH  18  20
ENDBRANCH  17  18
ENDBRANCH   2  17
TORSDOF 5
ENDMDL
MODEL 6
REMARK VINA RESULT:      -7.0      2.024      4.526
REMARK  5 active torsions:
REMARK  status: ('A' for Active; 'I' for Inactive)
REMARK    1  A    between atoms: C_8  and  C_9 
REMARK    2  A    between atoms: N_10  and  N_11 
REMARK       I    between atoms: N_11  and  C_12 
REMARK    3  A    between atoms: C_12  and  C_13 
REMARK    4  A    between atoms: C_13  and  N_14 
REMARK    5  A    between atoms: N_14  and  C_15 
ROOT
HETATM    1  N   UNL     1      28.800  49.903  40.773  1.00  0.00    -0.246 N 
HETATM    2  C   UNL     1      27.708  50.180  39.937  1.00  0.00     0.250 C 
HETATM    3  O   UNL     1      26.602  49.648  40.018  1.00  0.00    -0.270 OA
HETATM    4  H   UNL     1      29.709  49.908  40.324  1.00  0.00     0.192 HD
ENDROOT
BRANCH   1   5
HETATM    5  N   UNL     1      28.695  48.973  41.777  1.00  0.00    -0.184 NA
HETATM    6  C   UNL     1      29.784  48.589  42.382  1.00  0.00     0.152 C 
BRANCH   6   7
HETATM    7  C   UNL     1      31.152  48.853  41.967  1.00  0.00     0.011 A 
HETATM    8  C   UNL     1      32.094  49.826  42.445  1.00  0.00     0.004 A 
HETATM    9  C   UNL     1      32.052  50.860  43.406  1.00  0.00     0.014 A 
HETATM   10  C   UNL     1      33.283  49.636  41.738  1.00  0.00     0.043 A 
HETATM   11  C   UNL     1      33.196  51.626  43.656  1.00  0.00     0.001 A 
HETATM   12  C   UNL     1      34.374  51.388  42.954  1.00  0.00     0.002 A 
HETATM   13  C   UNL     1      34.438  50.392  41.975  1.00  0.00     0.030 A 
HETATM   14  N   UNL     1      33.062  48.622  40.837  1.00  0.00    -0.364 N 
HETATM   15  H   UNL     1      33.754  48.268  40.192  1.00  0.00     0.165 HD
HETATM   16  C   UNL     1      31.773  48.173  40.935  1.00  0.00     0.102 A 
ENDBRANCH   6   7
ENDBRANCH   1   5
BRANCH   2  17
HETATM   17  C   UNL     1      28.063  51.239  38.883  1.00  0.00     0.197 C 
BRANCH  17  18
HETATM   18  N   UNL     1      28.958  52.265  39.430  1.00  0.00    -0.283 NA
HETATM   19  H   UNL     1      28.613  53.211  39.246  1.00  0.00     0.128 HD
BRANCH  18  20
HETATM   20  C   UNL     1      30.333  52.132  39.178  1.00  0.00     0.030 A 
HETATM   21  C   UNL     1      31.289  52.720  40.030  1.00  0.00     0.055 A 
HETATM   22 CL   UNL     1      30.795  53.711  41.361  1.00  0.00    -0.082 Cl
HETATM   23  C   UNL     1      32.660  52.552  39.811  1.00  0.00     0.026 A 
HETATM   24  C   UNL     1      33.104  51.769  38.747  1.00  0.00     0.002 A 
HETATM   25  C   UNL     1      32.177  51.152  37.911  1.00  0.00     0.002 A 
HETATM   26  C   UNL     1      30.807  51.326  38.131  1.00  0.00     0.025 A 
ENDBRANCH  18  20
ENDBRANCH  17  18
ENDBRANCH   2  17
TORSDOF 5
ENDMDL
MODEL 7
REMARK VINA RESULT:      -7.0      2.981      5.806
REMARK  5 active torsions:
REMARK  status: ('A' for Active; 'I' for Inactive)
REMARK    1  A    between atoms: C_8  and  C_9 
REMARK    2  A    between atoms: N_10  and  N_11 
REMARK       I    between atoms: N_11  and  C_12 
REMARK    3  A    between atoms: C_12  and  C_13 
REMARK    4  A    between atoms: C_13  and  N_14 
REMARK    5  A    between atoms: N_14  and  C_15 
ROOT
HETATM    1  N   UNL     1      30.357  53.061  41.299  1.00  0.00    -0.246 N 
HETATM    2  C   UNL     1      29.167  53.017  40.559  1.00  0.00     0.250 C 
HETATM    3  O   UNL     1      29.049  53.362  39.384  1.00  0.00    -0.270 OA
HETATM    4  H   UNL     1      30.259  53.320  42.275  1.00  0.00     0.192 HD
ENDROOT
BRANCH   1   5
HETATM    5  N   UNL     1      31.518  53.519  40.729  1.00  0.00    -0.184 NA
HETATM    6  C   UNL     1      32.452  52.654  40.445  1.00  0.00     0.152 C 
BRANCH   6   7
HETATM    7  C   UNL     1      32.516  51.267  40.874  1.00  0.00     0.011 A 
HETATM    8  C   UNL     1      31.932  50.090  40.294  1.00  0.00     0.004 A 
HETATM    9  C   UNL     1      31.093  49.841  39.186  1.00  0.00     0.014 A 
HETATM   10  C   UNL     1      32.330  49.001  41.073  1.00  0.00     0.043 A 
HETATM   11  C   UNL     1      30.724  48.527  38.873  1.00  0.00     0.001 A 
HETATM   12  C   UNL     1      31.166  47.463  39.653  1.00  0.00     0.002 A 
HETATM   13  C   UNL     1      31.972  47.681  40.774  1.00  0.00     0.030 A 
HETATM   14  N   UNL     1      33.087  49.498  42.108  1.00  0.00    -0.364 N 
HETATM   15  H   UNL     1      33.513  48.932  42.829  1.00  0.00     0.165 HD
HETATM   16  C   UNL     1      33.170  50.860  42.023  1.00  0.00     0.102 A 
ENDBRANCH   6   7
ENDBRANCH   1   5
BRANCH   2  17
HETATM   17  C   UNL     1      28.000  52.484  41.404  1.00  0.00     0.197 C 
BRANCH  17  18
HETATM   18  N   UNL     1      27.158  51.560  40.638  1.00  0.00    -0.283 NA
HETATM   19  H   UNL     1      26.167  51.813  40.689  1.00  0.00     0.128 HD
BRANCH  18  20
HETATM   20  C   UNL     1      27.374  50.183  40.812  1.00  0.00     0.030 A 
HETATM   21  C   UNL     1      26.764  49.237  39.963  1.00  0.00     0.055 A 
HETATM   22 CL   UNL     1      25.646  49.739  38.740  1.00  0.00    -0.082 Cl
HETATM   23  C   UNL     1      27.012  47.868  40.102  1.00  0.00     0.026 A 
HETATM   24  C   UNL     1      27.898  47.417  41.079  1.00  0.00     0.002 A 
HETATM   25  C   UNL     1      28.537  48.335  41.907  1.00  0.00     0.002 A 
HETATM   26  C   UNL     1      28.283  49.704  41.768  1.00  0.00     0.025 A 
ENDBRANCH  18  20
ENDBRANCH  17  18
ENDBRANCH   2  17
TORSDOF 5
ENDMDL
MODEL 8
REMARK VINA RESULT:      -7.0     12.318     14.221
REMARK  5 active torsions:
REMARK  status: ('A' for Active; 'I' for Inactive)
REMARK    1  A    between atoms: C_8  and  C_9 
REMARK    2  A    between atoms: N_10  and  N_11 
REMARK       I    between atoms: N_11  and  C_12 
REMARK    3  A    between atoms: C_12  and  C_13 
REMARK    4  A    between atoms: C_13  and  N_14 
REMARK    5  A    between atoms: N_14  and  C_15 
ROOT
HETATM    1  N   UNL     1      25.405  45.304  52.610  1.00  0.00    -0.246 N 
HETATM    2  C   UNL     1      24.923  44.900  51.357  1.00  0.00     0.250 C 
HETATM    3  O   UNL     1      23.976  44.136  51.174  1.00  0.00    -0.270 OA
HETATM    4  H   UNL     1      26.411  45.408  52.681  1.00  0.00     0.192 HD
ENDROOT
BRANCH   1   5
HETATM    5  N   UNL     1      24.823  44.845  53.765  1.00  0.00    -0.184 NA
HETATM    6  C   UNL     1      25.569  44.203  54.621  1.00  0.00     0.152 C 
BRANCH   6   7
HETATM    7  C   UNL     1      26.913  43.698  54.400  1.00  0.00     0.011 A 
HETATM    8  C   UNL     1      28.171  44.156  54.918  1.00  0.00     0.004 A 
HETATM    9  C   UNL     1      28.573  45.223  55.751  1.00  0.00     0.014 A 
HETATM   10  C   UNL     1      29.160  43.299  54.429  1.00  0.00     0.043 A 
HETATM   11  C   UNL     1      29.922  45.367  56.098  1.00  0.00     0.001 A 
HETATM   12  C   UNL     1      30.875  44.475  55.616  1.00  0.00     0.002 A 
HETATM   13  C   UNL     1      30.513  43.427  54.765  1.00  0.00     0.030 A 
HETATM   14  N   UNL     1      28.537  42.386  53.611  1.00  0.00    -0.364 N 
HETATM   15  H   UNL     1      29.010  41.639  53.122  1.00  0.00     0.165 HD
HETATM   16  C   UNL     1      27.194  42.642  53.552  1.00  0.00     0.102 A 
ENDBRANCH   6   7
ENDBRANCH   1   5
BRANCH   2  17
HETATM   17  C   UNL     1      25.735  45.527  50.214  1.00  0.00     0.197 C 
BRANCH  17  18
HETATM   18  N   UNL     1      26.085  46.922  50.504  1.00  0.00    -0.283 NA
HETATM   19  H   UNL     1      26.053  47.124  51.507  1.00  0.00     0.128 HD
BRANCH  18  20
HETATM   20  C   UNL     1      25.472  47.922  49.731  1.00  0.00     0.030 A 
HETATM   21  C   UNL     1      26.239  48.892  49.055  1.00  0.00     0.055 A 
HETATM   22 CL   UNL     1      27.960  48.942  49.238  1.00  0.00    -0.082 Cl
HETATM   23  C   UNL     1      25.637  49.862  48.247  1.00  0.00     0.026 A 
HETATM   24  C   UNL     1      24.254  49.865  48.077  1.00  0.00     0.002 A 
HETATM   25  C   UNL     1      23.479  48.897  48.709  1.00  0.00     0.002 A 
HETATM   26  C   UNL     1      24.084  47.931  49.520  1.00  0.00     0.025 A 
ENDBRANCH  18  20
ENDBRANCH  17  18
ENDBRANCH   2  17
TORSDOF 5
ENDMDL
MODEL 9
REMARK VINA RESULT:      -6.9      1.848      2.284
REMARK  5 active torsions:
REMARK  status: ('A' for Active; 'I' for Inactive)
REMARK    1  A    between atoms: C_8  and  C_9 
REMARK    2  A    between atoms: N_10  and  N_11 
REMARK       I    between atoms: N_11  and  C_12 
REMARK    3  A    between atoms: C_12  and  C_13 
REMARK    4  A    between atoms: C_13  and  N_14 
REMARK    5  A    between atoms: N_14  and  C_15 
ROOT
HETATM    1  N   UNL     1      29.619  47.812  38.632  1.00  0.00    -0.246 N 
HETATM    2  C   UNL     1      30.031  47.003  39.700  1.00  0.00     0.250 C 
HETATM    3  O   UNL     1      29.346  46.132  40.235  1.00  0.00    -0.270 OA
HETATM    4  H   UNL     1      29.943  48.773  38.657  1.00  0.00     0.192 HD
ENDROOT
BRANCH   1   5
HETATM    5  N   UNL     1      28.363  47.677  38.096  1.00  0.00    -0.184 NA
HETATM    6  C   UNL     1      27.443  48.530  38.452  1.00  0.00     0.152 C 
BRANCH   6   7
HETATM    7  C   UNL     1      27.516  49.487  39.543  1.00  0.00     0.011 A 
HETATM    8  C   UNL     1      28.044  50.822  39.571  1.00  0.00     0.004 A 
HETATM    9  C   UNL     1      28.692  51.653  38.632  1.00  0.00     0.014 A 
HETATM   10  C   UNL     1      27.834  51.325  40.857  1.00  0.00     0.043 A 
HETATM   11  C   UNL     1      29.060  52.955  38.990  1.00  0.00     0.001 A 
HETATM   12  C   UNL     1      28.806  53.434  40.272  1.00  0.00     0.002 A 
HETATM   13  C   UNL     1      28.195  52.625  41.233  1.00  0.00     0.030 A 
HETATM   14  N   UNL     1      27.244  50.325  41.593  1.00  0.00    -0.364 N 
HETATM   15  H   UNL     1      26.974  50.412  42.563  1.00  0.00     0.165 HD
HETATM   16  C   UNL     1      27.087  49.203  40.827  1.00  0.00     0.102 A 
ENDBRANCH   6   7
ENDBRANCH   1   5
BRANCH   2  17
HETATM   17  C   UNL     1      31.463  47.342  40.141  1.00  0.00     0.197 C 
BRANCH  17  18
HETATM   18  N   UNL     1      31.897  48.639  39.612  1.00  0.00    -0.283 NA
HETATM   19  H   UNL     1      32.774  48.565  39.090  1.00  0.00     0.128 HD
BRANCH  18  20
HETATM   20  C   UNL     1      31.879  49.738  40.486  1.00  0.00     0.030 A 
HETATM   21  C   UNL     1      32.147  51.042  40.021  1.00  0.00     0.055 A 
HETATM   22 CL   UNL     1      32.607  51.316  38.375  1.00  0.00    -0.082 Cl
HETATM   23  C   UNL     1      32.085  52.146  40.878  1.00  0.00     0.026 A 
HETATM   24  C   UNL     1      31.728  51.972  42.213  1.00  0.00     0.002 A 
HETATM   25  C   UNL     1      31.427  50.698  42.687  1.00  0.00     0.002 A 
HETATM   26  C   UNL     1      31.495  49.595  41.829  1.00  0.00     0.025 A 
ENDBRANCH  18  20
ENDBRANCH  17  18
ENDBRANCH   2  17
TORSDOF 5
ENDMDL
MODEL 10
REMARK VINA RESULT:      -6.9     13.350     14.845
REMARK  5 active torsions:
REMARK  status: ('A' for Active; 'I' for Inactive)
REMARK    1  A    between atoms: C_8  and  C_9 
REMARK    2  A    between atoms: N_10  and  N_11 
REMARK       I    between atoms: N_11  and  C_12 
REMARK    3  A    between atoms: C_12  and  C_13 
REMARK    4  A    between atoms: C_13  and  N_14 
REMARK    5  A    between atoms: N_14  and  C_15 
ROOT
HETATM    1  N   UNL     1      26.835  47.130  53.363  1.00  0.00    -0.246 N 
HETATM    2  C   UNL     1      27.207  47.584  54.636  1.00  0.00     0.250 C 
HETATM    3  O   UNL     1      26.498  48.256  55.384  1.00  0.00    -0.270 OA
HETATM    4  H   UNL     1      27.571  47.128  52.664  1.00  0.00     0.192 HD
ENDROOT
BRANCH   1   5
HETATM    5  N   UNL     1      25.598  47.426  52.848  1.00  0.00    -0.184 NA
HETATM    6  C   UNL     1      25.116  46.655  51.913  1.00  0.00     0.152 C 
BRANCH   6   7
HETATM    7  C   UNL     1      25.833  45.635  51.168  1.00  0.00     0.011 A 
HETATM    8  C   UNL     1      26.389  44.386  51.607  1.00  0.00     0.004 A 
HETATM    9  C   UNL     1      26.488  43.726  52.852  1.00  0.00     0.014 A 
HETATM   10  C   UNL     1      26.941  43.759  50.487  1.00  0.00     0.043 A 
HETATM   11  C   UNL     1      27.085  42.462  52.925  1.00  0.00     0.001 A 
HETATM   12  C   UNL     1      27.596  41.853  51.782  1.00  0.00     0.002 A 
HETATM   13  C   UNL     1      27.540  42.495  50.541  1.00  0.00     0.030 A 
HETATM   14  N   UNL     1      26.768  44.609  49.421  1.00  0.00    -0.364 N 
HETATM   15  H   UNL     1      27.069  44.411  48.477  1.00  0.00     0.165 HD
HETATM   16  C   UNL     1      26.143  45.756  49.826  1.00  0.00     0.102 A 
ENDBRANCH   6   7
ENDBRANCH   1   5
BRANCH   2  17
HETATM   17  C   UNL     1      28.634  47.145  54.994  1.00  0.00     0.197 C 
BRANCH  17  18
HETATM   18  N   UNL     1      28.772  45.685  54.964  1.00  0.00    -0.283 NA
HETATM   19  H   UNL     1      27.863  45.216  54.923  1.00  0.00     0.128 HD
BRANCH  18  20
HETATM   20  C   UNL     1      29.645  45.093  55.892  1.00  0.00     0.030 A 
HETATM   21  C   UNL     1      30.416  43.964  55.547  1.00  0.00     0.055 A 
HETATM   22 CL   UNL     1      30.236  43.209  54.000  1.00  0.00    -0.082 Cl
HETATM   23  C   UNL     1      31.322  43.399  56.451  1.00  0.00     0.026 A 
HETATM   24  C   UNL     1      31.493  43.968  57.712  1.00  0.00     0.002 A 
HETATM   25  C   UNL     1      30.766  45.102  58.062  1.00  0.00     0.002 A 
HETATM   26  C   UNL     1      29.859  45.662  57.157  1.00  0.00     0.025 A 
ENDBRANCH  18  20
ENDBRANCH  17  18
ENDBRANCH   2  17
TORSDOF 5
ENDMDL
