MODEL 1
REMARK VINA RESULT:     -10.4      0.000      0.000
REMARK  4 active torsions:
REMARK  status: ('A' for Active; 'I' for Inactive)
REMARK       I    between atoms: C_2  and  N_3 
REMARK    1  A    between atoms: C_2  and  C_21 
REMARK    2  A    between atoms: N_3  and  C_4 
REMARK    3  A    between atoms: C_7  and  C_10 
REMARK    4  A    between atoms: C_24  and  N_27 
ROOT
HETATM    1  C   UNL     1      24.319  45.748  49.952  1.00  0.00     0.035 A 
HETATM    2  C   UNL     1      25.648  45.702  49.522  1.00  0.00     0.030 A 
HETATM    3  C   UNL     1      26.492  44.664  49.933  1.00  0.00     0.016 A 
HETATM    4  C   UNL     1      26.005  43.655  50.765  1.00  0.00    -0.005 A 
HETATM    5  C   UNL     1      24.683  43.698  51.216  1.00  0.00     0.016 A 
HETATM    6  C   UNL     1      23.845  44.738  50.801  1.00  0.00     0.030 A 
ENDROOT
BRANCH   1   7
HETATM    7  N   UNL     1      23.409  46.765  49.593  1.00  0.00    -0.323 N 
HETATM    8  C   UNL     1      23.657  48.123  49.500  1.00  0.00     0.256 C 
HETATM    9  O   UNL     1      24.709  48.697  49.755  1.00  0.00    -0.267 OA
HETATM   10  H   UNL     1      22.450  46.469  49.463  1.00  0.00     0.169 HD
BRANCH   8  11
HETATM   11  C   UNL     1      22.487  48.947  49.082  1.00  0.00     0.032 A 
HETATM   12  C   UNL     1      22.521  50.341  49.087  1.00  0.00     0.019 A 
HETATM   13  C   UNL     1      21.398  51.068  48.670  1.00  0.00     0.030 A 
HETATM   14  C   UNL     1      20.208  50.444  48.255  1.00  0.00     0.030 A 
HETATM   15  C   UNL     1      20.204  49.041  48.268  1.00  0.00     0.030 A 
HETATM   16  C   UNL     1      21.317  48.298  48.686  1.00  0.00     0.019 A 
BRANCH  14  17
HETATM   17  N   UNL     1      19.128  51.206  47.815  1.00  0.00    -0.381 N 
HETATM   18  C   UNL     1      17.892  50.572  47.330  1.00  0.00     0.123 C 
HETATM   19  C   UNL     1      16.862  50.458  48.453  1.00  0.00     0.020 C 
HETATM   20  C   UNL     1      16.610  51.815  49.110  1.00  0.00     0.003 C 
HETATM   21  C   UNL     1      17.920  52.460  49.556  1.00  0.00     0.020 C 
HETATM   22  C   UNL     1      18.920  52.542  48.400  1.00  0.00     0.123 C 
ENDBRANCH  14  17
ENDBRANCH   8  11
ENDBRANCH   1   7
BRANCH   4  23
HETATM   23  C   UNL     1      26.928  42.590  51.229  1.00  0.00     0.098 A 
HETATM   24  N   UNL     1      26.823  41.433  50.644  1.00  0.00    -0.170 NA
HETATM   25  N   UNL     1      27.684  40.444  51.000  1.00  0.00    -0.242 N 
HETATM   26  C   UNL     1      28.712  40.553  51.901  1.00  0.00     0.272 A 
HETATM   27  H   UNL     1      27.589  39.562  50.506  1.00  0.00     0.192 HD
HETATM   28  O   UNL     1      29.491  39.633  52.129  1.00  0.00    -0.266 OA
HETATM   29  C   UNL     1      28.823  41.842  52.604  1.00  0.00     0.046 A 
HETATM   30  C   UNL     1      29.802  42.023  53.589  1.00  0.00     0.018 A 
HETATM   31  C   UNL     1      27.922  42.861  52.300  1.00  0.00     0.011 A 
HETATM   32  C   UNL     1      29.868  43.228  54.286  1.00  0.00     0.001 A 
HETATM   33  C   UNL     1      28.951  44.241  54.009  1.00  0.00     0.001 A 
HETATM   34  C   UNL     1      27.974  44.059  53.025  1.00  0.00     0.015 A 
ENDBRANCH   4  23
TORSDOF 4
ENDMDL
MODEL 2
REMARK VINA RESULT:      -9.7      1.470      1.994
REMARK  4 active torsions:
REMARK  status: ('A' for Active; 'I' for Inactive)
REMARK       I    between atoms: C_2  and  N_3 
REMARK    1  A    between atoms: C_2  and  C_21 
REMARK    2  A    between atoms: N_3  and  C_4 
REMARK    3  A    between atoms: C_7  and  C_10 
REMARK    4  A    between atoms: C_24  and  N_27 
ROOT
HETATM    1  C   UNL     1      24.278  46.186  49.914  1.00  0.00     0.035 A 
HETATM    2  C   UNL     1      25.612  46.554  49.723  1.00  0.00     0.030 A 
HETATM    3  C   UNL     1      26.643  45.851  50.358  1.00  0.00     0.016 A 
HETATM    4  C   UNL     1      26.342  44.760  51.176  1.00  0.00    -0.005 A 
HETATM    5  C   UNL     1      25.012  44.391  51.389  1.00  0.00     0.016 A 
HETATM    6  C   UNL     1      23.988  45.098  50.751  1.00  0.00     0.030 A 
ENDROOT
BRANCH   1   7
HETATM    7  N   UNL     1      23.184  46.850  49.320  1.00  0.00    -0.323 N 
HETATM    8  C   UNL     1      22.959  48.214  49.258  1.00  0.00     0.256 C 
HETATM    9  O   UNL     1      23.654  49.096  49.748  1.00  0.00    -0.267 OA
HETATM   10  H   UNL     1      22.447  46.251  48.968  1.00  0.00     0.169 HD
BRANCH   8  11
HETATM   11  C   UNL     1      21.709  48.611  48.550  1.00  0.00     0.032 A 
HETATM   12  C   UNL     1      20.780  47.671  48.103  1.00  0.00     0.019 A 
HETATM   13  C   UNL     1      19.612  48.098  47.456  1.00  0.00     0.030 A 
HETATM   14  C   UNL     1      19.337  49.456  47.216  1.00  0.00     0.030 A 
HETATM   15  C   UNL     1      20.295  50.375  47.672  1.00  0.00     0.030 A 
HETATM   16  C   UNL     1      21.470  49.965  48.318  1.00  0.00     0.019 A 
BRANCH  14  17
HETATM   17  N   UNL     1      18.147  49.838  46.601  1.00  0.00    -0.381 N 
HETATM   18  C   UNL     1      16.918  49.045  46.755  1.00  0.00     0.123 C 
HETATM   19  C   UNL     1      16.057  49.591  47.894  1.00  0.00     0.020 C 
HETATM   20  C   UNL     1      15.777  51.082  47.708  1.00  0.00     0.003 C 
HETATM   21  C   UNL     1      17.075  51.862  47.503  1.00  0.00     0.020 C 
HETATM   22  C   UNL     1      17.903  51.271  46.360  1.00  0.00     0.123 C 
ENDBRANCH  14  17
ENDBRANCH   8  11
ENDBRANCH   1   7
BRANCH   4  23
HETATM   23  C   UNL     1      27.445  44.057  51.878  1.00  0.00     0.098 A 
HETATM   24  N   UNL     1      27.949  43.019  51.278  1.00  0.00    -0.170 NA
HETATM   25  N   UNL     1      28.996  42.377  51.859  1.00  0.00    -0.242 N 
HETATM   26  C   UNL     1      29.626  42.746  53.021  1.00  0.00     0.272 A 
HETATM   27  H   UNL     1      29.379  41.586  51.352  1.00  0.00     0.192 HD
HETATM   28  O   UNL     1      30.607  42.152  53.457  1.00  0.00    -0.266 OA
HETATM   29  C   UNL     1      29.044  43.893  53.737  1.00  0.00     0.046 A 
HETATM   30  C   UNL     1      29.581  44.300  54.965  1.00  0.00     0.018 A 
HETATM   31  C   UNL     1      27.937  44.543  53.193  1.00  0.00     0.011 A 
HETATM   32  C   UNL     1      28.994  45.355  55.662  1.00  0.00     0.001 A 
HETATM   33  C   UNL     1      27.867  45.990  55.139  1.00  0.00     0.001 A 
HETATM   34  C   UNL     1      27.333  45.583  53.913  1.00  0.00     0.015 A 
ENDBRANCH   4  23
TORSDOF 4
ENDMDL
MODEL 3
REMARK VINA RESULT:      -9.4     14.043     17.395
REMARK  4 active torsions:
REMARK  status: ('A' for Active; 'I' for Inactive)
REMARK       I    between atoms: C_2  and  N_3 
REMARK    1  A    between atoms: C_2  and  C_21 
REMARK    2  A    between atoms: N_3  and  C_4 
REMARK    3  A    between atoms: C_7  and  C_10 
REMARK    4  A    between atoms: C_24  and  N_27 
ROOT
HETATM    1  C   UNL     1      34.558  51.837  43.795  1.00  0.00     0.035 A 
HETATM    2  C   UNL     1      34.589  51.123  42.595  1.00  0.00     0.030 A 
HETATM    3  C   UNL     1      33.411  50.603  42.046  1.00  0.00     0.016 A 
HETATM    4  C   UNL     1      32.190  50.811  42.689  1.00  0.00    -0.005 A 
HETATM    5  C   UNL     1      32.146  51.510  43.898  1.00  0.00     0.016 A 
HETATM    6  C   UNL     1      33.327  52.027  44.441  1.00  0.00     0.030 A 
ENDROOT
BRANCH   1   7
HETATM    7  N   UNL     1      35.701  52.383  44.418  1.00  0.00    -0.323 N 
HETATM    8  C   UNL     1      36.634  53.241  43.863  1.00  0.00     0.256 C 
HETATM    9  O   UNL     1      36.659  53.652  42.709  1.00  0.00    -0.267 OA
HETATM   10  H   UNL     1      35.894  52.044  45.352  1.00  0.00     0.169 HD
BRANCH   8  11
HETATM   11  C   UNL     1      37.731  53.653  44.784  1.00  0.00     0.032 A 
HETATM   12  C   UNL     1      38.346  52.753  45.655  1.00  0.00     0.019 A 
HETATM   13  C   UNL     1      39.384  53.189  46.490  1.00  0.00     0.030 A 
HETATM   14  C   UNL     1      39.832  54.522  46.503  1.00  0.00     0.030 A 
HETATM   15  C   UNL     1      39.188  55.403  45.619  1.00  0.00     0.030 A 
HETATM   16  C   UNL     1      38.145  54.984  44.781  1.00  0.00     0.019 A 
BRANCH  14  17
HETATM   17  N   UNL     1      40.891  54.903  47.323  1.00  0.00    -0.381 N 
HETATM   18  C   UNL     1      41.592  53.926  48.170  1.00  0.00     0.123 C 
HETATM   19  C   UNL     1      42.836  53.387  47.463  1.00  0.00     0.020 C 
HETATM   20  C   UNL     1      43.744  54.525  47.000  1.00  0.00     0.003 C 
HETATM   21  C   UNL     1      42.967  55.542  46.165  1.00  0.00     0.020 C 
HETATM   22  C   UNL     1      41.729  56.042  46.912  1.00  0.00     0.123 C 
ENDBRANCH  14  17
ENDBRANCH   8  11
ENDBRANCH   1   7
BRANCH   4  23
HETATM   23  C   UNL     1      30.959  50.211  42.117  1.00  0.00     0.098 A 
HETATM   24  N   UNL     1      30.654  49.013  42.520  1.00  0.00    -0.170 NA
HETATM   25  N   UNL     1      29.506  48.445  42.064  1.00  0.00    -0.242 N 
HETATM   26  C   UNL     1      28.586  49.037  41.237  1.00  0.00     0.272 A 
HETATM   27  H   UNL     1      29.288  47.520  42.418  1.00  0.00     0.192 HD
HETATM   28  O   UNL     1      27.539  48.486  40.913  1.00  0.00    -0.266 OA
HETATM   29  C   UNL     1      28.933  50.378  40.736  1.00  0.00     0.046 A 
HETATM   30  C   UNL     1      28.084  51.032  39.835  1.00  0.00     0.018 A 
HETATM   31  C   UNL     1      30.128  50.967  41.145  1.00  0.00     0.011 A 
HETATM   32  C   UNL     1      28.442  52.279  39.326  1.00  0.00     0.001 A 
HETATM   33  C   UNL     1      29.651  52.861  39.706  1.00  0.00     0.001 A 
HETATM   34  C   UNL     1      30.498  52.207  40.606  1.00  0.00     0.015 A 
ENDBRANCH   4  23
TORSDOF 4
ENDMDL
MODEL 4
REMARK VINA RESULT:      -9.4      3.934      4.927
REMARK  4 active torsions:
REMARK  status: ('A' for Active; 'I' for Inactive)
REMARK       I    between atoms: C_2  and  N_3 
REMARK    1  A    between atoms: C_2  and  C_21 
REMARK    2  A    between atoms: N_3  and  C_4 
REMARK    3  A    between atoms: C_7  and  C_10 
REMARK    4  A    between atoms: C_24  and  N_27 
ROOT
HETATM    1  C   UNL     1      24.612  46.111  50.824  1.00  0.00     0.035 A 
HETATM    2  C   UNL     1      25.556  47.122  51.019  1.00  0.00     0.030 A 
HETATM    3  C   UNL     1      26.451  47.062  52.094  1.00  0.00     0.016 A 
HETATM    4  C   UNL     1      26.416  45.977  52.971  1.00  0.00    -0.005 A 
HETATM    5  C   UNL     1      25.467  44.968  52.798  1.00  0.00     0.016 A 
HETATM    6  C   UNL     1      24.576  45.034  51.722  1.00  0.00     0.030 A 
ENDROOT
BRANCH   1   7
HETATM    7  N   UNL     1      23.669  46.104  49.774  1.00  0.00    -0.323 N 
HETATM    8  C   UNL     1      23.057  47.196  49.184  1.00  0.00     0.256 C 
HETATM    9  O   UNL     1      23.192  48.372  49.498  1.00  0.00    -0.267 OA
HETATM   10  H   UNL     1      23.355  45.190  49.474  1.00  0.00     0.169 HD
BRANCH   8  11
HETATM   11  C   UNL     1      22.109  46.863  48.083  1.00  0.00     0.032 A 
HETATM   12  C   UNL     1      21.047  47.700  47.740  1.00  0.00     0.019 A 
HETATM   13  C   UNL     1      20.193  47.348  46.686  1.00  0.00     0.030 A 
HETATM   14  C   UNL     1      20.350  46.157  45.955  1.00  0.00     0.030 A 
HETATM   15  C   UNL     1      21.423  45.334  46.330  1.00  0.00     0.030 A 
HETATM   16  C   UNL     1      22.284  45.669  47.384  1.00  0.00     0.019 A 
BRANCH  14  17
HETATM   17  N   UNL     1      19.499  45.864  44.891  1.00  0.00    -0.381 N 
HETATM   18  C   UNL     1      19.728  44.695  44.029  1.00  0.00     0.123 C 
HETATM   19  C   UNL     1      18.913  43.495  44.511  1.00  0.00     0.020 C 
HETATM   20  C   UNL     1      17.432  43.850  44.642  1.00  0.00     0.003 C 
HETATM   21  C   UNL     1      17.242  45.096  45.505  1.00  0.00     0.020 C 
HETATM   22  C   UNL     1      18.085  46.264  44.987  1.00  0.00     0.123 C 
ENDBRANCH  14  17
ENDBRANCH   8  11
ENDBRANCH   1   7
BRANCH   4  23
HETATM   23  C   UNL     1      27.341  45.955  54.132  1.00  0.00     0.098 A 
HETATM   24  N   UNL     1      27.142  46.854  55.051  1.00  0.00    -0.170 NA
HETATM   25  N   UNL     1      27.931  46.838  56.158  1.00  0.00    -0.242 N 
HETATM   26  C   UNL     1      28.911  45.919  56.438  1.00  0.00     0.272 A 
HETATM   27  H   UNL     1      27.732  47.538  56.864  1.00  0.00     0.192 HD
HETATM   28  O   UNL     1      29.544  45.930  57.488  1.00  0.00    -0.266 OA
HETATM   29  C   UNL     1      29.178  44.918  55.392  1.00  0.00     0.046 A 
HETATM   30  C   UNL     1      30.205  43.981  55.563  1.00  0.00     0.018 A 
HETATM   31  C   UNL     1      28.421  44.940  54.222  1.00  0.00     0.011 A 
HETATM   32  C   UNL     1      30.487  43.070  54.547  1.00  0.00     0.001 A 
HETATM   33  C   UNL     1      29.755  43.105  53.361  1.00  0.00     0.001 A 
HETATM   34  C   UNL     1      28.729  44.041  53.192  1.00  0.00     0.015 A 
ENDBRANCH   4  23
TORSDOF 4
ENDMDL
MODEL 5
REMARK VINA RESULT:      -9.3      4.154      5.222
REMARK  4 active torsions:
REMARK  status: ('A' for Active; 'I' for Inactive)
REMARK       I    between atoms: C_2  and  N_3 
REMARK    1  A    between atoms: C_2  and  C_21 
REMARK    2  A    between atoms: N_3  and  C_4 
REMARK    3  A    between atoms: C_7  and  C_10 
REMARK    4  A    between atoms: C_24  and  N_27 
ROOT
HETATM    1  C   UNL     1      24.730  45.320  51.653  1.00  0.00     0.035 A 
HETATM    2  C   UNL     1      24.893  44.323  52.618  1.00  0.00     0.030 A 
HETATM    3  C   UNL     1      25.820  44.483  53.655  1.00  0.00     0.016 A 
HETATM    4  C   UNL     1      26.576  45.652  53.742  1.00  0.00    -0.005 A 
HETATM    5  C   UNL     1      26.434  46.650  52.776  1.00  0.00     0.016 A 
HETATM    6  C   UNL     1      25.507  46.485  51.742  1.00  0.00     0.030 A 
ENDROOT
BRANCH   1   7
HETATM    7  N   UNL     1      23.827  45.231  50.572  1.00  0.00    -0.323 N 
HETATM    8  C   UNL     1      24.047  44.644  49.338  1.00  0.00     0.256 C 
HETATM    9  O   UNL     1      25.086  44.128  48.944  1.00  0.00    -0.267 OA
HETATM   10  H   UNL     1      22.950  45.720  50.692  1.00  0.00     0.169 HD
BRANCH   8  11
HETATM   11  C   UNL     1      22.888  44.701  48.402  1.00  0.00     0.032 A 
HETATM   12  C   UNL     1      23.012  44.393  47.048  1.00  0.00     0.019 A 
HETATM   13  C   UNL     1      21.887  44.447  46.213  1.00  0.00     0.030 A 
HETATM   14  C   UNL     1      20.617  44.823  46.685  1.00  0.00     0.030 A 
HETATM   15  C   UNL     1      20.527  45.134  48.051  1.00  0.00     0.030 A 
HETATM   16  C   UNL     1      21.643  45.089  48.898  1.00  0.00     0.019 A 
BRANCH  14  17
HETATM   17  N   UNL     1      19.519  44.830  45.828  1.00  0.00    -0.381 N 
HETATM   18  C   UNL     1      18.144  44.885  46.347  1.00  0.00     0.123 C 
HETATM   19  C   UNL     1      17.636  46.326  46.388  1.00  0.00     0.020 C 
HETATM   20  C   UNL     1      17.778  47.000  45.024  1.00  0.00     0.003 C 
HETATM   21  C   UNL     1      19.207  46.879  44.500  1.00  0.00     0.020 C 
HETATM   22  C   UNL     1      19.672  45.421  44.488  1.00  0.00     0.123 C 
ENDBRANCH  14  17
ENDBRANCH   8  11
ENDBRANCH   1   7
BRANCH   4  23
HETATM   23  C   UNL     1      27.587  45.782  54.821  1.00  0.00     0.098 A 
HETATM   24  N   UNL     1      27.380  46.715  55.704  1.00  0.00    -0.170 NA
HETATM   25  N   UNL     1      28.251  46.835  56.740  1.00  0.00    -0.242 N 
HETATM   26  C   UNL     1      29.329  46.023  56.987  1.00  0.00     0.272 A 
HETATM   27  H   UNL     1      28.045  47.557  57.422  1.00  0.00     0.192 HD
HETATM   28  O   UNL     1      30.039  46.153  57.978  1.00  0.00    -0.266 OA
HETATM   29  C   UNL     1      29.604  44.988  55.977  1.00  0.00     0.046 A 
HETATM   30  C   UNL     1      30.723  44.155  56.113  1.00  0.00     0.018 A 
HETATM   31  C   UNL     1      28.759  44.871  54.875  1.00  0.00     0.011 A 
HETATM   32  C   UNL     1      31.006  43.211  55.128  1.00  0.00     0.001 A 
HETATM   33  C   UNL     1      30.183  43.109  54.007  1.00  0.00     0.001 A 
HETATM   34  C   UNL     1      29.066  43.941  53.874  1.00  0.00     0.015 A 
ENDBRANCH   4  23
TORSDOF 4
ENDMDL
MODEL 6
REMARK VINA RESULT:      -9.2      8.015     11.140
REMARK  4 active torsions:
REMARK  status: ('A' for Active; 'I' for Inactive)
REMARK       I    between atoms: C_2  and  N_3 
REMARK    1  A    between atoms: C_2  and  C_21 
REMARK    2  A    between atoms: N_3  and  C_4 
REMARK    3  A    between atoms: C_7  and  C_10 
REMARK    4  A    between atoms: C_24  and  N_27 
ROOT
HETATM    1  C   UNL     1      28.460  41.395  51.708  1.00  0.00     0.035 A 
HETATM    2  C   UNL     1      28.605  41.003  53.042  1.00  0.00     0.030 A 
HETATM    3  C   UNL     1      28.672  41.961  54.061  1.00  0.00     0.016 A 
HETATM    4  C   UNL     1      28.577  43.318  53.751  1.00  0.00    -0.005 A 
HETATM    5  C   UNL     1      28.449  43.724  52.421  1.00  0.00     0.016 A 
HETATM    6  C   UNL     1      28.382  42.762  51.407  1.00  0.00     0.030 A 
ENDROOT
BRANCH   1   7
HETATM    7  N   UNL     1      28.396  40.493  50.624  1.00  0.00    -0.323 N 
HETATM    8  C   UNL     1      27.263  39.931  50.063  1.00  0.00     0.256 C 
HETATM    9  O   UNL     1      26.105  40.082  50.435  1.00  0.00    -0.267 OA
HETATM   10  H   UNL     1      29.287  40.168  50.271  1.00  0.00     0.169 HD
BRANCH   8  11
HETATM   11  C   UNL     1      27.521  39.018  48.913  1.00  0.00     0.032 A 
HETATM   12  C   UNL     1      26.503  38.595  48.058  1.00  0.00     0.019 A 
HETATM   13  C   UNL     1      26.802  37.749  46.982  1.00  0.00     0.030 A 
HETATM   14  C   UNL     1      28.104  37.282  46.730  1.00  0.00     0.030 A 
HETATM   15  C   UNL     1      29.104  37.721  47.612  1.00  0.00     0.030 A 
HETATM   16  C   UNL     1      28.821  38.564  48.696  1.00  0.00     0.019 A 
BRANCH  14  17
HETATM   17  N   UNL     1      28.362  36.471  45.627  1.00  0.00    -0.381 N 
HETATM   18  C   UNL     1      27.323  36.189  44.626  1.00  0.00     0.123 C 
HETATM   19  C   UNL     1      27.422  37.161  43.450  1.00  0.00     0.020 C 
HETATM   20  C   UNL     1      28.830  37.165  42.855  1.00  0.00     0.003 C 
HETATM   21  C   UNL     1      29.881  37.413  43.934  1.00  0.00     0.020 C 
HETATM   22  C   UNL     1      29.733  36.422  45.091  1.00  0.00     0.123 C 
ENDBRANCH  14  17
ENDBRANCH   8  11
ENDBRANCH   1   7
BRANCH   4  23
HETATM   23  C   UNL     1      28.699  44.319  54.839  1.00  0.00     0.098 A 
HETATM   24  N   UNL     1      27.806  45.264  54.864  1.00  0.00    -0.170 NA
HETATM   25  N   UNL     1      27.847  46.172  55.874  1.00  0.00    -0.242 N 
HETATM   26  C   UNL     1      28.727  46.170  56.927  1.00  0.00     0.272 A 
HETATM   27  H   UNL     1      27.121  46.881  55.875  1.00  0.00     0.192 HD
HETATM   28  O   UNL     1      28.667  46.988  57.839  1.00  0.00    -0.266 OA
HETATM   29  C   UNL     1      29.772  45.133  56.895  1.00  0.00     0.046 A 
HETATM   30  C   UNL     1      30.753  45.095  57.893  1.00  0.00     0.018 A 
HETATM   31  C   UNL     1      29.789  44.218  55.844  1.00  0.00     0.011 A 
HETATM   32  C   UNL     1      31.769  44.143  57.830  1.00  0.00     0.001 A 
HETATM   33  C   UNL     1      31.811  43.243  56.765  1.00  0.00     0.001 A 
HETATM   34  C   UNL     1      30.829  43.282  55.769  1.00  0.00     0.015 A 
ENDBRANCH   4  23
TORSDOF 4
ENDMDL
MODEL 7
REMARK VINA RESULT:      -9.1      3.223     11.185
REMARK  4 active torsions:
REMARK  status: ('A' for Active; 'I' for Inactive)
REMARK       I    between atoms: C_2  and  N_3 
REMARK    1  A    between atoms: C_2  and  C_21 
REMARK    2  A    between atoms: N_3  and  C_4 
REMARK    3  A    between atoms: C_7  and  C_10 
REMARK    4  A    between atoms: C_24  and  N_27 
ROOT
HETATM    1  C   UNL     1      24.614  46.106  50.469  1.00  0.00     0.035 A 
HETATM    2  C   UNL     1      23.921  45.038  49.893  1.00  0.00     0.030 A 
HETATM    3  C   UNL     1      22.926  45.270  48.937  1.00  0.00     0.016 A 
HETATM    4  C   UNL     1      22.631  46.574  48.537  1.00  0.00    -0.005 A 
HETATM    5  C   UNL     1      23.305  47.652  49.116  1.00  0.00     0.016 A 
HETATM    6  C   UNL     1      24.298  47.414  50.071  1.00  0.00     0.030 A 
ENDROOT
BRANCH   1   7
HETATM    7  N   UNL     1      25.621  45.957  51.446  1.00  0.00    -0.323 N 
HETATM    8  C   UNL     1      25.577  45.179  52.589  1.00  0.00     0.256 C 
HETATM    9  O   UNL     1      24.633  44.505  52.984  1.00  0.00    -0.267 OA
HETATM   10  H   UNL     1      26.435  46.548  51.330  1.00  0.00     0.169 HD
BRANCH   8  11
HETATM   11  C   UNL     1      26.811  45.222  53.425  1.00  0.00     0.032 A 
HETATM   12  C   UNL     1      27.782  44.222  53.366  1.00  0.00     0.019 A 
HETATM   13  C   UNL     1      28.932  44.319  54.161  1.00  0.00     0.030 A 
HETATM   14  C   UNL     1      29.148  45.390  55.047  1.00  0.00     0.030 A 
HETATM   15  C   UNL     1      28.149  46.376  55.087  1.00  0.00     0.030 A 
HETATM   16  C   UNL     1      26.991  46.292  54.301  1.00  0.00     0.019 A 
BRANCH  14  17
HETATM   17  N   UNL     1      30.322  45.464  55.792  1.00  0.00    -0.381 N 
HETATM   18  C   UNL     1      30.400  46.275  57.017  1.00  0.00     0.123 C 
HETATM   19  C   UNL     1      30.123  45.421  58.253  1.00  0.00     0.020 C 
HETATM   20  C   UNL     1      31.038  44.197  58.297  1.00  0.00     0.003 C 
HETATM   21  C   UNL     1      30.963  43.411  56.990  1.00  0.00     0.020 C 
HETATM   22  C   UNL     1      31.239  44.311  55.783  1.00  0.00     0.123 C 
ENDBRANCH  14  17
ENDBRANCH   8  11
ENDBRANCH   1   7
BRANCH   4  23
HETATM   23  C   UNL     1      21.540  46.802  47.557  1.00  0.00     0.098 A 
HETATM   24  N   UNL     1      21.723  46.327  46.361  1.00  0.00    -0.170 NA
HETATM   25  N   UNL     1      20.728  46.465  45.446  1.00  0.00    -0.242 N 
HETATM   26  C   UNL     1      19.496  47.027  45.672  1.00  0.00     0.272 A 
HETATM   27  H   UNL     1      20.895  46.061  44.531  1.00  0.00     0.192 HD
HETATM   28  O   UNL     1      18.621  47.063  44.813  1.00  0.00    -0.266 OA
HETATM   29  C   UNL     1      19.285  47.608  47.008  1.00  0.00     0.046 A 
HETATM   30  C   UNL     1      18.082  48.260  47.307  1.00  0.00     0.018 A 
HETATM   31  C   UNL     1      20.306  47.528  47.953  1.00  0.00     0.011 A 
HETATM   32  C   UNL     1      17.907  48.853  48.556  1.00  0.00     0.001 A 
HETATM   33  C   UNL     1      18.936  48.804  49.496  1.00  0.00     0.001 A 
HETATM   34  C   UNL     1      20.136  48.152  49.196  1.00  0.00     0.015 A 
ENDBRANCH   4  23
TORSDOF 4
ENDMDL
MODEL 8
REMARK VINA RESULT:      -9.1      7.364     11.855
REMARK  4 active torsions:
REMARK  status: ('A' for Active; 'I' for Inactive)
REMARK       I    between atoms: C_2  and  N_3 
REMARK    1  A    between atoms: C_2  and  C_21 
REMARK    2  A    between atoms: N_3  and  C_4 
REMARK    3  A    between atoms: C_7  and  C_10 
REMARK    4  A    between atoms: C_24  and  N_27 
ROOT
HETATM    1  C   UNL     1      27.678  40.694  51.171  1.00  0.00     0.035 A 
HETATM    2  C   UNL     1      28.589  40.730  52.230  1.00  0.00     0.030 A 
HETATM    3  C   UNL     1      28.659  41.846  53.071  1.00  0.00     0.016 A 
HETATM    4  C   UNL     1      27.801  42.928  52.868  1.00  0.00    -0.005 A 
HETATM    5  C   UNL     1      26.896  42.913  51.804  1.00  0.00     0.016 A 
HETATM    6  C   UNL     1      26.832  41.795  50.967  1.00  0.00     0.030 A 
ENDROOT
BRANCH   1   7
HETATM    7  N   UNL     1      27.554  39.613  50.273  1.00  0.00    -0.323 N 
HETATM    8  C   UNL     1      28.233  39.427  49.081  1.00  0.00     0.256 C 
HETATM    9  O   UNL     1      29.040  40.192  48.567  1.00  0.00    -0.267 OA
HETATM   10  H   UNL     1      26.831  38.941  50.494  1.00  0.00     0.169 HD
BRANCH   8  11
HETATM   11  C   UNL     1      27.890  38.171  48.355  1.00  0.00     0.032 A 
HETATM   12  C   UNL     1      26.925  37.281  48.828  1.00  0.00     0.019 A 
HETATM   13  C   UNL     1      26.628  36.121  48.099  1.00  0.00     0.030 A 
HETATM   14  C   UNL     1      27.284  35.798  46.897  1.00  0.00     0.030 A 
HETATM   15  C   UNL     1      28.253  36.711  46.453  1.00  0.00     0.030 A 
HETATM   16  C   UNL     1      28.565  37.873  47.172  1.00  0.00     0.019 A 
BRANCH  14  17
HETATM   17  N   UNL     1      26.932  34.653  46.187  1.00  0.00    -0.381 N 
HETATM   18  C   UNL     1      27.770  34.147  45.089  1.00  0.00     0.123 C 
HETATM   19  C   UNL     1      28.735  33.074  45.592  1.00  0.00     0.020 C 
HETATM   20  C   UNL     1      27.989  31.960  46.326  1.00  0.00     0.003 C 
HETATM   21  C   UNL     1      27.095  32.531  47.425  1.00  0.00     0.020 C 
HETATM   22  C   UNL     1      26.156  33.606  46.873  1.00  0.00     0.123 C 
ENDBRANCH  14  17
ENDBRANCH   8  11
ENDBRANCH   1   7
BRANCH   4  23
HETATM   23  C   UNL     1      27.922  44.122  53.741  1.00  0.00     0.098 A 
HETATM   24  N   UNL     1      27.035  45.058  53.574  1.00  0.00    -0.170 NA
HETATM   25  N   UNL     1      27.075  46.145  54.388  1.00  0.00    -0.242 N 
HETATM   26  C   UNL     1      27.949  46.344  55.428  1.00  0.00     0.272 A 
HETATM   27  H   UNL     1      26.354  46.844  54.246  1.00  0.00     0.192 HD
HETATM   28  O   UNL     1      27.888  47.325  56.162  1.00  0.00    -0.266 OA
HETATM   29  C   UNL     1      28.987  45.316  55.607  1.00  0.00     0.046 A 
HETATM   30  C   UNL     1      29.962  45.468  56.601  1.00  0.00     0.018 A 
HETATM   31  C   UNL     1      29.005  44.213  54.755  1.00  0.00     0.011 A 
HETATM   32  C   UNL     1      30.972  44.517  56.732  1.00  0.00     0.001 A 
HETATM   33  C   UNL     1      31.014  43.426  55.864  1.00  0.00     0.001 A 
HETATM   34  C   UNL     1      30.040  43.276  54.872  1.00  0.00     0.015 A 
ENDBRANCH   4  23
TORSDOF 4
ENDMDL
MODEL 9
REMARK VINA RESULT:      -8.7     13.354     16.713
REMARK  4 active torsions:
REMARK  status: ('A' for Active; 'I' for Inactive)
REMARK       I    between atoms: C_2  and  N_3 
REMARK    1  A    between atoms: C_2  and  C_21 
REMARK    2  A    between atoms: N_3  and  C_4 
REMARK    3  A    between atoms: C_7  and  C_10 
REMARK    4  A    between atoms: C_24  and  N_27 
ROOT
HETATM    1  C   UNL     1      32.659  51.368  42.096  1.00  0.00     0.035 A 
HETATM    2  C   UNL     1      31.867  50.413  42.739  1.00  0.00     0.030 A 
HETATM    3  C   UNL     1      30.626  50.044  42.207  1.00  0.00     0.016 A 
HETATM    4  C   UNL     1      30.178  50.617  41.016  1.00  0.00    -0.005 A 
HETATM    5  C   UNL     1      30.951  51.585  40.372  1.00  0.00     0.016 A 
HETATM    6  C   UNL     1      32.190  51.949  40.908  1.00  0.00     0.030 A 
ENDROOT
BRANCH   1   7
HETATM    7  N   UNL     1      33.914  51.802  42.572  1.00  0.00    -0.323 N 
HETATM    8  C   UNL     1      35.124  51.138  42.483  1.00  0.00     0.256 C 
HETATM    9  O   UNL     1      35.319  50.025  42.009  1.00  0.00    -0.267 OA
HETATM   10  H   UNL     1      33.907  52.664  43.104  1.00  0.00     0.169 HD
BRANCH   8  11
HETATM   11  C   UNL     1      36.283  51.865  43.076  1.00  0.00     0.032 A 
HETATM   12  C   UNL     1      37.584  51.700  42.600  1.00  0.00     0.019 A 
HETATM   13  C   UNL     1      38.636  52.420  43.182  1.00  0.00     0.030 A 
HETATM   14  C   UNL     1      38.440  53.305  44.257  1.00  0.00     0.030 A 
HETATM   15  C   UNL     1      37.120  53.443  44.716  1.00  0.00     0.030 A 
HETATM   16  C   UNL     1      36.057  52.728  44.148  1.00  0.00     0.019 A 
BRANCH  14  17
HETATM   17  N   UNL     1      39.509  54.027  44.782  1.00  0.00    -0.381 N 
HETATM   18  C   UNL     1      39.296  55.115  45.748  1.00  0.00     0.123 C 
HETATM   19  C   UNL     1      39.435  54.605  47.182  1.00  0.00     0.020 C 
HETATM   20  C   UNL     1      40.769  53.888  47.386  1.00  0.00     0.003 C 
HETATM   21  C   UNL     1      40.972  52.799  46.335  1.00  0.00     0.020 C 
HETATM   22  C   UNL     1      40.814  53.358  44.919  1.00  0.00     0.123 C 
ENDBRANCH  14  17
ENDBRANCH   8  11
ENDBRANCH   1   7
BRANCH   4  23
HETATM   23  C   UNL     1      28.838  50.248  40.495  1.00  0.00     0.098 A 
HETATM   24  N   UNL     1      27.844  51.005  40.856  1.00  0.00    -0.170 NA
HETATM   25  N   UNL     1      26.608  50.737  40.359  1.00  0.00    -0.242 N 
HETATM   26  C   UNL     1      26.297  49.753  39.454  1.00  0.00     0.272 A 
HETATM   27  H   UNL     1      25.861  51.361  40.643  1.00  0.00     0.192 HD
HETATM   28  O   UNL     1      25.167  49.606  39.001  1.00  0.00    -0.266 OA
HETATM   29  C   UNL     1      27.401  48.860  39.065  1.00  0.00     0.046 A 
HETATM   30  C   UNL     1      27.163  47.787  38.196  1.00  0.00     0.018 A 
HETATM   31  C   UNL     1      28.671  49.077  39.597  1.00  0.00     0.011 A 
HETATM   32  C   UNL     1      28.200  46.915  37.871  1.00  0.00     0.001 A 
HETATM   33  C   UNL     1      29.466  47.107  38.424  1.00  0.00     0.001 A 
HETATM   34  C   UNL     1      29.702  48.179  39.291  1.00  0.00     0.015 A 
ENDBRANCH   4  23
TORSDOF 4
ENDMDL
MODEL 10
REMARK VINA RESULT:      -8.5      7.135     11.737
REMARK  4 active torsions:
REMARK  status: ('A' for Active; 'I' for Inactive)
REMARK       I    between atoms: C_2  and  N_3 
REMARK    1  A    between atoms: C_2  and  C_21 
REMARK    2  A    between atoms: N_3  and  C_4 
REMARK    3  A    between atoms: C_7  and  C_10 
REMARK    4  A    between atoms: C_24  and  N_27 
ROOT
HETATM    1  C   UNL     1      28.194  40.563  51.460  1.00  0.00     0.035 A 
HETATM    2  C   UNL     1      28.451  40.218  52.789  1.00  0.00     0.030 A 
HETATM    3  C   UNL     1      28.748  41.205  53.736  1.00  0.00     0.016 A 
HETATM    4  C   UNL     1      28.771  42.549  53.360  1.00  0.00    -0.005 A 
HETATM    5  C   UNL     1      28.533  42.907  52.031  1.00  0.00     0.016 A 
HETATM    6  C   UNL     1      28.237  41.916  51.090  1.00  0.00     0.030 A 
ENDROOT
BRANCH   1   7
HETATM    7  N   UNL     1      27.900  39.629  50.444  1.00  0.00    -0.323 N 
HETATM    8  C   UNL     1      28.724  38.632  49.952  1.00  0.00     0.256 C 
HETATM    9  O   UNL     1      29.882  38.407  50.281  1.00  0.00    -0.267 OA
HETATM   10  H   UNL     1      27.011  39.756  49.977  1.00  0.00     0.169 HD
BRANCH   8  11
HETATM   11  C   UNL     1      28.119  37.793  48.879  1.00  0.00     0.032 A 
HETATM   12  C   UNL     1      27.021  36.966  49.115  1.00  0.00     0.019 A 
HETATM   13  C   UNL     1      26.479  36.208  48.068  1.00  0.00     0.030 A 
HETATM   14  C   UNL     1      27.015  36.230  46.767  1.00  0.00     0.030 A 
HETATM   15  C   UNL     1      28.123  37.067  46.565  1.00  0.00     0.030 A 
HETATM   16  C   UNL     1      28.679  37.828  47.603  1.00  0.00     0.019 A 
BRANCH  14  17
HETATM   17  N   UNL     1      26.423  35.487  45.748  1.00  0.00    -0.381 N 
HETATM   18  C   UNL     1      27.086  35.312  44.447  1.00  0.00     0.123 C 
HETATM   19  C   UNL     1      27.881  34.007  44.413  1.00  0.00     0.020 C 
HETATM   20  C   UNL     1      27.003  32.815  44.794  1.00  0.00     0.003 C 
HETATM   21  C   UNL     1      26.297  33.058  46.126  1.00  0.00     0.020 C 
HETATM   22  C   UNL     1      25.524  34.379  46.111  1.00  0.00     0.123 C 
ENDBRANCH  14  17
ENDBRANCH   8  11
ENDBRANCH   1   7
BRANCH   4  23
HETATM   23  C   UNL     1      29.135  43.576  54.367  1.00  0.00     0.098 A 
HETATM   24  N   UNL     1      30.206  43.349  55.069  1.00  0.00    -0.170 NA
HETATM   25  N   UNL     1      30.607  44.288  55.966  1.00  0.00    -0.242 N 
HETATM   26  C   UNL     1      30.011  45.505  56.182  1.00  0.00     0.272 A 
HETATM   27  H   UNL     1      31.459  44.089  56.479  1.00  0.00     0.192 HD
HETATM   28  O   UNL     1      30.465  46.332  56.967  1.00  0.00    -0.266 OA
HETATM   29  C   UNL     1      28.774  45.764  55.427  1.00  0.00     0.046 A 
HETATM   30  C   UNL     1      28.062  46.952  55.631  1.00  0.00     0.018 A 
HETATM   31  C   UNL     1      28.307  44.798  54.536  1.00  0.00     0.011 A 
HETATM   32  C   UNL     1      26.865  47.168  54.951  1.00  0.00     0.001 A 
HETATM   33  C   UNL     1      26.376  46.194  54.082  1.00  0.00     0.001 A 
HETATM   34  C   UNL     1      27.088  45.008  53.878  1.00  0.00     0.015 A 
ENDBRANCH   4  23
TORSDOF 4
ENDMDL
