MODEL 1
REMARK VINA RESULT:      -8.9      0.000      0.000
REMARK  6 active torsions:
REMARK  status: ('A' for Active; 'I' for Inactive)
REMARK    1  A    between atoms: C_2  and  C_3 
REMARK       I    between atoms: C_3  and  N_4 
REMARK    2  A    between atoms: N_4  and  C_5 
REMARK    3  A    between atoms: C_7  and  N_8 
REMARK       I    between atoms: N_8  and  C_9 
REMARK    4  A    between atoms: C_9  and  C_10 
REMARK    5  A    between atoms: C_12  and  O_13 
REMARK    6  A    between atoms: O_13  and  C_14 
ROOT
HETATM    1  N   UNL     1      26.005  47.037  50.203  1.00  0.00    -0.322 N 
HETATM    2  C   UNL     1      25.931  46.789  51.564  1.00  0.00     0.256 C 
HETATM    3  O   UNL     1      25.615  47.614  52.415  1.00  0.00    -0.267 OA
HETATM    4  H   UNL     1      26.506  46.387  49.621  1.00  0.00     0.169 HD
ENDROOT
BRANCH   1   5
HETATM    5  C   UNL     1      25.462  48.168  49.537  1.00  0.00     0.043 A 
HETATM    6  C   UNL     1      24.071  48.358  49.435  1.00  0.00     0.059 A 
HETATM    7  C   UNL     1      23.531  49.428  48.716  1.00  0.00     0.036 A 
HETATM    8  C   UNL     1      24.399  50.339  48.114  1.00  0.00     0.030 A 
HETATM    9  C   UNL     1      25.781  50.164  48.201  1.00  0.00     0.011 A 
HETATM   10  C   UNL     1      26.329  49.080  48.906  1.00  0.00    -0.035 A 
HETATM   11  C   UNL     1      27.826  48.943  48.950  1.00  0.00     0.050 C 
BRANCH   7  12
HETATM   12  N   UNL     1      22.146  49.650  48.550  1.00  0.00    -0.327 N 
HETATM   13  C   UNL     1      21.315  50.426  49.338  1.00  0.00     0.221 C 
HETATM   14  O   UNL     1      21.615  50.997  50.383  1.00  0.00    -0.273 OA
HETATM   15  H   UNL     1      21.704  49.131  47.802  1.00  0.00     0.169 HD
BRANCH  13  16
HETATM   16  C   UNL     1      19.886  50.476  48.825  1.00  0.00     0.098 C 
HETATM   17  C   UNL     1      19.444  51.880  48.452  1.00  0.00     0.014 C 
ENDBRANCH  13  16
ENDBRANCH   7  12
ENDBRANCH   1   5
BRANCH   2  18
HETATM   18  C   UNL     1      26.275  45.415  52.036  1.00  0.00     0.037 A 
HETATM   19  C   UNL     1      26.988  45.139  53.202  1.00  0.00     0.075 A 
HETATM   20  C   UNL     1      27.262  43.813  53.490  1.00  0.00     0.165 A 
HETATM   21  N   UNL     1      26.882  42.772  52.722  1.00  0.00    -0.237 NA
HETATM   22  C   UNL     1      26.184  43.061  51.608  1.00  0.00     0.120 A 
HETATM   23  C   UNL     1      25.861  44.349  51.228  1.00  0.00     0.036 A 
BRANCH  20  24
HETATM   24  O   UNL     1      27.974  43.562  54.649  1.00  0.00    -0.329 OA
BRANCH  24  25
HETATM   25  C   UNL     1      29.330  44.063  54.672  1.00  0.00     0.130 C 
HETATM   26  C   UNL     1      30.412  43.147  55.307  1.00  0.00     0.032 C 
HETATM   27  C   UNL     1      31.034  44.415  55.920  1.00  0.00     0.005 C 
HETATM   28  C   UNL     1      29.639  45.061  55.819  1.00  0.00     0.032 C 
ENDBRANCH  24  25
ENDBRANCH  20  24
ENDBRANCH   2  18
TORSDOF 6
ENDMDL
MODEL 2
REMARK VINA RESULT:      -8.7      1.731      9.351
REMARK  6 active torsions:
REMARK  status: ('A' for Active; 'I' for Inactive)
REMARK    1  A    between atoms: C_2  and  C_3 
REMARK       I    between atoms: C_3  and  N_4 
REMARK    2  A    between atoms: N_4  and  C_5 
REMARK    3  A    between atoms: C_7  and  N_8 
REMARK       I    between atoms: N_8  and  C_9 
REMARK    4  A    between atoms: C_9  and  C_10 
REMARK    5  A    between atoms: C_12  and  O_13 
REMARK    6  A    between atoms: O_13  and  C_14 
ROOT
HETATM    1  N   UNL     1      25.644  47.316  51.657  1.00  0.00    -0.322 N 
HETATM    2  C   UNL     1      26.105  47.342  50.351  1.00  0.00     0.256 C 
HETATM    3  O   UNL     1      27.007  46.638  49.907  1.00  0.00    -0.267 OA
HETATM    4  H   UNL     1      25.089  48.088  51.987  1.00  0.00     0.169 HD
ENDROOT
BRANCH   1   5
HETATM    5  C   UNL     1      25.918  46.301  52.612  1.00  0.00     0.043 A 
HETATM    6  C   UNL     1      26.857  46.498  53.640  1.00  0.00     0.059 A 
HETATM    7  C   UNL     1      27.185  45.477  54.536  1.00  0.00     0.036 A 
HETATM    8  C   UNL     1      26.538  44.247  54.417  1.00  0.00     0.030 A 
HETATM    9  C   UNL     1      25.607  44.031  53.400  1.00  0.00     0.011 A 
HETATM   10  C   UNL     1      25.287  45.048  52.486  1.00  0.00    -0.035 A 
HETATM   11  C   UNL     1      24.285  44.745  51.406  1.00  0.00     0.050 C 
BRANCH   7  12
HETATM   12  N   UNL     1      28.144  45.606  55.565  1.00  0.00    -0.327 N 
HETATM   13  C   UNL     1      29.402  45.032  55.622  1.00  0.00     0.221 C 
HETATM   14  O   UNL     1      29.882  44.231  54.826  1.00  0.00    -0.273 OA
HETATM   15  H   UNL     1      27.849  46.129  56.379  1.00  0.00     0.169 HD
BRANCH  13  16
HETATM   16  C   UNL     1      30.183  45.434  56.862  1.00  0.00     0.098 C 
HETATM   17  C   UNL     1      29.303  46.045  57.938  1.00  0.00     0.014 C 
ENDBRANCH  13  16
ENDBRANCH   7  12
ENDBRANCH   1   5
BRANCH   2  18
HETATM   18  C   UNL     1      25.466  48.310  49.411  1.00  0.00     0.037 A 
HETATM   19  C   UNL     1      24.096  48.368  49.152  1.00  0.00     0.075 A 
HETATM   20  C   UNL     1      23.656  49.298  48.226  1.00  0.00     0.165 A 
HETATM   21  N   UNL     1      24.460  50.153  47.563  1.00  0.00    -0.237 NA
HETATM   22  C   UNL     1      25.775  50.088  47.838  1.00  0.00     0.120 A 
HETATM   23  C   UNL     1      26.318  49.196  48.742  1.00  0.00     0.036 A 
BRANCH  20  24
HETATM   24  O   UNL     1      22.295  49.335  47.980  1.00  0.00    -0.329 OA
BRANCH  24  25
HETATM   25  C   UNL     1      21.672  50.634  48.098  1.00  0.00     0.130 C 
HETATM   26  C   UNL     1      21.106  51.024  49.491  1.00  0.00     0.032 C 
HETATM   27  C   UNL     1      19.917  51.669  48.756  1.00  0.00     0.005 C 
HETATM   28  C   UNL     1      20.207  50.705  47.590  1.00  0.00     0.032 C 
ENDBRANCH  24  25
ENDBRANCH  20  24
ENDBRANCH   2  18
TORSDOF 6
ENDMDL
MODEL 3
REMARK VINA RESULT:      -8.5      1.670      9.267
REMARK  6 active torsions:
REMARK  status: ('A' for Active; 'I' for Inactive)
REMARK    1  A    between atoms: C_2  and  C_3 
REMARK       I    between atoms: C_3  and  N_4 
REMARK    2  A    between atoms: N_4  and  C_5 
REMARK    3  A    between atoms: C_7  and  N_8 
REMARK       I    between atoms: N_8  and  C_9 
REMARK    4  A    between atoms: C_9  and  C_10 
REMARK    5  A    between atoms: C_12  and  O_13 
REMARK    6  A    between atoms: O_13  and  C_14 
ROOT
HETATM    1  N   UNL     1      26.327  45.607  49.811  1.00  0.00    -0.322 N 
HETATM    2  C   UNL     1      25.801  46.767  50.354  1.00  0.00     0.256 C 
HETATM    3  O   UNL     1      25.288  46.857  51.466  1.00  0.00    -0.267 OA
HETATM    4  H   UNL     1      26.492  45.570  48.819  1.00  0.00     0.169 HD
ENDROOT
BRANCH   1   5
HETATM    5  C   UNL     1      26.629  44.419  50.529  1.00  0.00     0.043 A 
HETATM    6  C   UNL     1      27.711  44.362  51.426  1.00  0.00     0.059 A 
HETATM    7  C   UNL     1      28.058  43.176  52.078  1.00  0.00     0.036 A 
HETATM    8  C   UNL     1      27.290  42.035  51.849  1.00  0.00     0.030 A 
HETATM    9  C   UNL     1      26.215  42.071  50.959  1.00  0.00     0.011 A 
HETATM   10  C   UNL     1      25.873  43.255  50.288  1.00  0.00    -0.035 A 
HETATM   11  C   UNL     1      24.712  43.223  49.332  1.00  0.00     0.050 C 
BRANCH   7  12
HETATM   12  N   UNL     1      29.154  43.050  52.960  1.00  0.00    -0.327 N 
HETATM   13  C   UNL     1      29.251  43.521  54.258  1.00  0.00     0.221 C 
HETATM   14  O   UNL     1      28.431  44.215  54.852  1.00  0.00    -0.273 OA
HETATM   15  H   UNL     1      29.983  42.618  52.574  1.00  0.00     0.169 HD
BRANCH  13  16
HETATM   16  C   UNL     1      30.565  43.154  54.927  1.00  0.00     0.098 C 
HETATM   17  C   UNL     1      30.985  44.155  55.988  1.00  0.00     0.014 C 
ENDBRANCH  13  16
ENDBRANCH   7  12
ENDBRANCH   1   5
BRANCH   2  18
HETATM   18  C   UNL     1      25.846  48.004  49.519  1.00  0.00     0.037 A 
HETATM   19  C   UNL     1      24.739  48.564  48.881  1.00  0.00     0.075 A 
HETATM   20  C   UNL     1      24.946  49.695  48.110  1.00  0.00     0.165 A 
HETATM   21  N   UNL     1      26.141  50.293  47.939  1.00  0.00    -0.237 NA
HETATM   22  C   UNL     1      27.193  49.743  48.574  1.00  0.00     0.120 A 
HETATM   23  C   UNL     1      27.096  48.615  49.364  1.00  0.00     0.036 A 
BRANCH  20  24
HETATM   24  O   UNL     1      23.836  50.231  47.482  1.00  0.00    -0.329 OA
BRANCH  24  25
HETATM   25  C   UNL     1      22.575  50.035  48.161  1.00  0.00     0.130 C 
HETATM   26  C   UNL     1      21.284  50.406  47.381  1.00  0.00     0.032 C 
HETATM   27  C   UNL     1      20.725  50.967  48.701  1.00  0.00     0.005 C 
HETATM   28  C   UNL     1      22.184  51.162  49.154  1.00  0.00     0.032 C 
ENDBRANCH  24  25
ENDBRANCH  20  24
ENDBRANCH   2  18
TORSDOF 6
ENDMDL
MODEL 4
REMARK VINA RESULT:      -8.4      4.811      7.931
REMARK  6 active torsions:
REMARK  status: ('A' for Active; 'I' for Inactive)
REMARK    1  A    between atoms: C_2  and  C_3 
REMARK       I    between atoms: C_3  and  N_4 
REMARK    2  A    between atoms: N_4  and  C_5 
REMARK    3  A    between atoms: C_7  and  N_8 
REMARK       I    between atoms: N_8  and  C_9 
REMARK    4  A    between atoms: C_9  and  C_10 
REMARK    5  A    between atoms: C_12  and  O_13 
REMARK    6  A    between atoms: O_13  and  C_14 
ROOT
HETATM    1  N   UNL     1      26.515  44.078  52.009  1.00  0.00    -0.322 N 
HETATM    2  C   UNL     1      26.007  44.390  53.259  1.00  0.00     0.256 C 
HETATM    3  O   UNL     1      25.007  43.884  53.761  1.00  0.00    -0.267 OA
HETATM    4  H   UNL     1      27.174  44.710  51.586  1.00  0.00     0.169 HD
ENDROOT
BRANCH   1   5
HETATM    5  C   UNL     1      26.161  42.946  51.230  1.00  0.00     0.043 A 
HETATM    6  C   UNL     1      26.932  41.769  51.256  1.00  0.00     0.059 A 
HETATM    7  C   UNL     1      26.631  40.680  50.436  1.00  0.00     0.036 A 
HETATM    8  C   UNL     1      25.521  40.759  49.595  1.00  0.00     0.030 A 
HETATM    9  C   UNL     1      24.746  41.919  49.551  1.00  0.00     0.011 A 
HETATM   10  C   UNL     1      25.055  43.024  50.361  1.00  0.00    -0.035 A 
HETATM   11  C   UNL     1      24.188  44.248  50.256  1.00  0.00     0.050 C 
BRANCH   7  12
HETATM   12  N   UNL     1      27.389  39.488  50.394  1.00  0.00    -0.327 N 
HETATM   13  C   UNL     1      28.510  39.227  49.625  1.00  0.00     0.221 C 
HETATM   14  O   UNL     1      29.001  39.958  48.770  1.00  0.00    -0.273 OA
HETATM   15  H   UNL     1      27.031  38.719  50.945  1.00  0.00     0.169 HD
BRANCH  13  16
HETATM   16  C   UNL     1      29.097  37.849  49.879  1.00  0.00     0.098 C 
HETATM   17  C   UNL     1      30.005  37.812  51.095  1.00  0.00     0.014 C 
ENDBRANCH  13  16
ENDBRANCH   7  12
ENDBRANCH   1   5
BRANCH   2  18
HETATM   18  C   UNL     1      26.719  45.433  54.055  1.00  0.00     0.037 A 
HETATM   19  C   UNL     1      27.990  45.270  54.607  1.00  0.00     0.075 A 
HETATM   20  C   UNL     1      28.506  46.317  55.352  1.00  0.00     0.165 A 
HETATM   21  N   UNL     1      27.866  47.481  55.576  1.00  0.00    -0.237 NA
HETATM   22  C   UNL     1      26.646  47.621  55.025  1.00  0.00     0.120 A 
HETATM   23  C   UNL     1      26.040  46.639  54.266  1.00  0.00     0.036 A 
BRANCH  20  24
HETATM   24  O   UNL     1      29.765  46.133  55.894  1.00  0.00    -0.329 OA
BRANCH  24  25
HETATM   25  C   UNL     1      29.990  44.859  56.540  1.00  0.00     0.130 C 
HETATM   26  C   UNL     1      30.930  44.847  57.776  1.00  0.00     0.032 C 
HETATM   27  C   UNL     1      31.492  43.512  57.256  1.00  0.00     0.005 C 
HETATM   28  C   UNL     1      31.044  43.953  55.849  1.00  0.00     0.032 C 
ENDBRANCH  24  25
ENDBRANCH  20  24
ENDBRANCH   2  18
TORSDOF 6
ENDMDL
MODEL 5
REMARK VINA RESULT:      -8.4      2.139      9.463
REMARK  6 active torsions:
REMARK  status: ('A' for Active; 'I' for Inactive)
REMARK    1  A    between atoms: C_2  and  C_3 
REMARK       I    between atoms: C_3  and  N_4 
REMARK    2  A    between atoms: N_4  and  C_5 
REMARK    3  A    between atoms: C_7  and  N_8 
REMARK       I    between atoms: N_8  and  C_9 
REMARK    4  A    between atoms: C_9  and  C_10 
REMARK    5  A    between atoms: C_12  and  O_13 
REMARK    6  A    between atoms: O_13  and  C_14 
ROOT
HETATM    1  N   UNL     1      26.309  44.342  51.586  1.00  0.00    -0.322 N 
HETATM    2  C   UNL     1      26.459  45.032  50.394  1.00  0.00     0.256 C 
HETATM    3  O   UNL     1      27.502  45.111  49.752  1.00  0.00    -0.267 OA
HETATM    4  H   UNL     1      25.504  44.538  52.158  1.00  0.00     0.169 HD
ENDROOT
BRANCH   1   5
HETATM    5  C   UNL     1      27.220  43.389  52.112  1.00  0.00     0.043 A 
HETATM    6  C   UNL     1      28.213  43.759  53.038  1.00  0.00     0.059 A 
HETATM    7  C   UNL     1      29.159  42.841  53.501  1.00  0.00     0.036 A 
HETATM    8  C   UNL     1      29.092  41.522  53.051  1.00  0.00     0.030 A 
HETATM    9  C   UNL     1      28.117  41.137  52.129  1.00  0.00     0.011 A 
HETATM   10  C   UNL     1      27.175  42.060  51.646  1.00  0.00    -0.035 A 
HETATM   11  C   UNL     1      26.159  41.583  50.645  1.00  0.00     0.050 C 
BRANCH   7  12
HETATM   12  N   UNL     1      30.198  43.163  54.401  1.00  0.00    -0.327 N 
HETATM   13  C   UNL     1      30.178  44.111  55.409  1.00  0.00     0.221 C 
HETATM   14  O   UNL     1      29.278  44.911  55.649  1.00  0.00    -0.273 OA
HETATM   15  H   UNL     1      31.077  42.685  54.249  1.00  0.00     0.169 HD
BRANCH  13  16
HETATM   16  C   UNL     1      31.464  44.146  56.218  1.00  0.00     0.098 C 
HETATM   17  C   UNL     1      31.568  43.000  57.207  1.00  0.00     0.014 C 
ENDBRANCH  13  16
ENDBRANCH   7  12
ENDBRANCH   1   5
BRANCH   2  18
HETATM   18  C   UNL     1      25.266  45.747  49.853  1.00  0.00     0.037 A 
HETATM   19  C   UNL     1      25.020  47.109  50.026  1.00  0.00     0.075 A 
HETATM   20  C   UNL     1      23.849  47.623  49.494  1.00  0.00     0.165 A 
HETATM   21  N   UNL     1      22.936  46.897  48.819  1.00  0.00    -0.237 NA
HETATM   22  C   UNL     1      23.200  45.588  48.654  1.00  0.00     0.120 A 
HETATM   23  C   UNL     1      24.336  44.976  49.145  1.00  0.00     0.036 A 
BRANCH  20  24
HETATM   24  O   UNL     1      23.622  48.974  49.681  1.00  0.00    -0.329 OA
BRANCH  24  25
HETATM   25  C   UNL     1      22.379  49.482  49.144  1.00  0.00     0.130 C 
HETATM   26  C   UNL     1      22.468  50.383  47.881  1.00  0.00     0.032 C 
HETATM   27  C   UNL     1      21.354  51.247  48.498  1.00  0.00     0.005 C 
HETATM   28  C   UNL     1      21.810  50.727  49.874  1.00  0.00     0.032 C 
ENDBRANCH  24  25
ENDBRANCH  20  24
ENDBRANCH   2  18
TORSDOF 6
ENDMDL
MODEL 6
REMARK VINA RESULT:      -8.4      3.052      9.548
REMARK  6 active torsions:
REMARK  status: ('A' for Active; 'I' for Inactive)
REMARK    1  A    between atoms: C_2  and  C_3 
REMARK       I    between atoms: C_3  and  N_4 
REMARK    2  A    between atoms: N_4  and  C_5 
REMARK    3  A    between atoms: C_7  and  N_8 
REMARK       I    between atoms: N_8  and  C_9 
REMARK    4  A    between atoms: C_9  and  C_10 
REMARK    5  A    between atoms: C_12  and  O_13 
REMARK    6  A    between atoms: O_13  and  C_14 
ROOT
HETATM    1  N   UNL     1      26.474  44.474  51.612  1.00  0.00    -0.322 N 
HETATM    2  C   UNL     1      26.542  45.097  50.377  1.00  0.00     0.256 C 
HETATM    3  O   UNL     1      27.538  45.136  49.660  1.00  0.00    -0.267 OA
HETATM    4  H   UNL     1      25.712  44.705  52.226  1.00  0.00     0.169 HD
ENDROOT
BRANCH   1   5
HETATM    5  C   UNL     1      27.419  43.546  52.124  1.00  0.00     0.043 A 
HETATM    6  C   UNL     1      27.618  42.293  51.515  1.00  0.00     0.059 A 
HETATM    7  C   UNL     1      28.491  41.347  52.058  1.00  0.00     0.036 A 
HETATM    8  C   UNL     1      29.199  41.673  53.215  1.00  0.00     0.030 A 
HETATM    9  C   UNL     1      29.011  42.909  53.837  1.00  0.00     0.011 A 
HETATM   10  C   UNL     1      28.121  43.856  53.305  1.00  0.00    -0.035 A 
HETATM   11  C   UNL     1      27.955  45.163  54.030  1.00  0.00     0.050 C 
BRANCH   7  12
HETATM   12  N   UNL     1      28.705  40.062  51.511  1.00  0.00    -0.327 N 
HETATM   13  C   UNL     1      28.725  39.707  50.174  1.00  0.00     0.221 C 
HETATM   14  O   UNL     1      28.472  40.432  49.217  1.00  0.00    -0.273 OA
HETATM   15  H   UNL     1      28.793  39.308  52.180  1.00  0.00     0.169 HD
BRANCH  13  16
HETATM   16  C   UNL     1      29.038  38.236  49.955  1.00  0.00     0.098 C 
HETATM   17  C   UNL     1      29.995  37.678  50.992  1.00  0.00     0.014 C 
ENDBRANCH  13  16
ENDBRANCH   7  12
ENDBRANCH   1   5
BRANCH   2  18
HETATM   18  C   UNL     1      25.315  45.787  49.882  1.00  0.00     0.037 A 
HETATM   19  C   UNL     1      25.033  47.138  50.089  1.00  0.00     0.075 A 
HETATM   20  C   UNL     1      23.835  47.627  49.599  1.00  0.00     0.165 A 
HETATM   21  N   UNL     1      22.925  46.889  48.932  1.00  0.00    -0.237 NA
HETATM   22  C   UNL     1      23.223  45.592  48.733  1.00  0.00     0.120 A 
HETATM   23  C   UNL     1      24.389  45.004  49.182  1.00  0.00     0.036 A 
BRANCH  20  24
HETATM   24  O   UNL     1      23.574  48.968  49.819  1.00  0.00    -0.329 OA
BRANCH  24  25
HETATM   25  C   UNL     1      22.651  49.588  48.895  1.00  0.00     0.130 C 
HETATM   26  C   UNL     1      22.936  51.059  48.489  1.00  0.00     0.032 C 
HETATM   27  C   UNL     1      21.418  51.304  48.555  1.00  0.00     0.005 C 
HETATM   28  C   UNL     1      21.341  50.118  49.535  1.00  0.00     0.032 C 
ENDBRANCH  24  25
ENDBRANCH  20  24
ENDBRANCH   2  18
TORSDOF 6
ENDMDL
MODEL 7
REMARK VINA RESULT:      -8.2      1.701      2.208
REMARK  6 active torsions:
REMARK  status: ('A' for Active; 'I' for Inactive)
REMARK    1  A    between atoms: C_2  and  C_3 
REMARK       I    between atoms: C_3  and  N_4 
REMARK    2  A    between atoms: N_4  and  C_5 
REMARK    3  A    between atoms: C_7  and  N_8 
REMARK       I    between atoms: N_8  and  C_9 
REMARK    4  A    between atoms: C_9  and  C_10 
REMARK    5  A    between atoms: C_12  and  O_13 
REMARK    6  A    between atoms: O_13  and  C_14 
ROOT
HETATM    1  N   UNL     1      24.232  47.248  49.369  1.00  0.00    -0.322 N 
HETATM    2  C   UNL     1      24.743  46.904  50.610  1.00  0.00     0.256 C 
HETATM    3  O   UNL     1      24.923  47.684  51.540  1.00  0.00    -0.267 OA
HETATM    4  H   UNL     1      24.354  46.606  48.604  1.00  0.00     0.169 HD
ENDROOT
BRANCH   1   5
HETATM    5  C   UNL     1      23.568  48.463  49.055  1.00  0.00     0.043 A 
HETATM    6  C   UNL     1      22.166  48.565  49.103  1.00  0.00     0.059 A 
HETATM    7  C   UNL     1      21.505  49.735  48.722  1.00  0.00     0.036 A 
HETATM    8  C   UNL     1      22.263  50.833  48.314  1.00  0.00     0.030 A 
HETATM    9  C   UNL     1      23.656  50.749  48.256  1.00  0.00     0.011 A 
HETATM   10  C   UNL     1      24.324  49.569  48.620  1.00  0.00    -0.035 A 
HETATM   11  C   UNL     1      25.825  49.542  48.522  1.00  0.00     0.050 C 
BRANCH   7  12
HETATM   12  N   UNL     1      20.100  49.884  48.716  1.00  0.00    -0.327 N 
HETATM   13  C   UNL     1      19.255  49.964  49.808  1.00  0.00     0.221 C 
HETATM   14  O   UNL     1      19.564  49.831  50.989  1.00  0.00    -0.273 OA
HETATM   15  H   UNL     1      19.660  49.869  47.805  1.00  0.00     0.169 HD
BRANCH  13  16
HETATM   16  C   UNL     1      17.801  50.175  49.421  1.00  0.00     0.098 C 
HETATM   17  C   UNL     1      17.317  51.586  49.700  1.00  0.00     0.014 C 
ENDBRANCH  13  16
ENDBRANCH   7  12
ENDBRANCH   1   5
BRANCH   2  18
HETATM   18  C   UNL     1      25.118  45.476  50.832  1.00  0.00     0.037 A 
HETATM   19  C   UNL     1      26.422  45.028  51.039  1.00  0.00     0.075 A 
HETATM   20  C   UNL     1      26.617  43.666  51.195  1.00  0.00     0.165 A 
HETATM   21  N   UNL     1      25.632  42.747  51.165  1.00  0.00    -0.237 NA
HETATM   22  C   UNL     1      24.380  43.203  50.977  1.00  0.00     0.120 A 
HETATM   23  C   UNL     1      24.077  44.539  50.809  1.00  0.00     0.036 A 
BRANCH  20  24
HETATM   24  O   UNL     1      27.919  43.242  51.393  1.00  0.00    -0.329 OA
BRANCH  24  25
HETATM   25  C   UNL     1      28.544  43.689  52.618  1.00  0.00     0.130 C 
HETATM   26  C   UNL     1      29.913  43.056  52.987  1.00  0.00     0.032 C 
HETATM   27  C   UNL     1      29.440  43.042  54.451  1.00  0.00     0.005 C 
HETATM   28  C   UNL     1      27.997  43.027  53.911  1.00  0.00     0.032 C 
ENDBRANCH  24  25
ENDBRANCH  20  24
ENDBRANCH   2  18
TORSDOF 6
ENDMDL
MODEL 8
REMARK VINA RESULT:      -8.2      2.131      2.951
REMARK  6 active torsions:
REMARK  status: ('A' for Active; 'I' for Inactive)
REMARK    1  A    between atoms: C_2  and  C_3 
REMARK       I    between atoms: C_3  and  N_4 
REMARK    2  A    between atoms: N_4  and  C_5 
REMARK    3  A    between atoms: C_7  and  N_8 
REMARK       I    between atoms: N_8  and  C_9 
REMARK    4  A    between atoms: C_9  and  C_10 
REMARK    5  A    between atoms: C_12  and  O_13 
REMARK    6  A    between atoms: O_13  and  C_14 
ROOT
HETATM    1  N   UNL     1      25.416  44.783  50.030  1.00  0.00    -0.322 N 
HETATM    2  C   UNL     1      25.316  44.212  51.288  1.00  0.00     0.256 C 
HETATM    3  O   UNL     1      24.396  44.402  52.078  1.00  0.00    -0.267 OA
HETATM    4  H   UNL     1      26.308  44.771  49.565  1.00  0.00     0.169 HD
ENDROOT
BRANCH   1   5
HETATM    5  C   UNL     1      24.366  45.435  49.330  1.00  0.00     0.043 A 
HETATM    6  C   UNL     1      24.078  46.795  49.546  1.00  0.00     0.059 A 
HETATM    7  C   UNL     1      22.999  47.422  48.917  1.00  0.00     0.036 A 
HETATM    8  C   UNL     1      22.213  46.680  48.035  1.00  0.00     0.030 A 
HETATM    9  C   UNL     1      22.481  45.329  47.811  1.00  0.00     0.011 A 
HETATM   10  C   UNL     1      23.553  44.689  48.455  1.00  0.00    -0.035 A 
HETATM   11  C   UNL     1      23.779  43.228  48.180  1.00  0.00     0.050 C 
BRANCH   7  12
HETATM   12  N   UNL     1      22.640  48.772  49.122  1.00  0.00    -0.327 N 
HETATM   13  C   UNL     1      22.915  49.852  48.301  1.00  0.00     0.221 C 
HETATM   14  O   UNL     1      23.600  49.847  47.283  1.00  0.00    -0.273 OA
HETATM   15  H   UNL     1      22.182  48.978  50.000  1.00  0.00     0.169 HD
BRANCH  13  16
HETATM   16  C   UNL     1      22.325  51.155  48.816  1.00  0.00     0.098 C 
HETATM   17  C   UNL     1      20.856  51.312  48.469  1.00  0.00     0.014 C 
ENDBRANCH  13  16
ENDBRANCH   7  12
ENDBRANCH   1   5
BRANCH   2  18
HETATM   18  C   UNL     1      26.418  43.305  51.725  1.00  0.00     0.037 A 
HETATM   19  C   UNL     1      27.027  43.354  52.979  1.00  0.00     0.075 A 
HETATM   20  C   UNL     1      28.063  42.469  53.226  1.00  0.00     0.165 A 
HETATM   21  N   UNL     1      28.517  41.561  52.340  1.00  0.00    -0.237 NA
HETATM   22  C   UNL     1      27.907  41.523  51.141  1.00  0.00     0.120 A 
HETATM   23  C   UNL     1      26.867  42.362  50.792  1.00  0.00     0.036 A 
BRANCH  20  24
HETATM   24  O   UNL     1      28.656  42.538  54.474  1.00  0.00    -0.329 OA
BRANCH  24  25
HETATM   25  C   UNL     1      29.726  43.501  54.607  1.00  0.00     0.130 C 
HETATM   26  C   UNL     1      30.776  43.243  55.722  1.00  0.00     0.032 C 
HETATM   27  C   UNL     1      30.773  44.759  55.987  1.00  0.00     0.005 C 
HETATM   28  C   UNL     1      29.354  44.789  55.389  1.00  0.00     0.032 C 
ENDBRANCH  24  25
ENDBRANCH  20  24
ENDBRANCH   2  18
TORSDOF 6
ENDMDL
MODEL 9
REMARK VINA RESULT:      -8.0      2.507      9.220
REMARK  6 active torsions:
REMARK  status: ('A' for Active; 'I' for Inactive)
REMARK    1  A    between atoms: C_2  and  C_3 
REMARK       I    between atoms: C_3  and  N_4 
REMARK    2  A    between atoms: N_4  and  C_5 
REMARK    3  A    between atoms: C_7  and  N_8 
REMARK       I    between atoms: N_8  and  C_9 
REMARK    4  A    between atoms: C_9  and  C_10 
REMARK    5  A    between atoms: C_12  and  O_13 
REMARK    6  A    between atoms: O_13  and  C_14 
ROOT
HETATM    1  N   UNL     1      22.790  48.345  49.495  1.00  0.00    -0.322 N 
HETATM    2  C   UNL     1      21.919  47.847  48.540  1.00  0.00     0.256 C 
HETATM    3  O   UNL     1      22.255  47.345  47.472  1.00  0.00    -0.267 OA
HETATM    4  H   UNL     1      22.426  48.953  50.209  1.00  0.00     0.169 HD
ENDROOT
BRANCH   1   5
HETATM    5  C   UNL     1      24.189  48.105  49.545  1.00  0.00     0.043 A 
HETATM    6  C   UNL     1      24.719  47.015  50.259  1.00  0.00     0.059 A 
HETATM    7  C   UNL     1      26.097  46.817  50.375  1.00  0.00     0.036 A 
HETATM    8  C   UNL     1      26.959  47.711  49.739  1.00  0.00     0.030 A 
HETATM    9  C   UNL     1      26.452  48.802  49.030  1.00  0.00     0.011 A 
HETATM   10  C   UNL     1      25.068  49.015  48.926  1.00  0.00    -0.035 A 
HETATM   11  C   UNL     1      24.588  50.216  48.159  1.00  0.00     0.050 C 
BRANCH   7  12
HETATM   12  N   UNL     1      26.687  45.763  51.107  1.00  0.00    -0.327 N 
HETATM   13  C   UNL     1      27.181  44.567  50.615  1.00  0.00     0.221 C 
HETATM   14  O   UNL     1      27.116  44.165  49.457  1.00  0.00    -0.273 OA
HETATM   15  H   UNL     1      26.692  45.874  52.112  1.00  0.00     0.169 HD
BRANCH  13  16
HETATM   16  C   UNL     1      27.793  43.689  51.693  1.00  0.00     0.098 C 
HETATM   17  C   UNL     1      27.605  44.255  53.090  1.00  0.00     0.014 C 
ENDBRANCH  13  16
ENDBRANCH   7  12
ENDBRANCH   1   5
BRANCH   2  18
HETATM   18  C   UNL     1      20.457  47.940  48.823  1.00  0.00     0.037 A 
HETATM   19  C   UNL     1      19.864  48.949  49.581  1.00  0.00     0.075 A 
HETATM   20  C   UNL     1      18.496  48.880  49.786  1.00  0.00     0.165 A 
HETATM   21  N   UNL     1      17.700  47.907  49.301  1.00  0.00    -0.237 NA
HETATM   22  C   UNL     1      18.292  46.950  48.562  1.00  0.00     0.120 A 
HETATM   23  C   UNL     1      19.647  46.924  48.299  1.00  0.00     0.036 A 
BRANCH  20  24
HETATM   24  O   UNL     1      17.930  49.889  50.545  1.00  0.00    -0.329 OA
BRANCH  24  25
HETATM   25  C   UNL     1      17.694  51.137  49.853  1.00  0.00     0.130 C 
HETATM   26  C   UNL     1      17.755  51.110  48.302  1.00  0.00     0.032 C 
HETATM   27  C   UNL     1      18.461  52.475  48.369  1.00  0.00     0.005 C 
HETATM   28  C   UNL     1      18.917  52.090  49.789  1.00  0.00     0.032 C 
ENDBRANCH  24  25
ENDBRANCH  20  24
ENDBRANCH   2  18
TORSDOF 6
ENDMDL
MODEL 10
REMARK VINA RESULT:      -8.0      2.243      3.297
REMARK  6 active torsions:
REMARK  status: ('A' for Active; 'I' for Inactive)
REMARK    1  A    between atoms: C_2  and  C_3 
REMARK       I    between atoms: C_3  and  N_4 
REMARK    2  A    between atoms: N_4  and  C_5 
REMARK    3  A    between atoms: C_7  and  N_8 
REMARK       I    between atoms: N_8  and  C_9 
REMARK    4  A    between atoms: C_9  and  C_10 
REMARK    5  A    between atoms: C_12  and  O_13 
REMARK    6  A    between atoms: O_13  and  C_14 
ROOT
HETATM    1  N   UNL     1      26.135  46.948  50.545  1.00  0.00    -0.322 N 
HETATM    2  C   UNL     1      25.976  46.791  51.912  1.00  0.00     0.256 C 
HETATM    3  O   UNL     1      25.489  47.629  52.666  1.00  0.00    -0.267 OA
HETATM    4  H   UNL     1      26.760  46.327  50.059  1.00  0.00     0.169 HD
ENDROOT
BRANCH   1   5
HETATM    5  C   UNL     1      25.515  47.947  49.748  1.00  0.00     0.043 A 
HETATM    6  C   UNL     1      24.121  47.970  49.558  1.00  0.00     0.059 A 
HETATM    7  C   UNL     1      23.515  48.904  48.715  1.00  0.00     0.036 A 
HETATM    8  C   UNL     1      24.315  49.850  48.075  1.00  0.00     0.030 A 
HETATM    9  C   UNL     1      25.700  49.840  48.248  1.00  0.00     0.011 A 
HETATM   10  C   UNL     1      26.317  48.892  49.080  1.00  0.00    -0.035 A 
HETATM   11  C   UNL     1      27.815  48.928  49.213  1.00  0.00     0.050 C 
BRANCH   7  12
HETATM   12  N   UNL     1      22.127  48.953  48.457  1.00  0.00    -0.327 N 
HETATM   13  C   UNL     1      21.393  48.125  47.627  1.00  0.00     0.221 C 
HETATM   14  O   UNL     1      21.831  47.246  46.891  1.00  0.00    -0.273 OA
HETATM   15  H   UNL     1      21.627  49.722  48.885  1.00  0.00     0.169 HD
BRANCH  13  16
HETATM   16  C   UNL     1      19.906  48.440  47.636  1.00  0.00     0.098 C 
HETATM   17  C   UNL     1      19.059  47.269  48.097  1.00  0.00     0.014 C 
ENDBRANCH  13  16
ENDBRANCH   7  12
ENDBRANCH   1   5
BRANCH   2  18
HETATM   18  C   UNL     1      26.446  45.512  52.521  1.00  0.00     0.037 A 
HETATM   19  C   UNL     1      27.129  44.514  51.827  1.00  0.00     0.075 A 
HETATM   20  C   UNL     1      27.468  43.365  52.522  1.00  0.00     0.165 A 
HETATM   21  N   UNL     1      27.187  43.149  53.822  1.00  0.00    -0.237 NA
HETATM   22  C   UNL     1      26.538  44.130  54.475  1.00  0.00     0.120 A 
HETATM   23  C   UNL     1      26.152  45.313  53.876  1.00  0.00     0.036 A 
BRANCH  20  24
HETATM   24  O   UNL     1      28.142  42.386  51.813  1.00  0.00    -0.329 OA
BRANCH  24  25
HETATM   25  C   UNL     1      27.409  41.160  51.586  1.00  0.00     0.130 C 
HETATM   26  C   UNL     1      27.911  40.236  50.443  1.00  0.00     0.032 C 
HETATM   27  C   UNL     1      26.435  39.964  50.102  1.00  0.00     0.005 C 
HETATM   28  C   UNL     1      26.108  41.319  50.756  1.00  0.00     0.032 C 
ENDBRANCH  24  25
ENDBRANCH  20  24
ENDBRANCH   2  18
TORSDOF 6
ENDMDL
