MODEL 1
REMARK VINA RESULT:      -9.8      0.000      0.000
REMARK  6 active torsions:
REMARK  status: ('A' for Active; 'I' for Inactive)
REMARK    1  A    between atoms: C_3  and  C_4 
REMARK       I    between atoms: C_4  and  N_5 
REMARK    2  A    between atoms: N_5  and  C_6 
REMARK    3  A    between atoms: C_6  and  C_7 
REMARK    4  A    between atoms: C_6  and  C_22 
REMARK       I    between atoms: C_7  and  N_8 
REMARK    5  A    between atoms: N_8  and  C_9 
REMARK    6  A    between atoms: C_11  and  C_12 
ROOT
HETATM    1  C   UNL     1      25.763  46.498  51.651  1.00  0.00     0.245 C 
HETATM    2  N   UNL     1      25.979  46.763  50.313  1.00  0.00    -0.325 N 
HETATM    3  O   UNL     1      25.390  47.308  52.499  1.00  0.00    -0.271 OA
HETATM    4  H   UNL     1      26.451  46.020  49.793  1.00  0.00     0.169 HD
ENDROOT
BRANCH   1   5
HETATM    5  C   UNL     1      25.995  45.014  52.045  1.00  0.00     0.180 C 
BRANCH   5   6
HETATM    6  N   UNL     1      27.221  44.854  52.833  1.00  0.00    -0.343 N 
HETATM    7  C   UNL     1      27.258  44.366  54.118  1.00  0.00     0.252 C 
HETATM    8  O   UNL     1      26.260  43.967  54.708  1.00  0.00    -0.268 OA
HETATM    9  H   UNL     1      28.040  45.336  52.487  1.00  0.00     0.163 HD
BRANCH   7  10
HETATM   10  C   UNL     1      28.581  44.405  54.804  1.00  0.00     0.037 A 
HETATM   11  C   UNL     1      29.029  45.476  55.607  1.00  0.00    -0.046 A 
HETATM   12  C   UNL     1      28.249  46.745  55.817  1.00  0.00     0.049 C 
HETATM   13  C   UNL     1      30.277  45.357  56.246  1.00  0.00     0.007 A 
HETATM   14  C   UNL     1      31.082  44.233  56.053  1.00  0.00     0.001 A 
HETATM   15  C   UNL     1      30.654  43.205  55.221  1.00  0.00     0.001 A 
HETATM   16  C   UNL     1      29.410  43.289  54.600  1.00  0.00     0.017 A 
ENDBRANCH   7  10
ENDBRANCH   5   6
BRANCH   5  17
HETATM   17  C   UNL     1      25.879  44.028  50.855  1.00  0.00     0.009 C 
HETATM   18  C   UNL     1      27.194  43.268  50.638  1.00  0.00     0.012 C 
HETATM   19  C   UNL     1      24.749  43.014  51.075  1.00  0.00     0.012 C 
ENDBRANCH   5  17
ENDBRANCH   1   5
BRANCH   2  20
HETATM   20  C   UNL     1      25.670  47.932  49.592  1.00  0.00     0.035 A 
HETATM   21  C   UNL     1      24.368  48.368  49.324  1.00  0.00     0.042 A 
HETATM   22  C   UNL     1      24.126  49.529  48.568  1.00  0.00    -0.021 A 
HETATM   23  C   UNL     1      25.226  50.236  48.063  1.00  0.00     0.012 A 
HETATM   24  C   UNL     1      26.529  49.810  48.325  1.00  0.00     0.003 A 
HETATM   25  C   UNL     1      26.748  48.669  49.095  1.00  0.00     0.029 A 
BRANCH  22  26
HETATM   26  C   UNL     1      22.756  49.976  48.330  1.00  0.00     0.010 A 
HETATM   27  C   UNL     1      21.667  49.327  47.693  1.00  0.00     0.152 A 
HETATM   28  N   UNL     1      20.551  50.062  47.685  1.00  0.00    -0.187 NA
HETATM   29  N   UNL     1      20.914  51.184  48.321  1.00  0.00    -0.289 N 
HETATM   30  H   UNL     1      20.218  51.910  48.449  1.00  0.00     0.188 HD
HETATM   31  C   UNL     1      22.218  51.183  48.726  1.00  0.00     0.123 A 
ENDBRANCH  22  26
ENDBRANCH   2  20
TORSDOF 6
ENDMDL
MODEL 2
REMARK VINA RESULT:      -9.2      1.730      2.511
REMARK  6 active torsions:
REMARK  status: ('A' for Active; 'I' for Inactive)
REMARK    1  A    between atoms: C_3  and  C_4 
REMARK       I    between atoms: C_4  and  N_5 
REMARK    2  A    between atoms: N_5  and  C_6 
REMARK    3  A    between atoms: C_6  and  C_7 
REMARK    4  A    between atoms: C_6  and  C_22 
REMARK       I    between atoms: C_7  and  N_8 
REMARK    5  A    between atoms: N_8  and  C_9 
REMARK    6  A    between atoms: C_11  and  C_12 
ROOT
HETATM    1  C   UNL     1      24.728  46.933  50.772  1.00  0.00     0.245 C 
HETATM    2  N   UNL     1      24.172  47.294  49.561  1.00  0.00    -0.325 N 
HETATM    3  O   UNL     1      24.966  47.688  51.714  1.00  0.00    -0.271 OA
HETATM    4  H   UNL     1      24.206  46.575  48.835  1.00  0.00     0.169 HD
ENDROOT
BRANCH   1   5
HETATM    5  C   UNL     1      25.019  45.413  50.904  1.00  0.00     0.180 C 
BRANCH   5   6
HETATM    6  N   UNL     1      26.154  45.160  51.797  1.00  0.00    -0.343 N 
HETATM    7  C   UNL     1      26.044  44.609  53.052  1.00  0.00     0.252 C 
HETATM    8  O   UNL     1      24.978  44.226  53.521  1.00  0.00    -0.268 OA
HETATM    9  H   UNL     1      27.021  45.622  51.560  1.00  0.00     0.163 HD
BRANCH   7  10
HETATM   10  C   UNL     1      27.293  44.556  53.865  1.00  0.00     0.037 A 
HETATM   11  C   UNL     1      28.151  43.438  53.933  1.00  0.00    -0.046 A 
HETATM   12  C   UNL     1      27.876  42.131  53.240  1.00  0.00     0.049 C 
HETATM   13  C   UNL     1      29.330  43.544  54.694  1.00  0.00     0.007 A 
HETATM   14  C   UNL     1      29.625  44.705  55.409  1.00  0.00     0.001 A 
HETATM   15  C   UNL     1      28.749  45.784  55.377  1.00  0.00     0.001 A 
HETATM   16  C   UNL     1      27.589  45.711  54.608  1.00  0.00     0.017 A 
ENDBRANCH   7  10
ENDBRANCH   5   6
BRANCH   5  17
HETATM   17  C   UNL     1      25.115  44.676  49.544  1.00  0.00     0.009 C 
HETATM   18  C   UNL     1      26.389  43.826  49.465  1.00  0.00     0.012 C 
HETATM   19  C   UNL     1      23.898  43.771  49.310  1.00  0.00     0.012 C 
ENDBRANCH   5  17
ENDBRANCH   1   5
BRANCH   2  20
HETATM   20  C   UNL     1      23.608  48.529  49.191  1.00  0.00     0.035 A 
HETATM   21  C   UNL     1      22.306  48.925  49.516  1.00  0.00     0.042 A 
HETATM   22  C   UNL     1      21.788  50.161  49.087  1.00  0.00    -0.021 A 
HETATM   23  C   UNL     1      22.603  50.987  48.300  1.00  0.00     0.012 A 
HETATM   24  C   UNL     1      23.904  50.602  47.972  1.00  0.00     0.003 A 
HETATM   25  C   UNL     1      24.405  49.383  48.425  1.00  0.00     0.029 A 
BRANCH  22  26
HETATM   26  C   UNL     1      20.436  50.560  49.467  1.00  0.00     0.010 A 
HETATM   27  C   UNL     1      19.460  49.897  50.254  1.00  0.00     0.152 A 
HETATM   28  N   UNL     1      18.331  50.600  50.393  1.00  0.00    -0.187 NA
HETATM   29  N   UNL     1      18.578  51.721  49.702  1.00  0.00    -0.289 N 
HETATM   30  H   UNL     1      17.855  52.431  49.665  1.00  0.00     0.188 HD
HETATM   31  C   UNL     1      19.818  51.748  49.130  1.00  0.00     0.123 A 
ENDBRANCH  22  26
ENDBRANCH   2  20
TORSDOF 6
ENDMDL
MODEL 3
REMARK VINA RESULT:      -9.1      2.443      9.230
REMARK  6 active torsions:
REMARK  status: ('A' for Active; 'I' for Inactive)
REMARK    1  A    between atoms: C_3  and  C_4 
REMARK       I    between atoms: C_4  and  N_5 
REMARK    2  A    between atoms: N_5  and  C_6 
REMARK    3  A    between atoms: C_6  and  C_7 
REMARK    4  A    between atoms: C_6  and  C_22 
REMARK       I    between atoms: C_7  and  N_8 
REMARK    5  A    between atoms: N_8  and  C_9 
REMARK    6  A    between atoms: C_11  and  C_12 
ROOT
HETATM    1  C   UNL     1      25.339  47.223  50.862  1.00  0.00     0.245 C 
HETATM    2  N   UNL     1      25.181  46.650  52.109  1.00  0.00    -0.325 N 
HETATM    3  O   UNL     1      26.235  47.997  50.529  1.00  0.00    -0.271 OA
HETATM    4  H   UNL     1      24.290  46.172  52.259  1.00  0.00     0.169 HD
ENDROOT
BRANCH   1   5
HETATM    5  C   UNL     1      24.276  46.773  49.823  1.00  0.00     0.180 C 
BRANCH   5   6
HETATM    6  N   UNL     1      23.088  47.629  49.868  1.00  0.00    -0.343 N 
HETATM    7  C   UNL     1      22.539  48.251  48.771  1.00  0.00     0.252 C 
HETATM    8  O   UNL     1      22.972  48.101  47.634  1.00  0.00    -0.268 OA
HETATM    9  H   UNL     1      22.801  47.948  50.783  1.00  0.00     0.163 HD
BRANCH   7  10
HETATM   10  C   UNL     1      21.413  49.191  49.036  1.00  0.00     0.037 A 
HETATM   11  C   UNL     1      21.518  50.597  48.973  1.00  0.00    -0.046 A 
HETATM   12  C   UNL     1      22.804  51.326  48.692  1.00  0.00     0.049 C 
HETATM   13  C   UNL     1      20.359  51.366  49.188  1.00  0.00     0.007 A 
HETATM   14  C   UNL     1      19.143  50.763  49.508  1.00  0.00     0.001 A 
HETATM   15  C   UNL     1      19.058  49.379  49.617  1.00  0.00     0.001 A 
HETATM   16  C   UNL     1      20.188  48.597  49.382  1.00  0.00     0.017 A 
ENDBRANCH   7  10
ENDBRANCH   5   6
BRANCH   5  17
HETATM   17  C   UNL     1      23.960  45.256  49.871  1.00  0.00     0.009 C 
HETATM   18  C   UNL     1      22.703  44.928  49.055  1.00  0.00     0.012 C 
HETATM   19  C   UNL     1      25.132  44.422  49.337  1.00  0.00     0.012 C 
ENDBRANCH   5  17
ENDBRANCH   1   5
BRANCH   2  20
HETATM   20  C   UNL     1      26.066  46.678  53.203  1.00  0.00     0.035 A 
HETATM   21  C   UNL     1      27.029  45.696  53.458  1.00  0.00     0.042 A 
HETATM   22  C   UNL     1      27.864  45.765  54.589  1.00  0.00    -0.021 A 
HETATM   23  C   UNL     1      27.693  46.836  55.477  1.00  0.00     0.012 A 
HETATM   24  C   UNL     1      26.736  47.822  55.232  1.00  0.00     0.003 A 
HETATM   25  C   UNL     1      25.935  47.747  54.093  1.00  0.00     0.029 A 
BRANCH  22  26
HETATM   26  C   UNL     1      28.879  44.740  54.813  1.00  0.00     0.010 A 
HETATM   27  C   UNL     1      29.980  44.705  55.708  1.00  0.00     0.152 A 
HETATM   28  N   UNL     1      30.682  43.570  55.631  1.00  0.00    -0.187 NA
HETATM   29  N   UNL     1      30.035  42.868  54.692  1.00  0.00    -0.289 N 
HETATM   30  H   UNL     1      30.384  41.945  54.456  1.00  0.00     0.188 HD
HETATM   31  C   UNL     1      28.954  43.520  54.172  1.00  0.00     0.123 A 
ENDBRANCH  22  26
ENDBRANCH   2  20
TORSDOF 6
ENDMDL
MODEL 4
REMARK VINA RESULT:      -9.1      1.672      2.088
REMARK  6 active torsions:
REMARK  status: ('A' for Active; 'I' for Inactive)
REMARK    1  A    between atoms: C_3  and  C_4 
REMARK       I    between atoms: C_4  and  N_5 
REMARK    2  A    between atoms: N_5  and  C_6 
REMARK    3  A    between atoms: C_6  and  C_7 
REMARK    4  A    between atoms: C_6  and  C_22 
REMARK       I    between atoms: C_7  and  N_8 
REMARK    5  A    between atoms: N_8  and  C_9 
REMARK    6  A    between atoms: C_11  and  C_12 
ROOT
HETATM    1  C   UNL     1      26.612  44.011  50.421  1.00  0.00     0.245 C 
HETATM    2  N   UNL     1      25.988  45.108  50.982  1.00  0.00    -0.325 N 
HETATM    3  O   UNL     1      26.914  43.877  49.236  1.00  0.00    -0.271 OA
HETATM    4  H   UNL     1      25.658  44.978  51.942  1.00  0.00     0.169 HD
ENDROOT
BRANCH   1   5
HETATM    5  C   UNL     1      26.972  42.900  51.444  1.00  0.00     0.180 C 
BRANCH   5   6
HETATM    6  N   UNL     1      27.934  43.379  52.440  1.00  0.00    -0.343 N 
HETATM    7  C   UNL     1      27.687  43.436  53.792  1.00  0.00     0.252 C 
HETATM    8  O   UNL     1      26.643  43.035  54.295  1.00  0.00    -0.268 OA
HETATM    9  H   UNL     1      28.726  43.897  52.084  1.00  0.00     0.163 HD
BRANCH   7  10
HETATM   10  C   UNL     1      28.735  44.081  54.632  1.00  0.00     0.037 A 
HETATM   11  C   UNL     1      28.673  45.410  55.101  1.00  0.00    -0.046 A 
HETATM   12  C   UNL     1      27.564  46.366  54.755  1.00  0.00     0.049 C 
HETATM   13  C   UNL     1      29.705  45.875  55.937  1.00  0.00     0.007 A 
HETATM   14  C   UNL     1      30.795  45.064  56.256  1.00  0.00     0.001 A 
HETATM   15  C   UNL     1      30.874  43.771  55.749  1.00  0.00     0.001 A 
HETATM   16  C   UNL     1      29.849  43.282  54.942  1.00  0.00     0.017 A 
ENDBRANCH   7  10
ENDBRANCH   5   6
BRANCH   5  17
HETATM   17  C   UNL     1      27.367  41.553  50.787  1.00  0.00     0.009 C 
HETATM   18  C   UNL     1      28.414  40.813  51.630  1.00  0.00     0.012 C 
HETATM   19  C   UNL     1      26.147  40.641  50.598  1.00  0.00     0.012 C 
ENDBRANCH   5  17
ENDBRANCH   1   5
BRANCH   2  20
HETATM   20  C   UNL     1      25.714  46.356  50.392  1.00  0.00     0.035 A 
HETATM   21  C   UNL     1      24.426  46.822  50.104  1.00  0.00     0.042 A 
HETATM   22  C   UNL     1      24.221  48.067  49.482  1.00  0.00    -0.021 A 
HETATM   23  C   UNL     1      25.343  48.829  49.130  1.00  0.00     0.012 A 
HETATM   24  C   UNL     1      26.632  48.374  49.414  1.00  0.00     0.003 A 
HETATM   25  C   UNL     1      26.813  47.148  50.051  1.00  0.00     0.029 A 
BRANCH  22  26
HETATM   26  C   UNL     1      22.864  48.540  49.221  1.00  0.00     0.010 A 
HETATM   27  C   UNL     1      22.303  49.840  49.304  1.00  0.00     0.152 A 
HETATM   28  N   UNL     1      21.010  49.877  48.965  1.00  0.00    -0.187 NA
HETATM   29  N   UNL     1      20.735  48.602  48.656  1.00  0.00    -0.289 N 
HETATM   30  H   UNL     1      19.794  48.374  48.354  1.00  0.00     0.188 HD
HETATM   31  C   UNL     1      21.805  47.765  48.792  1.00  0.00     0.123 A 
ENDBRANCH  22  26
ENDBRANCH   2  20
TORSDOF 6
ENDMDL
MODEL 5
REMARK VINA RESULT:      -8.6      2.409      8.218
REMARK  6 active torsions:
REMARK  status: ('A' for Active; 'I' for Inactive)
REMARK    1  A    between atoms: C_3  and  C_4 
REMARK       I    between atoms: C_4  and  N_5 
REMARK    2  A    between atoms: N_5  and  C_6 
REMARK    3  A    between atoms: C_6  and  C_7 
REMARK    4  A    between atoms: C_6  and  C_22 
REMARK       I    between atoms: C_7  and  N_8 
REMARK    5  A    between atoms: N_8  and  C_9 
REMARK    6  A    between atoms: C_11  and  C_12 
ROOT
HETATM    1  C   UNL     1      25.356  43.508  50.950  1.00  0.00     0.245 C 
HETATM    2  N   UNL     1      26.709  43.232  50.904  1.00  0.00    -0.325 N 
HETATM    3  O   UNL     1      24.630  43.409  51.939  1.00  0.00    -0.271 OA
HETATM    4  H   UNL     1      27.115  43.202  49.966  1.00  0.00     0.169 HD
ENDROOT
BRANCH   1   5
HETATM    5  C   UNL     1      24.772  44.023  49.607  1.00  0.00     0.180 C 
BRANCH   5   6
HETATM    6  N   UNL     1      25.299  45.348  49.266  1.00  0.00    -0.343 N 
HETATM    7  C   UNL     1      25.169  46.462  50.062  1.00  0.00     0.252 C 
HETATM    8  O   UNL     1      24.637  46.433  51.166  1.00  0.00    -0.268 OA
HETATM    9  H   UNL     1      25.572  45.486  48.303  1.00  0.00     0.163 HD
BRANCH   7  10
HETATM   10  C   UNL     1      25.651  47.749  49.485  1.00  0.00     0.037 A 
HETATM   11  C   UNL     1      24.810  48.735  48.927  1.00  0.00    -0.046 A 
HETATM   12  C   UNL     1      23.320  48.579  48.785  1.00  0.00     0.049 C 
HETATM   13  C   UNL     1      25.392  49.932  48.470  1.00  0.00     0.007 A 
HETATM   14  C   UNL     1      26.773  50.126  48.518  1.00  0.00     0.001 A 
HETATM   15  C   UNL     1      27.600  49.129  49.024  1.00  0.00     0.001 A 
HETATM   16  C   UNL     1      27.042  47.946  49.506  1.00  0.00     0.017 A 
ENDBRANCH   7  10
ENDBRANCH   5   6
BRANCH   5  17
HETATM   17  C   UNL     1      23.228  43.921  49.519  1.00  0.00     0.009 C 
HETATM   18  C   UNL     1      22.681  44.788  48.379  1.00  0.00     0.012 C 
HETATM   19  C   UNL     1      22.773  42.471  49.303  1.00  0.00     0.012 C 
ENDBRANCH   5  17
ENDBRANCH   1   5
BRANCH   2  20
HETATM   20  C   UNL     1      27.581  42.948  51.972  1.00  0.00     0.035 A 
HETATM   21  C   UNL     1      27.947  43.876  52.953  1.00  0.00     0.042 A 
HETATM   22  C   UNL     1      28.850  43.539  53.978  1.00  0.00    -0.021 A 
HETATM   23  C   UNL     1      29.400  42.250  53.983  1.00  0.00     0.012 A 
HETATM   24  C   UNL     1      29.041  41.317  53.009  1.00  0.00     0.003 A 
HETATM   25  C   UNL     1      28.127  41.663  52.016  1.00  0.00     0.029 A 
BRANCH  22  26
HETATM   26  C   UNL     1      29.191  44.520  55.005  1.00  0.00     0.010 A 
HETATM   27  C   UNL     1      30.290  44.581  55.901  1.00  0.00     0.152 A 
HETATM   28  N   UNL     1      30.261  45.658  56.692  1.00  0.00    -0.187 NA
HETATM   29  N   UNL     1      29.149  46.297  56.306  1.00  0.00    -0.289 N 
HETATM   30  H   UNL     1      28.910  47.168  56.768  1.00  0.00     0.188 HD
HETATM   31  C   UNL     1      28.474  45.661  55.304  1.00  0.00     0.123 A 
ENDBRANCH  22  26
ENDBRANCH   2  20
TORSDOF 6
ENDMDL
MODEL 6
REMARK VINA RESULT:      -8.5      2.665      9.270
REMARK  6 active torsions:
REMARK  status: ('A' for Active; 'I' for Inactive)
REMARK    1  A    between atoms: C_3  and  C_4 
REMARK       I    between atoms: C_4  and  N_5 
REMARK    2  A    between atoms: N_5  and  C_6 
REMARK    3  A    between atoms: C_6  and  C_7 
REMARK    4  A    between atoms: C_6  and  C_22 
REMARK       I    between atoms: C_7  and  N_8 
REMARK    5  A    between atoms: N_8  and  C_9 
REMARK    6  A    between atoms: C_11  and  C_12 
ROOT
HETATM    1  C   UNL     1      24.767  46.800  50.291  1.00  0.00     0.245 C 
HETATM    2  N   UNL     1      24.735  46.127  51.497  1.00  0.00    -0.325 N 
HETATM    3  O   UNL     1      25.617  47.619  49.942  1.00  0.00    -0.271 OA
HETATM    4  H   UNL     1      23.868  45.618  51.688  1.00  0.00     0.169 HD
ENDROOT
BRANCH   1   5
HETATM    5  C   UNL     1      23.619  46.411  49.321  1.00  0.00     0.180 C 
BRANCH   5   6
HETATM    6  N   UNL     1      22.455  47.286  49.490  1.00  0.00    -0.343 N 
HETATM    7  C   UNL     1      22.138  48.326  48.648  1.00  0.00     0.252 C 
HETATM    8  O   UNL     1      22.782  48.584  47.637  1.00  0.00    -0.268 OA
HETATM    9  H   UNL     1      22.000  47.254  50.392  1.00  0.00     0.163 HD
BRANCH   7  10
HETATM   10  C   UNL     1      20.994  49.188  49.060  1.00  0.00     0.037 A 
HETATM   11  C   UNL     1      19.669  48.729  49.217  1.00  0.00    -0.046 A 
HETATM   12  C   UNL     1      19.233  47.320  48.923  1.00  0.00     0.049 C 
HETATM   13  C   UNL     1      18.694  49.638  49.669  1.00  0.00     0.007 A 
HETATM   14  C   UNL     1      19.012  50.976  49.909  1.00  0.00     0.001 A 
HETATM   15  C   UNL     1      20.310  51.431  49.704  1.00  0.00     0.001 A 
HETATM   16  C   UNL     1      21.297  50.542  49.282  1.00  0.00     0.017 A 
ENDBRANCH   7  10
ENDBRANCH   5   6
BRANCH   5  17
HETATM   17  C   UNL     1      23.276  44.900  49.334  1.00  0.00     0.009 C 
HETATM   18  C   UNL     1      21.899  44.640  48.711  1.00  0.00     0.012 C 
HETATM   19  C   UNL     1      24.328  44.079  48.576  1.00  0.00     0.012 C 
ENDBRANCH   5  17
ENDBRANCH   1   5
BRANCH   2  20
HETATM   20  C   UNL     1      25.717  46.087  52.504  1.00  0.00     0.035 A 
HETATM   21  C   UNL     1      26.744  45.138  52.561  1.00  0.00     0.042 A 
HETATM   22  C   UNL     1      27.678  45.133  53.613  1.00  0.00    -0.021 A 
HETATM   23  C   UNL     1      27.544  46.091  54.627  1.00  0.00     0.012 A 
HETATM   24  C   UNL     1      26.524  47.043  54.579  1.00  0.00     0.003 A 
HETATM   25  C   UNL     1      25.623  47.046  53.516  1.00  0.00     0.029 A 
BRANCH  22  26
HETATM   26  C   UNL     1      28.756  44.148  53.630  1.00  0.00     0.010 A 
HETATM   27  C   UNL     1      29.596  43.710  54.687  1.00  0.00     0.152 A 
HETATM   28  N   UNL     1      30.465  42.767  54.310  1.00  0.00    -0.187 NA
HETATM   29  N   UNL     1      30.185  42.590  53.011  1.00  0.00    -0.289 N 
HETATM   30  H   UNL     1      30.722  41.902  52.494  1.00  0.00     0.188 HD
HETATM   31  C   UNL     1      29.176  43.389  52.557  1.00  0.00     0.123 A 
ENDBRANCH  22  26
ENDBRANCH   2  20
TORSDOF 6
ENDMDL
MODEL 7
REMARK VINA RESULT:      -8.2      1.876      2.602
REMARK  6 active torsions:
REMARK  status: ('A' for Active; 'I' for Inactive)
REMARK    1  A    between atoms: C_3  and  C_4 
REMARK       I    between atoms: C_4  and  N_5 
REMARK    2  A    between atoms: N_5  and  C_6 
REMARK    3  A    between atoms: C_6  and  C_7 
REMARK    4  A    between atoms: C_6  and  C_22 
REMARK       I    between atoms: C_7  and  N_8 
REMARK    5  A    between atoms: N_8  and  C_9 
REMARK    6  A    between atoms: C_11  and  C_12 
ROOT
HETATM    1  C   UNL     1      25.160  44.092  51.586  1.00  0.00     0.245 C 
HETATM    2  N   UNL     1      25.057  44.429  50.251  1.00  0.00    -0.325 N 
HETATM    3  O   UNL     1      24.485  44.555  52.504  1.00  0.00    -0.271 OA
HETATM    4  H   UNL     1      25.808  44.077  49.653  1.00  0.00     0.169 HD
ENDROOT
BRANCH   1   5
HETATM    5  C   UNL     1      26.217  42.992  51.878  1.00  0.00     0.180 C 
BRANCH   5   6
HETATM    6  N   UNL     1      27.318  43.512  52.694  1.00  0.00    -0.343 N 
HETATM    7  C   UNL     1      27.418  43.347  54.056  1.00  0.00     0.252 C 
HETATM    8  O   UNL     1      26.609  42.697  54.709  1.00  0.00    -0.268 OA
HETATM    9  H   UNL     1      27.906  44.210  52.260  1.00  0.00     0.163 HD
BRANCH   7  10
HETATM   10  C   UNL     1      28.537  44.064  54.731  1.00  0.00     0.037 A 
HETATM   11  C   UNL     1      28.484  45.412  55.145  1.00  0.00    -0.046 A 
HETATM   12  C   UNL     1      27.307  46.315  54.895  1.00  0.00     0.049 C 
HETATM   13  C   UNL     1      29.593  45.948  55.825  1.00  0.00     0.007 A 
HETATM   14  C   UNL     1      30.742  45.187  56.043  1.00  0.00     0.001 A 
HETATM   15  C   UNL     1      30.805  43.874  55.588  1.00  0.00     0.001 A 
HETATM   16  C   UNL     1      29.708  43.315  54.936  1.00  0.00     0.017 A 
ENDBRANCH   7  10
ENDBRANCH   5   6
BRANCH   5  17
HETATM   17  C   UNL     1      26.680  42.222  50.616  1.00  0.00     0.009 C 
HETATM   18  C   UNL     1      28.047  41.563  50.842  1.00  0.00     0.012 C 
HETATM   19  C   UNL     1      25.667  41.141  50.214  1.00  0.00     0.012 C 
ENDBRANCH   5  17
ENDBRANCH   1   5
BRANCH   2  20
HETATM   20  C   UNL     1      24.080  45.223  49.622  1.00  0.00     0.035 A 
HETATM   21  C   UNL     1      24.134  46.619  49.544  1.00  0.00     0.042 A 
HETATM   22  C   UNL     1      23.107  47.359  48.929  1.00  0.00    -0.021 A 
HETATM   23  C   UNL     1      22.005  46.665  48.412  1.00  0.00     0.012 A 
HETATM   24  C   UNL     1      21.941  45.272  48.483  1.00  0.00     0.003 A 
HETATM   25  C   UNL     1      22.980  44.557  49.076  1.00  0.00     0.029 A 
BRANCH  22  26
HETATM   26  C   UNL     1      23.207  48.813  48.837  1.00  0.00     0.010 A 
HETATM   27  C   UNL     1      24.073  49.637  48.074  1.00  0.00     0.152 A 
HETATM   28  N   UNL     1      23.843  50.943  48.247  1.00  0.00    -0.187 NA
HETATM   29  N   UNL     1      22.824  50.965  49.117  1.00  0.00    -0.289 N 
HETATM   30  H   UNL     1      22.458  51.866  49.405  1.00  0.00     0.188 HD
HETATM   31  C   UNL     1      22.408  49.723  49.500  1.00  0.00     0.123 A 
ENDBRANCH  22  26
ENDBRANCH   2  20
TORSDOF 6
ENDMDL
MODEL 8
REMARK VINA RESULT:      -8.0      2.457      3.271
REMARK  6 active torsions:
REMARK  status: ('A' for Active; 'I' for Inactive)
REMARK    1  A    between atoms: C_3  and  C_4 
REMARK       I    between atoms: C_4  and  N_5 
REMARK    2  A    between atoms: N_5  and  C_6 
REMARK    3  A    between atoms: C_6  and  C_7 
REMARK    4  A    between atoms: C_6  and  C_22 
REMARK       I    between atoms: C_7  and  N_8 
REMARK    5  A    between atoms: N_8  and  C_9 
REMARK    6  A    between atoms: C_11  and  C_12 
ROOT
HETATM    1  C   UNL     1      24.517  43.020  50.480  1.00  0.00     0.245 C 
HETATM    2  N   UNL     1      24.775  43.933  49.476  1.00  0.00    -0.325 N 
HETATM    3  O   UNL     1      23.481  42.942  51.139  1.00  0.00    -0.271 OA
HETATM    4  H   UNL     1      25.746  43.966  49.156  1.00  0.00     0.169 HD
ENDROOT
BRANCH   1   5
HETATM    5  C   UNL     1      25.667  42.004  50.719  1.00  0.00     0.180 C 
BRANCH   5   6
HETATM    6  N   UNL     1      26.542  42.435  51.814  1.00  0.00    -0.343 N 
HETATM    7  C   UNL     1      27.404  43.504  51.742  1.00  0.00     0.252 C 
HETATM    8  O   UNL     1      27.479  44.235  50.760  1.00  0.00    -0.268 OA
HETATM    9  H   UNL     1      26.673  41.774  52.568  1.00  0.00     0.163 HD
BRANCH   7  10
HETATM   10  C   UNL     1      28.312  43.704  52.907  1.00  0.00     0.037 A 
HETATM   11  C   UNL     1      28.056  44.595  53.972  1.00  0.00    -0.046 A 
HETATM   12  C   UNL     1      26.860  45.505  54.029  1.00  0.00     0.049 C 
HETATM   13  C   UNL     1      28.971  44.642  55.040  1.00  0.00     0.007 A 
HETATM   14  C   UNL     1      30.131  43.867  55.031  1.00  0.00     0.001 A 
HETATM   15  C   UNL     1      30.401  43.029  53.954  1.00  0.00     0.001 A 
HETATM   16  C   UNL     1      29.495  42.947  52.898  1.00  0.00     0.017 A 
ENDBRANCH   7  10
ENDBRANCH   5   6
BRANCH   5  17
HETATM   17  C   UNL     1      26.426  41.606  49.428  1.00  0.00     0.009 C 
HETATM   18  C   UNL     1      27.636  40.721  49.750  1.00  0.00     0.012 C 
HETATM   19  C   UNL     1      25.512  40.861  48.447  1.00  0.00     0.012 C 
ENDBRANCH   5  17
ENDBRANCH   1   5
BRANCH   2  20
HETATM   20  C   UNL     1      23.888  44.844  48.873  1.00  0.00     0.035 A 
HETATM   21  C   UNL     1      23.868  46.216  49.145  1.00  0.00     0.042 A 
HETATM   22  C   UNL     1      22.933  47.070  48.532  1.00  0.00    -0.021 A 
HETATM   23  C   UNL     1      21.997  46.510  47.652  1.00  0.00     0.012 A 
HETATM   24  C   UNL     1      22.009  45.143  47.372  1.00  0.00     0.003 A 
HETATM   25  C   UNL     1      22.958  44.317  47.973  1.00  0.00     0.029 A 
BRANCH  22  26
HETATM   26  C   UNL     1      22.955  48.503  48.813  1.00  0.00     0.010 A 
HETATM   27  C   UNL     1      21.929  49.378  49.252  1.00  0.00     0.152 A 
HETATM   28  N   UNL     1      22.347  50.637  49.416  1.00  0.00    -0.187 NA
HETATM   29  N   UNL     1      23.645  50.577  49.090  1.00  0.00    -0.289 N 
HETATM   30  H   UNL     1      24.194  51.429  49.143  1.00  0.00     0.188 HD
HETATM   31  C   UNL     1      24.058  49.329  48.723  1.00  0.00     0.123 A 
ENDBRANCH  22  26
ENDBRANCH   2  20
TORSDOF 6
ENDMDL
MODEL 9
REMARK VINA RESULT:      -8.0      4.526      8.917
REMARK  6 active torsions:
REMARK  status: ('A' for Active; 'I' for Inactive)
REMARK    1  A    between atoms: C_3  and  C_4 
REMARK       I    between atoms: C_4  and  N_5 
REMARK    2  A    between atoms: N_5  and  C_6 
REMARK    3  A    between atoms: C_6  and  C_7 
REMARK    4  A    between atoms: C_6  and  C_22 
REMARK       I    between atoms: C_7  and  N_8 
REMARK    5  A    between atoms: N_8  and  C_9 
REMARK    6  A    between atoms: C_11  and  C_12 
ROOT
HETATM    1  C   UNL     1      27.502  43.322  51.955  1.00  0.00     0.245 C 
HETATM    2  N   UNL     1      27.002  44.293  52.799  1.00  0.00    -0.325 N 
HETATM    3  O   UNL     1      28.680  42.977  51.864  1.00  0.00    -0.271 OA
HETATM    4  H   UNL     1      26.034  44.570  52.620  1.00  0.00     0.169 HD
ENDROOT
BRANCH   1   5
HETATM    5  C   UNL     1      26.418  42.613  51.098  1.00  0.00     0.180 C 
BRANCH   5   6
HETATM    6  N   UNL     1      27.016  41.655  50.163  1.00  0.00    -0.343 N 
HETATM    7  C   UNL     1      26.774  40.301  50.180  1.00  0.00     0.252 C 
HETATM    8  O   UNL     1      25.985  39.776  50.957  1.00  0.00    -0.268 OA
HETATM    9  H   UNL     1      27.811  41.985  49.632  1.00  0.00     0.163 HD
BRANCH   7  10
HETATM   10  C   UNL     1      27.579  39.471  49.240  1.00  0.00     0.037 A 
HETATM   11  C   UNL     1      28.758  38.782  49.596  1.00  0.00    -0.046 A 
HETATM   12  C   UNL     1      29.385  38.853  50.961  1.00  0.00     0.049 C 
HETATM   13  C   UNL     1      29.388  37.985  48.623  1.00  0.00     0.007 A 
HETATM   14  C   UNL     1      28.895  37.914  47.319  1.00  0.00     0.001 A 
HETATM   15  C   UNL     1      27.762  38.636  46.963  1.00  0.00     0.001 A 
HETATM   16  C   UNL     1      27.106  39.411  47.918  1.00  0.00     0.017 A 
ENDBRANCH   7  10
ENDBRANCH   5   6
BRANCH   5  17
HETATM   17  C   UNL     1      25.409  43.587  50.438  1.00  0.00     0.009 C 
HETATM   18  C   UNL     1      26.121  44.560  49.490  1.00  0.00     0.012 C 
HETATM   19  C   UNL     1      24.328  42.830  49.655  1.00  0.00     0.012 C 
ENDBRANCH   5  17
ENDBRANCH   1   5
BRANCH   2  20
HETATM   20  C   UNL     1      27.663  44.974  53.839  1.00  0.00     0.035 A 
HETATM   21  C   UNL     1      28.682  44.415  54.618  1.00  0.00     0.042 A 
HETATM   22  C   UNL     1      29.281  45.138  55.666  1.00  0.00    -0.021 A 
HETATM   23  C   UNL     1      28.817  46.434  55.931  1.00  0.00     0.012 A 
HETATM   24  C   UNL     1      27.802  47.001  55.159  1.00  0.00     0.003 A 
HETATM   25  C   UNL     1      27.237  46.276  54.111  1.00  0.00     0.029 A 
BRANCH  22  26
HETATM   26  C   UNL     1      30.363  44.539  56.444  1.00  0.00     0.010 A 
HETATM   27  C   UNL     1      30.907  44.898  57.704  1.00  0.00     0.152 A 
HETATM   28  N   UNL     1      31.892  44.085  58.100  1.00  0.00    -0.187 NA
HETATM   29  N   UNL     1      31.981  43.197  57.101  1.00  0.00    -0.289 N 
HETATM   30  H   UNL     1      32.670  42.457  57.176  1.00  0.00     0.188 HD
HETATM   31  C   UNL     1      31.092  43.423  56.089  1.00  0.00     0.123 A 
ENDBRANCH  22  26
ENDBRANCH   2  20
TORSDOF 6
ENDMDL
MODEL 10
REMARK VINA RESULT:      -7.9      3.091      9.315
REMARK  6 active torsions:
REMARK  status: ('A' for Active; 'I' for Inactive)
REMARK    1  A    between atoms: C_3  and  C_4 
REMARK       I    between atoms: C_4  and  N_5 
REMARK    2  A    between atoms: N_5  and  C_6 
REMARK    3  A    between atoms: C_6  and  C_7 
REMARK    4  A    between atoms: C_6  and  C_22 
REMARK       I    between atoms: C_7  and  N_8 
REMARK    5  A    between atoms: N_8  and  C_9 
REMARK    6  A    between atoms: C_11  and  C_12 
ROOT
HETATM    1  C   UNL     1      23.713  46.792  49.465  1.00  0.00     0.245 C 
HETATM    2  N   UNL     1      23.861  45.667  50.252  1.00  0.00    -0.325 N 
HETATM    3  O   UNL     1      24.497  47.738  49.399  1.00  0.00    -0.271 OA
HETATM    4  H   UNL     1      23.035  45.066  50.313  1.00  0.00     0.169 HD
ENDROOT
BRANCH   1   5
HETATM    5  C   UNL     1      22.438  46.777  48.578  1.00  0.00     0.180 C 
BRANCH   5   6
HETATM    6  N   UNL     1      21.513  47.851  48.952  1.00  0.00    -0.343 N 
HETATM    7  C   UNL     1      20.720  48.536  48.061  1.00  0.00     0.252 C 
HETATM    8  O   UNL     1      20.678  48.269  46.865  1.00  0.00    -0.268 OA
HETATM    9  H   UNL     1      21.638  48.249  49.873  1.00  0.00     0.163 HD
BRANCH   7  10
HETATM   10  C   UNL     1      19.947  49.686  48.609  1.00  0.00     0.037 A 
HETATM   11  C   UNL     1      18.865  49.563  49.506  1.00  0.00    -0.046 A 
HETATM   12  C   UNL     1      18.313  48.242  49.971  1.00  0.00     0.049 C 
HETATM   13  C   UNL     1      18.260  50.736  49.993  1.00  0.00     0.007 A 
HETATM   14  C   UNL     1      18.681  51.996  49.563  1.00  0.00     0.001 A 
HETATM   15  C   UNL     1      19.716  52.108  48.641  1.00  0.00     0.001 A 
HETATM   16  C   UNL     1      20.346  50.959  48.167  1.00  0.00     0.017 A 
ENDBRANCH   7  10
ENDBRANCH   5   6
BRANCH   5  17
HETATM   17  C   UNL     1      21.770  45.383  48.469  1.00  0.00     0.009 C 
HETATM   18  C   UNL     1      20.294  45.444  48.883  1.00  0.00     0.012 C 
HETATM   19  C   UNL     1      21.864  44.825  47.043  1.00  0.00     0.012 C 
ENDBRANCH   5  17
ENDBRANCH   1   5
BRANCH   2  20
HETATM   20  C   UNL     1      24.980  45.268  51.006  1.00  0.00     0.035 A 
HETATM   21  C   UNL     1      25.420  45.921  52.162  1.00  0.00     0.042 A 
HETATM   22  C   UNL     1      26.568  45.492  52.854  1.00  0.00    -0.021 A 
HETATM   23  C   UNL     1      27.282  44.399  52.344  1.00  0.00     0.012 A 
HETATM   24  C   UNL     1      26.851  43.739  51.192  1.00  0.00     0.003 A 
HETATM   25  C   UNL     1      25.699  44.167  50.534  1.00  0.00     0.029 A 
BRANCH  22  26
HETATM   26  C   UNL     1      26.986  46.176  54.075  1.00  0.00     0.010 A 
HETATM   27  C   UNL     1      26.448  47.313  54.731  1.00  0.00     0.152 A 
HETATM   28  N   UNL     1      27.106  47.633  55.850  1.00  0.00    -0.187 NA
HETATM   29  N   UNL     1      28.065  46.700  55.922  1.00  0.00    -0.289 N 
HETATM   30  H   UNL     1      28.705  46.729  56.709  1.00  0.00     0.188 HD
HETATM   31  C   UNL     1      28.038  45.808  54.889  1.00  0.00     0.123 A 
ENDBRANCH  22  26
ENDBRANCH   2  20
TORSDOF 6
ENDMDL
