MODEL 1
REMARK VINA RESULT:     -10.4      0.000      0.000
REMARK  5 active torsions:
REMARK  status: ('A' for Active; 'I' for Inactive)
REMARK    1  A    between atoms: C_2  and  C_3 
REMARK    2  A    between atoms: C_6  and  N_7 
REMARK       I    between atoms: N_7  and  C_8 
REMARK    3  A    between atoms: C_8  and  C_9 
REMARK    4  A    between atoms: C_17  and  C_18 
REMARK    5  A    between atoms: C_21  and  O_22 
ROOT
HETATM    1  C   UNL     1      27.148  43.697  50.802  1.00  0.00     0.047 A 
HETATM    2  C   UNL     1      27.423  42.384  50.350  1.00  0.00     0.008 A 
HETATM    3  C   UNL     1      28.134  41.567  51.244  1.00  0.00     0.068 A 
HETATM    4  C   UNL     1      28.407  40.253  50.888  1.00  0.00     0.032 A 
HETATM    5  C   UNL     1      28.025  39.724  49.654  1.00  0.00     0.002 A 
HETATM    6  C   UNL     1      27.366  40.530  48.739  1.00  0.00     0.001 A 
HETATM    7  C   UNL     1      27.075  41.850  49.078  1.00  0.00     0.015 A 
HETATM    8  N   UNL     1      28.590  42.001  52.429  1.00  0.00    -0.248 NA
HETATM    9  C   UNL     1      28.403  43.292  52.802  1.00  0.00     0.068 A 
HETATM   10  C   UNL     1      27.657  44.157  52.020  1.00  0.00     0.050 A 
ENDROOT
BRANCH   1  11
HETATM   11  C   UNL     1      26.369  44.683  50.007  1.00  0.00     0.257 C 
HETATM   12  N   UNL     1      26.657  46.009  50.275  1.00  0.00    -0.323 N 
HETATM   13  H   UNL     1      27.419  46.191  50.919  1.00  0.00     0.169 HD
HETATM   14  O   UNL     1      25.570  44.251  49.187  1.00  0.00    -0.267 OA
BRANCH  12  15
HETATM   15  C   UNL     1      25.924  47.138  49.850  1.00  0.00     0.035 A 
HETATM   16  C   UNL     1      26.503  48.280  49.297  1.00  0.00     0.030 A 
HETATM   17  C   UNL     1      25.702  49.320  48.813  1.00  0.00     0.017 A 
HETATM   18  C   UNL     1      24.308  49.220  48.860  1.00  0.00     0.009 A 
HETATM   19  C   UNL     1      23.721  48.097  49.448  1.00  0.00     0.017 A 
HETATM   20  C   UNL     1      24.528  47.066  49.947  1.00  0.00     0.030 A 
BRANCH  18  21
HETATM   21  C   UNL     1      23.495  50.316  48.266  1.00  0.00     0.155 C 
HETATM   22  C   UNL     1      22.713  51.215  49.189  1.00  0.00     0.096 C 
HETATM   23  O   UNL     1      23.464  50.463  47.046  1.00  0.00    -0.293 OA
ENDBRANCH  18  21
ENDBRANCH  12  15
ENDBRANCH   1  11
BRANCH   9  24
HETATM   24  C   UNL     1      29.080  43.695  54.054  1.00  0.00    -0.007 A 
HETATM   25  C   UNL     1      28.714  44.851  54.767  1.00  0.00     0.016 A 
HETATM   26  C   UNL     1      29.408  45.246  55.918  1.00  0.00     0.037 A 
HETATM   27  C   UNL     1      30.492  44.507  56.387  1.00  0.00     0.068 A 
HETATM   28  C   UNL     1      30.863  43.349  55.710  1.00  0.00     0.037 A 
HETATM   29  C   UNL     1      30.165  42.954  54.559  1.00  0.00     0.016 A 
BRANCH  27  30
HETATM   30  O   UNL     1      31.096  45.015  57.503  1.00  0.00    -0.356 OA
HETATM   31  C   UNL     1      30.381  46.019  58.212  1.00  0.00     0.210 C 
ENDBRANCH  27  30
ENDBRANCH   9  24
TORSDOF 5
ENDMDL
MODEL 2
REMARK VINA RESULT:     -10.2      1.298      1.651
REMARK  5 active torsions:
REMARK  status: ('A' for Active; 'I' for Inactive)
REMARK    1  A    between atoms: C_2  and  C_3 
REMARK    2  A    between atoms: C_6  and  N_7 
REMARK       I    between atoms: N_7  and  C_8 
REMARK    3  A    between atoms: C_8  and  C_9 
REMARK    4  A    between atoms: C_17  and  C_18 
REMARK    5  A    between atoms: C_21  and  O_22 
ROOT
HETATM    1  C   UNL     1      27.171  44.106  50.859  1.00  0.00     0.047 A 
HETATM    2  C   UNL     1      27.291  42.773  50.398  1.00  0.00     0.008 A 
HETATM    3  C   UNL     1      27.895  41.871  51.290  1.00  0.00     0.068 A 
HETATM    4  C   UNL     1      28.013  40.536  50.924  1.00  0.00     0.032 A 
HETATM    5  C   UNL     1      27.579  40.066  49.684  1.00  0.00     0.002 A 
HETATM    6  C   UNL     1      27.026  40.950  48.772  1.00  0.00     0.001 A 
HETATM    7  C   UNL     1      26.890  42.293  49.120  1.00  0.00     0.015 A 
HETATM    8  N   UNL     1      28.391  42.239  52.480  1.00  0.00    -0.248 NA
HETATM    9  C   UNL     1      28.356  43.540  52.862  1.00  0.00     0.068 A 
HETATM   10  C   UNL     1      27.723  44.493  52.084  1.00  0.00     0.050 A 
ENDROOT
BRANCH   1  11
HETATM   11  C   UNL     1      26.518  45.183  50.068  1.00  0.00     0.257 C 
HETATM   12  N   UNL     1      25.207  45.452  50.416  1.00  0.00    -0.323 N 
HETATM   13  H   UNL     1      24.837  44.959  51.221  1.00  0.00     0.169 HD
HETATM   14  O   UNL     1      27.186  45.743  49.207  1.00  0.00    -0.267 OA
BRANCH  12  15
HETATM   15  C   UNL     1      24.286  46.244  49.697  1.00  0.00     0.035 A 
HETATM   16  C   UNL     1      23.348  45.728  48.802  1.00  0.00     0.030 A 
HETATM   17  C   UNL     1      22.406  46.568  48.198  1.00  0.00     0.017 A 
HETATM   18  C   UNL     1      22.380  47.933  48.497  1.00  0.00     0.009 A 
HETATM   19  C   UNL     1      23.340  48.464  49.363  1.00  0.00     0.017 A 
HETATM   20  C   UNL     1      24.292  47.622  49.952  1.00  0.00     0.030 A 
BRANCH  18  21
HETATM   21  C   UNL     1      21.314  48.776  47.890  1.00  0.00     0.155 C 
HETATM   22  C   UNL     1      21.555  50.256  47.755  1.00  0.00     0.096 C 
HETATM   23  O   UNL     1      20.261  48.259  47.522  1.00  0.00    -0.293 OA
ENDBRANCH  18  21
ENDBRANCH  12  15
ENDBRANCH   1  11
BRANCH   9  24
HETATM   24  C   UNL     1      29.068  43.852  54.121  1.00  0.00    -0.007 A 
HETATM   25  C   UNL     1      28.787  45.003  54.878  1.00  0.00     0.016 A 
HETATM   26  C   UNL     1      29.514  45.309  56.035  1.00  0.00     0.037 A 
HETATM   27  C   UNL     1      30.550  44.482  56.467  1.00  0.00     0.068 A 
HETATM   28  C   UNL     1      30.836  43.327  55.746  1.00  0.00     0.037 A 
HETATM   29  C   UNL     1      30.104  43.022  54.589  1.00  0.00     0.016 A 
BRANCH  27  30
HETATM   30  O   UNL     1      31.194  44.908  57.595  1.00  0.00    -0.356 OA
HETATM   31  C   UNL     1      30.623  46.019  58.275  1.00  0.00     0.210 C 
ENDBRANCH  27  30
ENDBRANCH   9  24
TORSDOF 5
ENDMDL
MODEL 3
REMARK VINA RESULT:     -10.1      1.887      8.619
REMARK  5 active torsions:
REMARK  status: ('A' for Active; 'I' for Inactive)
REMARK    1  A    between atoms: C_2  and  C_3 
REMARK    2  A    between atoms: C_6  and  N_7 
REMARK       I    between atoms: N_7  and  C_8 
REMARK    3  A    between atoms: C_8  and  C_9 
REMARK    4  A    between atoms: C_17  and  C_18 
REMARK    5  A    between atoms: C_21  and  O_22 
ROOT
HETATM    1  C   UNL     1      25.893  44.034  51.625  1.00  0.00     0.047 A 
HETATM    2  C   UNL     1      25.847  42.847  50.854  1.00  0.00     0.008 A 
HETATM    3  C   UNL     1      25.231  42.961  49.596  1.00  0.00     0.068 A 
HETATM    4  C   UNL     1      25.182  41.850  48.765  1.00  0.00     0.032 A 
HETATM    5  C   UNL     1      25.697  40.612  49.151  1.00  0.00     0.002 A 
HETATM    6  C   UNL     1      26.263  40.468  50.407  1.00  0.00     0.001 A 
HETATM    7  C   UNL     1      26.331  41.571  51.256  1.00  0.00     0.015 A 
HETATM    8  N   UNL     1      24.660  44.094  49.160  1.00  0.00    -0.248 NA
HETATM    9  C   UNL     1      24.627  45.193  49.955  1.00  0.00     0.068 A 
HETATM   10  C   UNL     1      25.264  45.201  51.184  1.00  0.00     0.050 A 
ENDROOT
BRANCH   1  11
HETATM   11  C   UNL     1      26.544  44.109  52.960  1.00  0.00     0.257 C 
HETATM   12  N   UNL     1      27.857  44.543  52.946  1.00  0.00    -0.323 N 
HETATM   13  H   UNL     1      28.230  44.846  52.053  1.00  0.00     0.169 HD
HETATM   14  O   UNL     1      25.875  43.806  53.940  1.00  0.00    -0.267 OA
BRANCH  12  15
HETATM   15  C   UNL     1      28.778  44.491  54.015  1.00  0.00     0.035 A 
HETATM   16  C   UNL     1      28.864  45.459  55.016  1.00  0.00     0.030 A 
HETATM   17  C   UNL     1      29.740  45.289  56.094  1.00  0.00     0.017 A 
HETATM   18  C   UNL     1      30.527  44.138  56.192  1.00  0.00     0.009 A 
HETATM   19  C   UNL     1      30.475  43.182  55.174  1.00  0.00     0.017 A 
HETATM   20  C   UNL     1      29.609  43.365  54.088  1.00  0.00     0.030 A 
BRANCH  18  21
HETATM   21  C   UNL     1      31.389  43.964  57.394  1.00  0.00     0.155 C 
HETATM   22  C   UNL     1      31.283  44.970  58.509  1.00  0.00     0.096 C 
HETATM   23  O   UNL     1      32.172  43.018  57.452  1.00  0.00    -0.293 OA
ENDBRANCH  18  21
ENDBRANCH  12  15
ENDBRANCH   1  11
BRANCH   9  24
HETATM   24  C   UNL     1      23.840  46.331  49.432  1.00  0.00    -0.007 A 
HETATM   25  C   UNL     1      22.771  46.157  48.535  1.00  0.00     0.016 A 
HETATM   26  C   UNL     1      22.078  47.253  48.007  1.00  0.00     0.037 A 
HETATM   27  C   UNL     1      22.435  48.557  48.350  1.00  0.00     0.068 A 
HETATM   28  C   UNL     1      23.478  48.755  49.250  1.00  0.00     0.037 A 
HETATM   29  C   UNL     1      24.169  47.656  49.779  1.00  0.00     0.016 A 
BRANCH  27  30
HETATM   30  O   UNL     1      21.695  49.534  47.746  1.00  0.00    -0.356 OA
HETATM   31  C   UNL     1      21.731  50.823  48.345  1.00  0.00     0.210 C 
ENDBRANCH  27  30
ENDBRANCH   9  24
TORSDOF 5
ENDMDL
MODEL 4
REMARK VINA RESULT:      -9.9      1.920      5.670
REMARK  5 active torsions:
REMARK  status: ('A' for Active; 'I' for Inactive)
REMARK    1  A    between atoms: C_2  and  C_3 
REMARK    2  A    between atoms: C_6  and  N_7 
REMARK       I    between atoms: N_7  and  C_8 
REMARK    3  A    between atoms: C_8  and  C_9 
REMARK    4  A    between atoms: C_17  and  C_18 
REMARK    5  A    between atoms: C_21  and  O_22 
ROOT
HETATM    1  C   UNL     1      27.252  43.918  52.155  1.00  0.00     0.047 A 
HETATM    2  C   UNL     1      28.186  43.933  53.219  1.00  0.00     0.008 A 
HETATM    3  C   UNL     1      29.025  42.809  53.311  1.00  0.00     0.068 A 
HETATM    4  C   UNL     1      29.993  42.768  54.305  1.00  0.00     0.032 A 
HETATM    5  C   UNL     1      30.141  43.794  55.239  1.00  0.00     0.002 A 
HETATM    6  C   UNL     1      29.290  44.887  55.195  1.00  0.00     0.001 A 
HETATM    7  C   UNL     1      28.316  44.954  54.201  1.00  0.00     0.015 A 
HETATM    8  N   UNL     1      28.923  41.750  52.493  1.00  0.00    -0.248 NA
HETATM    9  C   UNL     1      27.956  41.712  51.542  1.00  0.00     0.068 A 
HETATM   10  C   UNL     1      27.124  42.797  51.329  1.00  0.00     0.050 A 
ENDROOT
BRANCH   1  11
HETATM   11  C   UNL     1      26.318  45.041  51.879  1.00  0.00     0.257 C 
HETATM   12  N   UNL     1      26.365  45.539  50.590  1.00  0.00    -0.323 N 
HETATM   13  H   UNL     1      26.961  45.050  49.932  1.00  0.00     0.169 HD
HETATM   14  O   UNL     1      25.587  45.412  52.790  1.00  0.00    -0.267 OA
BRANCH  12  15
HETATM   15  C   UNL     1      25.771  46.730  50.120  1.00  0.00     0.035 A 
HETATM   16  C   UNL     1      26.493  47.822  49.637  1.00  0.00     0.030 A 
HETATM   17  C   UNL     1      25.830  48.932  49.101  1.00  0.00     0.017 A 
HETATM   18  C   UNL     1      24.434  48.953  49.025  1.00  0.00     0.009 A 
HETATM   19  C   UNL     1      23.703  47.880  49.541  1.00  0.00     0.017 A 
HETATM   20  C   UNL     1      24.371  46.779  50.093  1.00  0.00     0.030 A 
BRANCH  18  21
HETATM   21  C   UNL     1      23.773  50.120  48.380  1.00  0.00     0.155 C 
HETATM   22  C   UNL     1      22.632  50.791  49.098  1.00  0.00     0.096 C 
HETATM   23  O   UNL     1      24.157  50.507  47.278  1.00  0.00    -0.293 OA
ENDBRANCH  18  21
ENDBRANCH  12  15
ENDBRANCH   1  11
BRANCH   9  24
HETATM   24  C   UNL     1      27.841  40.435  50.805  1.00  0.00    -0.007 A 
HETATM   25  C   UNL     1      28.941  39.582  50.603  1.00  0.00     0.016 A 
HETATM   26  C   UNL     1      28.822  38.407  49.850  1.00  0.00     0.037 A 
HETATM   27  C   UNL     1      27.606  38.051  49.268  1.00  0.00     0.068 A 
HETATM   28  C   UNL     1      26.498  38.869  49.468  1.00  0.00     0.037 A 
HETATM   29  C   UNL     1      26.619  40.043  50.224  1.00  0.00     0.016 A 
BRANCH  27  30
HETATM   30  O   UNL     1      27.633  36.895  48.540  1.00  0.00    -0.356 OA
HETATM   31  C   UNL     1      26.753  36.823  47.425  1.00  0.00     0.210 C 
ENDBRANCH  27  30
ENDBRANCH   9  24
TORSDOF 5
ENDMDL
MODEL 5
REMARK VINA RESULT:      -9.5      2.815      8.870
REMARK  5 active torsions:
REMARK  status: ('A' for Active; 'I' for Inactive)
REMARK    1  A    between atoms: C_2  and  C_3 
REMARK    2  A    between atoms: C_6  and  N_7 
REMARK       I    between atoms: N_7  and  C_8 
REMARK    3  A    between atoms: C_8  and  C_9 
REMARK    4  A    between atoms: C_17  and  C_18 
REMARK    5  A    between atoms: C_21  and  O_22 
ROOT
HETATM    1  C   UNL     1      25.864  43.888  51.656  1.00  0.00     0.047 A 
HETATM    2  C   UNL     1      25.238  44.963  50.977  1.00  0.00     0.008 A 
HETATM    3  C   UNL     1      24.627  44.639  49.755  1.00  0.00     0.068 A 
HETATM    4  C   UNL     1      23.959  45.632  49.050  1.00  0.00     0.032 A 
HETATM    5  C   UNL     1      23.902  46.951  49.500  1.00  0.00     0.002 A 
HETATM    6  C   UNL     1      24.542  47.300  50.679  1.00  0.00     0.001 A 
HETATM    7  C   UNL     1      25.212  46.319  51.408  1.00  0.00     0.015 A 
HETATM    8  N   UNL     1      24.674  43.412  49.214  1.00  0.00    -0.248 NA
HETATM    9  C   UNL     1      25.363  42.419  49.831  1.00  0.00     0.068 A 
HETATM   10  C   UNL     1      25.944  42.621  51.071  1.00  0.00     0.050 A 
ENDROOT
BRANCH   1  11
HETATM   11  C   UNL     1      26.521  44.038  52.981  1.00  0.00     0.257 C 
HETATM   12  N   UNL     1      27.850  44.416  52.935  1.00  0.00    -0.323 N 
HETATM   13  H   UNL     1      28.233  44.635  52.022  1.00  0.00     0.169 HD
HETATM   14  O   UNL     1      25.842  43.838  53.980  1.00  0.00    -0.267 OA
BRANCH  12  15
HETATM   15  C   UNL     1      28.770  44.407  54.006  1.00  0.00     0.035 A 
HETATM   16  C   UNL     1      28.854  45.413  54.969  1.00  0.00     0.030 A 
HETATM   17  C   UNL     1      29.730  45.288  56.053  1.00  0.00     0.017 A 
HETATM   18  C   UNL     1      30.518  44.143  56.197  1.00  0.00     0.009 A 
HETATM   19  C   UNL     1      30.469  43.148  55.217  1.00  0.00     0.017 A 
HETATM   20  C   UNL     1      29.604  43.287  54.124  1.00  0.00     0.030 A 
BRANCH  18  21
HETATM   21  C   UNL     1      31.380  44.018  57.405  1.00  0.00     0.155 C 
HETATM   22  C   UNL     1      31.244  45.046  58.497  1.00  0.00     0.096 C 
HETATM   23  O   UNL     1      32.187  43.094  57.487  1.00  0.00    -0.293 OA
ENDBRANCH  18  21
ENDBRANCH  12  15
ENDBRANCH   1  11
BRANCH   9  24
HETATM   24  C   UNL     1      25.476  41.156  49.069  1.00  0.00    -0.007 A 
HETATM   25  C   UNL     1      26.447  40.184  49.366  1.00  0.00     0.016 A 
HETATM   26  C   UNL     1      26.573  39.022  48.594  1.00  0.00     0.037 A 
HETATM   27  C   UNL     1      25.741  38.799  47.498  1.00  0.00     0.068 A 
HETATM   28  C   UNL     1      24.760  39.738  47.194  1.00  0.00     0.037 A 
HETATM   29  C   UNL     1      24.634  40.899  47.970  1.00  0.00     0.016 A 
BRANCH  27  30
HETATM   30  O   UNL     1      25.986  37.640  46.816  1.00  0.00    -0.356 OA
HETATM   31  C   UNL     1      26.116  36.457  47.595  1.00  0.00     0.210 C 
ENDBRANCH  27  30
ENDBRANCH   9  24
TORSDOF 5
ENDMDL
MODEL 6
REMARK VINA RESULT:      -9.4      2.254      8.698
REMARK  5 active torsions:
REMARK  status: ('A' for Active; 'I' for Inactive)
REMARK    1  A    between atoms: C_2  and  C_3 
REMARK    2  A    between atoms: C_6  and  N_7 
REMARK       I    between atoms: N_7  and  C_8 
REMARK    3  A    between atoms: C_8  and  C_9 
REMARK    4  A    between atoms: C_17  and  C_18 
REMARK    5  A    between atoms: C_21  and  O_22 
ROOT
HETATM    1  C   UNL     1      25.204  44.738  49.684  1.00  0.00     0.047 A 
HETATM    2  C   UNL     1      24.524  43.651  49.081  1.00  0.00     0.008 A 
HETATM    3  C   UNL     1      23.390  43.987  48.322  1.00  0.00     0.068 A 
HETATM    4  C   UNL     1      22.693  42.980  47.668  1.00  0.00     0.032 A 
HETATM    5  C   UNL     1      23.062  41.638  47.766  1.00  0.00     0.002 A 
HETATM    6  C   UNL     1      24.148  41.283  48.550  1.00  0.00     0.001 A 
HETATM    7  C   UNL     1      24.868  42.277  49.209  1.00  0.00     0.015 A 
HETATM    8  N   UNL     1      22.926  45.241  48.214  1.00  0.00    -0.248 NA
HETATM    9  C   UNL     1      23.534  46.255  48.880  1.00  0.00     0.068 A 
HETATM   10  C   UNL     1      24.696  46.037  49.600  1.00  0.00     0.050 A 
ENDROOT
BRANCH   1  11
HETATM   11  C   UNL     1      26.446  44.574  50.484  1.00  0.00     0.257 C 
HETATM   12  N   UNL     1      26.249  44.191  51.798  1.00  0.00    -0.323 N 
HETATM   13  H   UNL     1      25.297  43.979  52.075  1.00  0.00     0.169 HD
HETATM   14  O   UNL     1      27.517  44.767  49.922  1.00  0.00    -0.267 OA
BRANCH  12  15
HETATM   15  C   UNL     1      27.210  44.187  52.832  1.00  0.00     0.035 A 
HETATM   16  C   UNL     1      28.188  43.203  52.982  1.00  0.00     0.030 A 
HETATM   17  C   UNL     1      29.165  43.317  53.978  1.00  0.00     0.017 A 
HETATM   18  C   UNL     1      29.185  44.430  54.824  1.00  0.00     0.009 A 
HETATM   19  C   UNL     1      28.186  45.400  54.706  1.00  0.00     0.017 A 
HETATM   20  C   UNL     1      27.201  45.272  53.719  1.00  0.00     0.030 A 
BRANCH  18  21
HETATM   21  C   UNL     1      30.285  44.548  55.820  1.00  0.00     0.155 C 
HETATM   22  C   UNL     1      31.077  43.315  56.169  1.00  0.00     0.096 C 
HETATM   23  O   UNL     1      30.521  45.634  56.344  1.00  0.00    -0.293 OA
ENDBRANCH  18  21
ENDBRANCH  12  15
ENDBRANCH   1  11
BRANCH   9  24
HETATM   24  C   UNL     1      22.846  47.563  48.810  1.00  0.00    -0.007 A 
HETATM   25  C   UNL     1      21.609  47.728  48.164  1.00  0.00     0.016 A 
HETATM   26  C   UNL     1      21.005  48.987  48.058  1.00  0.00     0.037 A 
HETATM   27  C   UNL     1      21.621  50.122  48.585  1.00  0.00     0.068 A 
HETATM   28  C   UNL     1      22.838  49.982  49.245  1.00  0.00     0.037 A 
HETATM   29  C   UNL     1      23.439  48.720  49.352  1.00  0.00     0.016 A 
BRANCH  27  30
HETATM   30  O   UNL     1      20.939  51.290  48.392  1.00  0.00    -0.356 OA
HETATM   31  C   UNL     1      19.831  51.530  49.251  1.00  0.00     0.210 C 
ENDBRANCH  27  30
ENDBRANCH   9  24
TORSDOF 5
ENDMDL
MODEL 7
REMARK VINA RESULT:      -9.3      3.258      7.266
REMARK  5 active torsions:
REMARK  status: ('A' for Active; 'I' for Inactive)
REMARK    1  A    between atoms: C_2  and  C_3 
REMARK    2  A    between atoms: C_6  and  N_7 
REMARK       I    between atoms: N_7  and  C_8 
REMARK    3  A    between atoms: C_8  and  C_9 
REMARK    4  A    between atoms: C_17  and  C_18 
REMARK    5  A    between atoms: C_21  and  O_22 
ROOT
HETATM    1  C   UNL     1      27.206  42.398  51.391  1.00  0.00     0.047 A 
HETATM    2  C   UNL     1      26.224  43.390  51.152  1.00  0.00     0.008 A 
HETATM    3  C   UNL     1      26.359  44.574  51.896  1.00  0.00     0.068 A 
HETATM    4  C   UNL     1      25.457  45.609  51.688  1.00  0.00     0.032 A 
HETATM    5  C   UNL     1      24.397  45.499  50.786  1.00  0.00     0.002 A 
HETATM    6  C   UNL     1      24.219  44.320  50.081  1.00  0.00     0.001 A 
HETATM    7  C   UNL     1      25.117  43.271  50.267  1.00  0.00     0.015 A 
HETATM    8  N   UNL     1      27.311  44.752  52.823  1.00  0.00    -0.248 NA
HETATM    9  C   UNL     1      28.183  43.752  53.109  1.00  0.00     0.068 A 
HETATM   10  C   UNL     1      28.173  42.572  52.385  1.00  0.00     0.050 A 
ENDROOT
BRANCH   1  11
HETATM   11  C   UNL     1      27.245  41.102  50.663  1.00  0.00     0.257 C 
HETATM   12  N   UNL     1      28.337  40.930  49.833  1.00  0.00    -0.323 N 
HETATM   13  H   UNL     1      29.047  41.653  49.855  1.00  0.00     0.169 HD
HETATM   14  O   UNL     1      26.338  40.305  50.869  1.00  0.00    -0.267 OA
BRANCH  12  15
HETATM   15  C   UNL     1      28.513  39.920  48.863  1.00  0.00     0.035 A 
HETATM   16  C   UNL     1      29.118  38.689  49.121  1.00  0.00     0.030 A 
HETATM   17  C   UNL     1      29.172  37.702  48.130  1.00  0.00     0.017 A 
HETATM   18  C   UNL     1      28.602  37.929  46.874  1.00  0.00     0.009 A 
HETATM   19  C   UNL     1      28.028  39.172  46.596  1.00  0.00     0.017 A 
HETATM   20  C   UNL     1      27.993  40.164  47.585  1.00  0.00     0.030 A 
BRANCH  18  21
HETATM   21  C   UNL     1      28.615  36.825  45.875  1.00  0.00     0.155 C 
HETATM   22  C   UNL     1      29.821  36.672  44.986  1.00  0.00     0.096 C 
HETATM   23  O   UNL     1      27.648  36.072  45.785  1.00  0.00    -0.293 OA
ENDBRANCH  18  21
ENDBRANCH  12  15
ENDBRANCH   1  11
BRANCH   9  24
HETATM   24  C   UNL     1      29.087  44.005  54.252  1.00  0.00    -0.007 A 
HETATM   25  C   UNL     1      30.058  43.074  54.662  1.00  0.00     0.016 A 
HETATM   26  C   UNL     1      30.863  43.309  55.784  1.00  0.00     0.037 A 
HETATM   27  C   UNL     1      30.718  44.473  56.536  1.00  0.00     0.068 A 
HETATM   28  C   UNL     1      29.776  45.418  56.141  1.00  0.00     0.037 A 
HETATM   29  C   UNL     1      28.973  45.182  55.016  1.00  0.00     0.016 A 
BRANCH  27  30
HETATM   30  O   UNL     1      31.547  44.566  57.619  1.00  0.00    -0.356 OA
HETATM   31  C   UNL     1      31.064  45.311  58.730  1.00  0.00     0.210 C 
ENDBRANCH  27  30
ENDBRANCH   9  24
TORSDOF 5
ENDMDL
MODEL 8
REMARK VINA RESULT:      -9.1      2.330      8.703
REMARK  5 active torsions:
REMARK  status: ('A' for Active; 'I' for Inactive)
REMARK    1  A    between atoms: C_2  and  C_3 
REMARK    2  A    between atoms: C_6  and  N_7 
REMARK       I    between atoms: N_7  and  C_8 
REMARK    3  A    between atoms: C_8  and  C_9 
REMARK    4  A    between atoms: C_17  and  C_18 
REMARK    5  A    between atoms: C_21  and  O_22 
ROOT
HETATM    1  C   UNL     1      26.463  43.924  51.421  1.00  0.00     0.047 A 
HETATM    2  C   UNL     1      27.004  44.249  52.690  1.00  0.00     0.008 A 
HETATM    3  C   UNL     1      26.915  45.601  53.062  1.00  0.00     0.068 A 
HETATM    4  C   UNL     1      27.388  45.990  54.309  1.00  0.00     0.032 A 
HETATM    5  C   UNL     1      27.979  45.087  55.193  1.00  0.00     0.002 A 
HETATM    6  C   UNL     1      28.120  43.759  54.822  1.00  0.00     0.001 A 
HETATM    7  C   UNL     1      27.646  43.343  53.579  1.00  0.00     0.015 A 
HETATM    8  N   UNL     1      26.413  46.551  52.259  1.00  0.00    -0.248 NA
HETATM    9  C   UNL     1      25.992  46.236  51.008  1.00  0.00     0.068 A 
HETATM   10  C   UNL     1      25.976  44.922  50.573  1.00  0.00     0.050 A 
ENDROOT
BRANCH   1  11
HETATM   11  C   UNL     1      26.430  42.538  50.884  1.00  0.00     0.257 C 
HETATM   12  N   UNL     1      27.639  42.068  50.403  1.00  0.00    -0.323 N 
HETATM   13  H   UNL     1      28.447  42.667  50.532  1.00  0.00     0.169 HD
HETATM   14  O   UNL     1      25.366  41.934  50.928  1.00  0.00    -0.267 OA
BRANCH  12  15
HETATM   15  C   UNL     1      27.850  40.901  49.639  1.00  0.00     0.035 A 
HETATM   16  C   UNL     1      28.276  39.685  50.174  1.00  0.00     0.030 A 
HETATM   17  C   UNL     1      28.373  38.547  49.366  1.00  0.00     0.017 A 
HETATM   18  C   UNL     1      28.025  38.609  48.013  1.00  0.00     0.009 A 
HETATM   19  C   UNL     1      27.634  39.831  47.461  1.00  0.00     0.017 A 
HETATM   20  C   UNL     1      27.556  40.972  48.270  1.00  0.00     0.030 A 
BRANCH  18  21
HETATM   21  C   UNL     1      28.070  37.358  47.208  1.00  0.00     0.155 C 
HETATM   22  C   UNL     1      29.136  37.218  46.152  1.00  0.00     0.096 C 
HETATM   23  O   UNL     1      27.241  36.472  47.407  1.00  0.00    -0.293 OA
ENDBRANCH  18  21
ENDBRANCH  12  15
ENDBRANCH   1  11
BRANCH   9  24
HETATM   24  C   UNL     1      25.603  47.385  50.161  1.00  0.00    -0.007 A 
HETATM   25  C   UNL     1      24.264  47.654  49.828  1.00  0.00     0.016 A 
HETATM   26  C   UNL     1      23.925  48.712  48.976  1.00  0.00     0.037 A 
HETATM   27  C   UNL     1      24.911  49.528  48.422  1.00  0.00     0.068 A 
HETATM   28  C   UNL     1      26.242  49.294  48.751  1.00  0.00     0.037 A 
HETATM   29  C   UNL     1      26.579  48.235  49.606  1.00  0.00     0.016 A 
BRANCH  27  30
HETATM   30  O   UNL     1      24.447  50.507  47.589  1.00  0.00    -0.356 OA
HETATM   31  C   UNL     1      23.104  50.931  47.788  1.00  0.00     0.210 C 
ENDBRANCH  27  30
ENDBRANCH   9  24
TORSDOF 5
ENDMDL
MODEL 9
REMARK VINA RESULT:      -8.8      2.210      2.627
REMARK  5 active torsions:
REMARK  status: ('A' for Active; 'I' for Inactive)
REMARK    1  A    between atoms: C_2  and  C_3 
REMARK    2  A    between atoms: C_6  and  N_7 
REMARK       I    between atoms: N_7  and  C_8 
REMARK    3  A    between atoms: C_8  and  C_9 
REMARK    4  A    between atoms: C_17  and  C_18 
REMARK    5  A    between atoms: C_21  and  O_22 
ROOT
HETATM    1  C   UNL     1      26.197  42.061  50.378  1.00  0.00     0.047 A 
HETATM    2  C   UNL     1      26.891  40.930  49.881  1.00  0.00     0.008 A 
HETATM    3  C   UNL     1      28.001  40.516  50.634  1.00  0.00     0.068 A 
HETATM    4  C   UNL     1      28.709  39.391  50.231  1.00  0.00     0.032 A 
HETATM    5  C   UNL     1      28.373  38.676  49.082  1.00  0.00     0.002 A 
HETATM    6  C   UNL     1      27.311  39.099  48.298  1.00  0.00     0.001 A 
HETATM    7  C   UNL     1      26.581  40.221  48.687  1.00  0.00     0.015 A 
HETATM    8  N   UNL     1      28.434  41.170  51.723  1.00  0.00    -0.248 NA
HETATM    9  C   UNL     1      27.816  42.308  52.127  1.00  0.00     0.068 A 
HETATM   10  C   UNL     1      26.673  42.761  51.490  1.00  0.00     0.050 A 
ENDROOT
BRANCH   1  11
HETATM   11  C   UNL     1      24.975  42.611  49.735  1.00  0.00     0.257 C 
HETATM   12  N   UNL     1      25.171  43.762  48.995  1.00  0.00    -0.323 N 
HETATM   13  H   UNL     1      26.127  44.080  48.889  1.00  0.00     0.169 HD
HETATM   14  O   UNL     1      23.924  42.002  49.893  1.00  0.00    -0.267 OA
BRANCH  12  15
HETATM   15  C   UNL     1      24.173  44.617  48.478  1.00  0.00     0.035 A 
HETATM   16  C   UNL     1      23.345  44.286  47.405  1.00  0.00     0.030 A 
HETATM   17  C   UNL     1      22.317  45.149  47.009  1.00  0.00     0.017 A 
HETATM   18  C   UNL     1      22.093  46.346  47.697  1.00  0.00     0.009 A 
HETATM   19  C   UNL     1      22.942  46.702  48.748  1.00  0.00     0.017 A 
HETATM   20  C   UNL     1      23.982  45.843  49.129  1.00  0.00     0.030 A 
BRANCH  18  21
HETATM   21  C   UNL     1      20.942  47.197  47.290  1.00  0.00     0.155 C 
HETATM   22  C   UNL     1      20.906  48.630  47.753  1.00  0.00     0.096 C 
HETATM   23  O   UNL     1      20.043  46.721  46.600  1.00  0.00    -0.293 OA
ENDBRANCH  18  21
ENDBRANCH  12  15
ENDBRANCH   1  11
BRANCH   9  24
HETATM   24  C   UNL     1      28.471  43.025  53.243  1.00  0.00    -0.007 A 
HETATM   25  C   UNL     1      27.909  44.172  53.832  1.00  0.00     0.016 A 
HETATM   26  C   UNL     1      28.576  44.869  54.847  1.00  0.00     0.037 A 
HETATM   27  C   UNL     1      29.826  44.450  55.300  1.00  0.00     0.068 A 
HETATM   28  C   UNL     1      30.395  43.307  54.745  1.00  0.00     0.037 A 
HETATM   29  C   UNL     1      29.725  42.610  53.730  1.00  0.00     0.016 A 
BRANCH  27  30
HETATM   30  O   UNL     1      30.377  45.232  56.275  1.00  0.00    -0.356 OA
HETATM   31  C   UNL     1      29.471  45.929  57.121  1.00  0.00     0.210 C 
ENDBRANCH  27  30
ENDBRANCH   9  24
TORSDOF 5
ENDMDL
MODEL 10
REMARK VINA RESULT:      -8.5      2.788      8.699
REMARK  5 active torsions:
REMARK  status: ('A' for Active; 'I' for Inactive)
REMARK    1  A    between atoms: C_2  and  C_3 
REMARK    2  A    between atoms: C_6  and  N_7 
REMARK       I    between atoms: N_7  and  C_8 
REMARK    3  A    between atoms: C_8  and  C_9 
REMARK    4  A    between atoms: C_17  and  C_18 
REMARK    5  A    between atoms: C_21  and  O_22 
ROOT
HETATM    1  C   UNL     1      26.087  43.149  50.881  1.00  0.00     0.047 A 
HETATM    2  C   UNL     1      26.667  42.101  50.124  1.00  0.00     0.008 A 
HETATM    3  C   UNL     1      26.124  41.902  48.844  1.00  0.00     0.068 A 
HETATM    4  C   UNL     1      26.666  40.919  48.026  1.00  0.00     0.032 A 
HETATM    5  C   UNL     1      27.714  40.099  48.447  1.00  0.00     0.002 A 
HETATM    6  C   UNL     1      28.228  40.248  49.725  1.00  0.00     0.001 A 
HETATM    7  C   UNL     1      27.706  41.233  50.560  1.00  0.00     0.015 A 
HETATM    8  N   UNL     1      25.082  42.603  48.372  1.00  0.00    -0.248 NA
HETATM    9  C   UNL     1      24.476  43.535  49.151  1.00  0.00     0.068 A 
HETATM   10  C   UNL     1      24.978  43.851  50.402  1.00  0.00     0.050 A 
ENDROOT
BRANCH   1  11
HETATM   11  C   UNL     1      26.564  43.530  52.237  1.00  0.00     0.257 C 
HETATM   12  N   UNL     1      27.862  44.004  52.289  1.00  0.00    -0.323 N 
HETATM   13  H   UNL     1      28.340  44.127  51.403  1.00  0.00     0.169 HD
HETATM   14  O   UNL     1      25.781  43.413  53.171  1.00  0.00    -0.267 OA
BRANCH  12  15
HETATM   15  C   UNL     1      28.641  44.215  53.447  1.00  0.00     0.035 A 
HETATM   16  C   UNL     1      28.378  45.207  54.392  1.00  0.00     0.030 A 
HETATM   17  C   UNL     1      29.141  45.294  55.562  1.00  0.00     0.017 A 
HETATM   18  C   UNL     1      30.165  44.375  55.809  1.00  0.00     0.009 A 
HETATM   19  C   UNL     1      30.460  43.403  54.850  1.00  0.00     0.017 A 
HETATM   20  C   UNL     1      29.705  43.331  53.672  1.00  0.00     0.030 A 
BRANCH  18  21
HETATM   21  C   UNL     1      30.901  44.459  57.100  1.00  0.00     0.155 C 
HETATM   22  C   UNL     1      31.981  43.446  57.381  1.00  0.00     0.096 C 
HETATM   23  O   UNL     1      30.613  45.335  57.912  1.00  0.00    -0.293 OA
ENDBRANCH  18  21
ENDBRANCH  12  15
ENDBRANCH   1  11
BRANCH   9  24
HETATM   24  C   UNL     1      23.248  44.134  48.585  1.00  0.00    -0.007 A 
HETATM   25  C   UNL     1      22.724  45.353  49.050  1.00  0.00     0.016 A 
HETATM   26  C   UNL     1      21.527  45.872  48.541  1.00  0.00     0.037 A 
HETATM   27  C   UNL     1      20.811  45.186  47.560  1.00  0.00     0.068 A 
HETATM   28  C   UNL     1      21.318  43.986  47.071  1.00  0.00     0.037 A 
HETATM   29  C   UNL     1      22.518  43.470  47.581  1.00  0.00     0.016 A 
BRANCH  27  30
HETATM   30  O   UNL     1      19.648  45.789  47.169  1.00  0.00    -0.356 OA
HETATM   31  C   UNL     1      19.257  46.949  47.893  1.00  0.00     0.210 C 
ENDBRANCH  27  30
ENDBRANCH   9  24
TORSDOF 5
ENDMDL
