MODEL 1
REMARK VINA RESULT:      -7.6      0.000      0.000
REMARK  3 active torsions:
REMARK  status: ('A' for Active; 'I' for Inactive)
REMARK    1  A    between atoms: C_8  and  C_9 
REMARK    2  A    between atoms: C_10  and  O_11 
REMARK    3  A    between atoms: C_24  and  N_25 
ROOT
HETATM    1  C   UNL     1      19.039  47.891  45.175  1.00  0.00     0.073 C 
HETATM    2  C   UNL     1      18.602  49.199  45.724  1.00  0.00     0.062 A 
HETATM    3  N   UNL     1      18.239  50.193  44.895  1.00  0.00    -0.177 NA
HETATM    4  N   UNL     1      17.895  51.205  45.718  1.00  0.00    -0.256 N 
HETATM    5  H   UNL     1      17.581  52.079  45.314  1.00  0.00     0.191 HD
HETATM    6  C   UNL     1      18.015  50.877  47.029  1.00  0.00     0.175 A 
HETATM    7  C   UNL     1      18.496  49.594  47.078  1.00  0.00     0.034 A 
HETATM    8  C   UNL     1      18.704  48.936  48.398  1.00  0.00     0.109 A 
HETATM    9  C   UNL     1      18.396  49.901  49.545  1.00  0.00     0.081 A 
HETATM   10  C   UNL     1      18.555  49.395  50.869  1.00  0.00     0.100 C 
HETATM   11  N   UNL     1      18.643  48.986  51.951  1.00  0.00    -0.191 NA
HETATM   12  C   UNL     1      17.932  51.165  49.338  1.00  0.00     0.140 A 
HETATM   13  O   UNL     1      17.721  51.681  48.044  1.00  0.00    -0.279 OA
ENDROOT
BRANCH   8  14
HETATM   14  C   UNL     1      20.110  48.322  48.409  1.00  0.00     0.000 A 
HETATM   15  C   UNL     1      20.197  46.903  48.445  1.00  0.00     0.076 A 
HETATM   16  C   UNL     1      21.438  46.268  48.449  1.00  0.00     0.038 A 
HETATM   17  C   UNL     1      22.608  47.018  48.449  1.00  0.00     0.015 A 
HETATM   18  C   UNL     1      22.571  48.414  48.442  1.00  0.00    -0.025 A 
HETATM   19  C   UNL     1      21.325  49.098  48.423  1.00  0.00    -0.016 A 
HETATM   20  C   UNL     1      23.785  49.120  48.455  1.00  0.00     0.012 A 
HETATM   21  C   UNL     1      21.401  50.515  48.422  1.00  0.00     0.013 A 
HETATM   22  C   UNL     1      22.616  51.208  48.436  1.00  0.00     0.001 A 
HETATM   23  C   UNL     1      23.811  50.510  48.452  1.00  0.00     0.001 A 
BRANCH  15  24
HETATM   24  O   UNL     1      19.011  46.211  48.440  1.00  0.00    -0.355 OA
HETATM   25  C   UNL     1      18.950  45.031  47.645  1.00  0.00     0.210 C 
ENDBRANCH  15  24
ENDBRANCH   8  14
BRANCH  12  26
HETATM   26  N   UNL     1      17.616  52.073  50.324  1.00  0.00    -0.282 NA
HETATM   27  H   UNL     1      16.982  52.819  50.047  1.00  0.00     0.126 HD
HETATM   28  H   UNL     1      18.442  52.411  50.812  1.00  0.00     0.126 HD
ENDBRANCH  12  26
TORSDOF 3
ENDMDL
MODEL 2
REMARK VINA RESULT:      -7.1      2.455      5.486
REMARK  3 active torsions:
REMARK  status: ('A' for Active; 'I' for Inactive)
REMARK    1  A    between atoms: C_8  and  C_9 
REMARK    2  A    between atoms: C_10  and  O_11 
REMARK    3  A    between atoms: C_24  and  N_25 
ROOT
HETATM    1  C   UNL     1      21.940  50.861  48.263  1.00  0.00     0.073 C 
HETATM    2  C   UNL     1      21.919  49.377  48.232  1.00  0.00     0.062 A 
HETATM    3  N   UNL     1      23.064  48.687  48.098  1.00  0.00    -0.177 NA
HETATM    4  N   UNL     1      22.680  47.394  48.125  1.00  0.00    -0.256 N 
HETATM    5  H   UNL     1      23.385  46.672  48.038  1.00  0.00     0.191 HD
HETATM    6  C   UNL     1      21.340  47.250  48.284  1.00  0.00     0.175 A 
HETATM    7  C   UNL     1      20.805  48.511  48.332  1.00  0.00     0.034 A 
HETATM    8  C   UNL     1      19.340  48.681  48.537  1.00  0.00     0.109 A 
HETATM    9  C   UNL     1      18.633  47.325  48.584  1.00  0.00     0.081 A 
HETATM   10  C   UNL     1      17.220  47.345  48.777  1.00  0.00     0.100 C 
HETATM   11  N   UNL     1      16.076  47.343  48.971  1.00  0.00    -0.191 NA
HETATM   12  C   UNL     1      19.305  46.142  48.510  1.00  0.00     0.140 A 
HETATM   13  O   UNL     1      20.706  46.086  48.365  1.00  0.00    -0.279 OA
ENDROOT
BRANCH   8  14
HETATM   14  C   UNL     1      18.820  49.662  47.477  1.00  0.00     0.000 A 
HETATM   15  C   UNL     1      18.457  50.963  47.921  1.00  0.00     0.076 A 
HETATM   16  C   UNL     1      17.984  51.914  47.019  1.00  0.00     0.038 A 
HETATM   17  C   UNL     1      17.832  51.591  45.676  1.00  0.00     0.015 A 
HETATM   18  C   UNL     1      18.150  50.317  45.200  1.00  0.00    -0.025 A 
HETATM   19  C   UNL     1      18.649  49.325  46.086  1.00  0.00    -0.016 A 
HETATM   20  C   UNL     1      17.965  50.044  43.834  1.00  0.00     0.012 A 
HETATM   21  C   UNL     1      18.936  48.065  45.499  1.00  0.00     0.013 A 
HETATM   22  C   UNL     1      18.746  47.802  44.138  1.00  0.00     0.001 A 
HETATM   23  C   UNL     1      18.261  48.793  43.304  1.00  0.00     0.001 A 
BRANCH  15  24
HETATM   24  O   UNL     1      18.630  51.231  49.257  1.00  0.00    -0.355 OA
HETATM   25  C   UNL     1      17.916  52.339  49.796  1.00  0.00     0.210 C 
ENDBRANCH  15  24
ENDBRANCH   8  14
BRANCH  12  26
HETATM   26  N   UNL     1      18.732  44.891  48.569  1.00  0.00    -0.282 NA
HETATM   27  H   UNL     1      18.471  44.485  47.673  1.00  0.00     0.126 HD
HETATM   28  H   UNL     1      17.989  44.843  49.261  1.00  0.00     0.126 HD
ENDBRANCH  12  26
TORSDOF 3
ENDMDL
MODEL 3
REMARK VINA RESULT:      -7.0     12.309     13.860
REMARK  3 active torsions:
REMARK  status: ('A' for Active; 'I' for Inactive)
REMARK    1  A    between atoms: C_8  and  C_9 
REMARK    2  A    between atoms: C_10  and  O_11 
REMARK    3  A    between atoms: C_24  and  N_25 
ROOT
HETATM    1  C   UNL     1      30.725  48.321  42.730  1.00  0.00     0.073 C 
HETATM    2  C   UNL     1      29.833  48.544  41.565  1.00  0.00     0.062 A 
HETATM    3  N   UNL     1      29.164  47.514  41.019  1.00  0.00    -0.177 NA
HETATM    4  N   UNL     1      28.455  48.071  40.016  1.00  0.00    -0.256 N 
HETATM    5  H   UNL     1      27.862  47.477  39.448  1.00  0.00     0.191 HD
HETATM    6  C   UNL     1      28.643  49.411  39.924  1.00  0.00     0.175 A 
HETATM    7  C   UNL     1      29.549  49.755  40.894  1.00  0.00     0.034 A 
HETATM    8  C   UNL     1      29.937  51.183  41.064  1.00  0.00     0.109 A 
HETATM    9  C   UNL     1      29.268  52.062  40.004  1.00  0.00     0.081 A 
HETATM   10  C   UNL     1      29.555  53.458  40.056  1.00  0.00     0.100 C 
HETATM   11  N   UNL     1      29.750  54.601  40.107  1.00  0.00    -0.191 NA
HETATM   12  C   UNL     1      28.389  51.569  39.088  1.00  0.00     0.140 A 
HETATM   13  O   UNL     1      28.048  50.203  39.039  1.00  0.00    -0.279 OA
ENDROOT
BRANCH   8  14
HETATM   14  C   UNL     1      31.469  51.259  41.115  1.00  0.00     0.000 A 
HETATM   15  C   UNL     1      32.171  50.998  39.907  1.00  0.00     0.076 A 
HETATM   16  C   UNL     1      33.563  51.055  39.869  1.00  0.00     0.038 A 
HETATM   17  C   UNL     1      34.284  51.338  41.022  1.00  0.00     0.015 A 
HETATM   18  C   UNL     1      33.638  51.573  42.238  1.00  0.00    -0.025 A 
HETATM   19  C   UNL     1      32.219  51.539  42.314  1.00  0.00    -0.016 A 
HETATM   20  C   UNL     1      34.419  51.843  43.375  1.00  0.00     0.012 A 
HETATM   21  C   UNL     1      31.666  51.788  43.596  1.00  0.00     0.013 A 
HETATM   22  C   UNL     1      32.452  52.053  44.723  1.00  0.00     0.001 A 
HETATM   23  C   UNL     1      33.831  52.082  44.612  1.00  0.00     0.001 A 
BRANCH  15  24
HETATM   24  O   UNL     1      31.410  50.727  38.795  1.00  0.00    -0.355 OA
HETATM   25  C   UNL     1      31.827  51.310  37.565  1.00  0.00     0.210 C 
ENDBRANCH  15  24
ENDBRANCH   8  14
BRANCH  12  26
HETATM   26  N   UNL     1      27.738  52.308  38.125  1.00  0.00    -0.282 NA
HETATM   27  H   UNL     1      26.836  52.691  38.400  1.00  0.00     0.126 HD
HETATM   28  H   UNL     1      27.711  51.829  37.228  1.00  0.00     0.126 HD
ENDBRANCH  12  26
TORSDOF 3
ENDMDL
MODEL 4
REMARK VINA RESULT:      -6.9      7.305      9.070
REMARK  3 active torsions:
REMARK  status: ('A' for Active; 'I' for Inactive)
REMARK    1  A    between atoms: C_8  and  C_9 
REMARK    2  A    between atoms: C_10  and  O_11 
REMARK    3  A    between atoms: C_24  and  N_25 
ROOT
HETATM    1  C   UNL     1      25.170  45.061  48.751  1.00  0.00     0.073 C 
HETATM    2  C   UNL     1      25.628  46.051  49.758  1.00  0.00     0.062 A 
HETATM    3  N   UNL     1      26.132  47.233  49.363  1.00  0.00    -0.177 NA
HETATM    4  N   UNL     1      26.424  47.872  50.514  1.00  0.00    -0.256 N 
HETATM    5  H   UNL     1      26.826  48.801  50.471  1.00  0.00     0.191 HD
HETATM    6  C   UNL     1      26.107  47.141  51.613  1.00  0.00     0.175 A 
HETATM    7  C   UNL     1      25.612  45.943  51.167  1.00  0.00     0.034 A 
HETATM    8  C   UNL     1      25.142  44.930  52.153  1.00  0.00     0.109 A 
HETATM    9  C   UNL     1      25.382  45.407  53.587  1.00  0.00     0.081 A 
HETATM   10  C   UNL     1      24.975  44.527  54.632  1.00  0.00     0.100 C 
HETATM   11  N   UNL     1      24.614  43.839  55.494  1.00  0.00    -0.191 NA
HETATM   12  C   UNL     1      25.900  46.634  53.876  1.00  0.00     0.140 A 
HETATM   13  O   UNL     1      26.272  47.545  52.868  1.00  0.00    -0.279 OA
ENDROOT
BRANCH   8  14
HETATM   14  C   UNL     1      25.776  43.581  51.789  1.00  0.00     0.000 A 
HETATM   15  C   UNL     1      24.960  42.648  51.093  1.00  0.00     0.076 A 
HETATM   16  C   UNL     1      25.464  41.404  50.719  1.00  0.00     0.038 A 
HETATM   17  C   UNL     1      26.765  41.047  51.052  1.00  0.00     0.015 A 
HETATM   18  C   UNL     1      27.594  41.920  51.760  1.00  0.00    -0.025 A 
HETATM   19  C   UNL     1      27.121  43.203  52.146  1.00  0.00    -0.016 A 
HETATM   20  C   UNL     1      28.897  41.501  52.080  1.00  0.00     0.012 A 
HETATM   21  C   UNL     1      28.042  44.008  52.864  1.00  0.00     0.013 A 
HETATM   22  C   UNL     1      29.337  43.581  53.179  1.00  0.00     0.001 A 
HETATM   23  C   UNL     1      29.766  42.326  52.785  1.00  0.00     0.001 A 
BRANCH  15  24
HETATM   24  O   UNL     1      23.683  43.052  50.785  1.00  0.00    -0.355 OA
HETATM   25  C   UNL     1      23.028  42.379  49.714  1.00  0.00     0.210 C 
ENDBRANCH  15  24
ENDBRANCH   8  14
BRANCH  12  26
HETATM   26  N   UNL     1      26.121  47.131  55.141  1.00  0.00    -0.282 NA
HETATM   27  H   UNL     1      25.829  48.094  55.292  1.00  0.00     0.126 HD
HETATM   28  H   UNL     1      27.067  46.945  55.466  1.00  0.00     0.126 HD
ENDBRANCH  12  26
TORSDOF 3
ENDMDL
MODEL 5
REMARK VINA RESULT:      -6.7      2.808      5.058
REMARK  3 active torsions:
REMARK  status: ('A' for Active; 'I' for Inactive)
REMARK    1  A    between atoms: C_8  and  C_9 
REMARK    2  A    between atoms: C_10  and  O_11 
REMARK    3  A    between atoms: C_24  and  N_25 
ROOT
HETATM    1  C   UNL     1      16.785  47.679  48.677  1.00  0.00     0.073 C 
HETATM    2  C   UNL     1      17.346  47.625  47.304  1.00  0.00     0.062 A 
HETATM    3  N   UNL     1      17.772  46.458  46.793  1.00  0.00    -0.177 NA
HETATM    4  N   UNL     1      18.195  46.772  45.551  1.00  0.00    -0.256 N 
HETATM    5  H   UNL     1      18.568  46.038  44.961  1.00  0.00     0.191 HD
HETATM    6  C   UNL     1      18.035  48.088  45.261  1.00  0.00     0.175 A 
HETATM    7  C   UNL     1      17.512  48.683  46.380  1.00  0.00     0.034 A 
HETATM    8  C   UNL     1      17.193  50.137  46.358  1.00  0.00     0.109 A 
HETATM    9  C   UNL     1      17.604  50.768  45.025  1.00  0.00     0.081 A 
HETATM   10  C   UNL     1      17.351  52.163  44.872  1.00  0.00     0.100 C 
HETATM   11  N   UNL     1      17.118  53.289  44.717  1.00  0.00    -0.191 NA
HETATM   12  C   UNL     1      18.129  50.042  43.999  1.00  0.00     0.140 A 
HETATM   13  O   UNL     1      18.350  48.654  44.102  1.00  0.00    -0.279 OA
ENDROOT
BRANCH   8  14
HETATM   14  C   UNL     1      17.803  50.780  47.610  1.00  0.00     0.000 A 
HETATM   15  C   UNL     1      16.921  51.493  48.468  1.00  0.00     0.076 A 
HETATM   16  C   UNL     1      17.397  52.098  49.630  1.00  0.00     0.038 A 
HETATM   17  C   UNL     1      18.748  52.037  49.948  1.00  0.00     0.015 A 
HETATM   18  C   UNL     1      19.655  51.372  49.122  1.00  0.00    -0.025 A 
HETATM   19  C   UNL     1      19.207  50.729  47.936  1.00  0.00    -0.016 A 
HETATM   20  C   UNL     1      21.012  51.352  49.488  1.00  0.00     0.012 A 
HETATM   21  C   UNL     1      20.211  50.086  47.167  1.00  0.00     0.013 A 
HETATM   22  C   UNL     1      21.559  50.074  47.540  1.00  0.00     0.001 A 
HETATM   23  C   UNL     1      21.961  50.708  48.703  1.00  0.00     0.001 A 
BRANCH  15  24
HETATM   24  O   UNL     1      15.596  51.520  48.108  1.00  0.00    -0.355 OA
HETATM   25  C   UNL     1      15.039  52.786  47.769  1.00  0.00     0.210 C 
ENDBRANCH  15  24
ENDBRANCH   8  14
BRANCH  12  26
HETATM   26  N   UNL     1      18.499  50.543  42.771  1.00  0.00    -0.282 NA
HETATM   27  H   UNL     1      19.052  51.397  42.793  1.00  0.00     0.126 HD
HETATM   28  H   UNL     1      17.713  50.594  42.126  1.00  0.00     0.126 HD
ENDBRANCH  12  26
TORSDOF 3
ENDMDL
MODEL 6
REMARK VINA RESULT:      -6.4     24.048     26.180
REMARK  3 active torsions:
REMARK  status: ('A' for Active; 'I' for Inactive)
REMARK    1  A    between atoms: C_8  and  C_9 
REMARK    2  A    between atoms: C_10  and  O_11 
REMARK    3  A    between atoms: C_24  and  N_25 
ROOT
HETATM    1  C   UNL     1      40.489  43.754  63.449  1.00  0.00     0.073 C 
HETATM    2  C   UNL     1      39.033  43.578  63.676  1.00  0.00     0.062 A 
HETATM    3  N   UNL     1      38.250  43.090  62.699  1.00  0.00    -0.177 NA
HETATM    4  N   UNL     1      37.018  43.051  63.246  1.00  0.00    -0.256 N 
HETATM    5  H   UNL     1      36.244  42.712  62.687  1.00  0.00     0.191 HD
HETATM    6  C   UNL     1      37.003  43.483  64.532  1.00  0.00     0.175 A 
HETATM    7  C   UNL     1      38.285  43.859  64.843  1.00  0.00     0.034 A 
HETATM    8  C   UNL     1      38.594  44.352  66.214  1.00  0.00     0.109 A 
HETATM    9  C   UNL     1      37.327  44.429  67.068  1.00  0.00     0.081 A 
HETATM   10  C   UNL     1      37.485  44.888  68.408  1.00  0.00     0.100 C 
HETATM   11  N   UNL     1      37.602  45.223  69.513  1.00  0.00    -0.191 NA
HETATM   12  C   UNL     1      36.108  44.027  66.612  1.00  0.00     0.140 A 
HETATM   13  O   UNL     1      35.925  43.527  65.307  1.00  0.00    -0.279 OA
ENDROOT
BRANCH   8  14
HETATM   14  C   UNL     1      39.385  45.661  66.083  1.00  0.00     0.000 A 
HETATM   15  C   UNL     1      40.733  45.651  66.535  1.00  0.00     0.076 A 
HETATM   16  C   UNL     1      41.521  46.797  66.442  1.00  0.00     0.038 A 
HETATM   17  C   UNL     1      40.986  47.975  65.936  1.00  0.00     0.015 A 
HETATM   18  C   UNL     1      39.659  48.039  65.506  1.00  0.00    -0.025 A 
HETATM   19  C   UNL     1      38.829  46.888  65.570  1.00  0.00    -0.016 A 
HETATM   20  C   UNL     1      39.169  49.260  65.013  1.00  0.00     0.012 A 
HETATM   21  C   UNL     1      37.497  47.063  65.112  1.00  0.00     0.013 A 
HETATM   22  C   UNL     1      37.018  48.284  64.625  1.00  0.00     0.001 A 
HETATM   23  C   UNL     1      37.856  49.385  64.574  1.00  0.00     0.001 A 
BRANCH  15  24
HETATM   24  O   UNL     1      41.213  44.460  67.023  1.00  0.00    -0.355 OA
HETATM   25  C   UNL     1      42.518  44.066  66.611  1.00  0.00     0.210 C 
ENDBRANCH  15  24
ENDBRANCH   8  14
BRANCH  12  26
HETATM   26  N   UNL     1      34.936  44.050  67.335  1.00  0.00    -0.282 NA
HETATM   27  H   UNL     1      34.309  44.825  67.131  1.00  0.00     0.126 HD
HETATM   28  H   UNL     1      35.098  43.917  68.330  1.00  0.00     0.126 HD
ENDBRANCH  12  26
TORSDOF 3
ENDMDL
MODEL 7
REMARK VINA RESULT:      -6.4      3.005      6.242
REMARK  3 active torsions:
REMARK  status: ('A' for Active; 'I' for Inactive)
REMARK    1  A    between atoms: C_8  and  C_9 
REMARK    2  A    between atoms: C_10  and  O_11 
REMARK    3  A    between atoms: C_24  and  N_25 
ROOT
HETATM    1  C   UNL     1      19.193  52.363  48.392  1.00  0.00     0.073 C 
HETATM    2  C   UNL     1      19.426  50.936  48.056  1.00  0.00     0.062 A 
HETATM    3  N   UNL     1      20.656  50.406  48.169  1.00  0.00    -0.177 NA
HETATM    4  N   UNL     1      20.499  49.117  47.806  1.00  0.00    -0.256 N 
HETATM    5  H   UNL     1      21.306  48.505  47.810  1.00  0.00     0.191 HD
HETATM    6  C   UNL     1      19.215  48.817  47.485  1.00  0.00     0.175 A 
HETATM    7  C   UNL     1      18.491  49.974  47.609  1.00  0.00     0.034 A 
HETATM    8  C   UNL     1      17.024  49.955  47.351  1.00  0.00     0.109 A 
HETATM    9  C   UNL     1      16.567  48.569  46.888  1.00  0.00     0.081 A 
HETATM   10  C   UNL     1      15.178  48.413  46.607  1.00  0.00     0.100 C 
HETATM   11  N   UNL     1      14.045  48.260  46.411  1.00  0.00    -0.191 NA
HETATM   12  C   UNL     1      17.416  47.507  46.801  1.00  0.00     0.140 A 
HETATM   13  O   UNL     1      18.785  47.616  47.115  1.00  0.00    -0.279 OA
ENDROOT
BRANCH   8  14
HETATM   14  C   UNL     1      16.691  51.113  46.401  1.00  0.00     0.000 A 
HETATM   15  C   UNL     1      15.778  52.096  46.874  1.00  0.00     0.076 A 
HETATM   16  C   UNL     1      15.431  53.184  46.075  1.00  0.00     0.038 A 
HETATM   17  C   UNL     1      15.949  53.303  44.791  1.00  0.00     0.015 A 
HETATM   18  C   UNL     1      16.826  52.347  44.275  1.00  0.00    -0.025 A 
HETATM   19  C   UNL     1      17.216  51.232  45.064  1.00  0.00    -0.016 A 
HETATM   20  C   UNL     1      17.309  52.514  42.966  1.00  0.00     0.012 A 
HETATM   21  C   UNL     1      18.107  50.320  44.442  1.00  0.00     0.013 A 
HETATM   22  C   UNL     1      18.580  50.493  43.137  1.00  0.00     0.001 A 
HETATM   23  C   UNL     1      18.182  51.593  42.397  1.00  0.00     0.001 A 
BRANCH  15  24
HETATM   24  O   UNL     1      15.299  51.932  48.151  1.00  0.00    -0.355 OA
HETATM   25  C   UNL     1      15.416  53.041  49.037  1.00  0.00     0.210 C 
ENDBRANCH  15  24
ENDBRANCH   8  14
BRANCH  12  26
HETATM   26  N   UNL     1      17.065  46.232  46.414  1.00  0.00    -0.282 NA
HETATM   27  H   UNL     1      17.814  45.675  46.009  1.00  0.00     0.126 HD
HETATM   28  H   UNL     1      16.214  46.223  45.857  1.00  0.00     0.126 HD
ENDBRANCH  12  26
TORSDOF 3
ENDMDL
MODEL 8
REMARK VINA RESULT:      -6.4      2.429      4.775
REMARK  3 active torsions:
REMARK  status: ('A' for Active; 'I' for Inactive)
REMARK    1  A    between atoms: C_8  and  C_9 
REMARK    2  A    between atoms: C_10  and  O_11 
REMARK    3  A    between atoms: C_24  and  N_25 
ROOT
HETATM    1  C   UNL     1      18.614  50.941  44.232  1.00  0.00     0.073 C 
HETATM    2  C   UNL     1      17.789  49.735  44.491  1.00  0.00     0.062 A 
HETATM    3  N   UNL     1      16.721  49.467  43.721  1.00  0.00    -0.177 NA
HETATM    4  N   UNL     1      16.230  48.315  44.220  1.00  0.00    -0.256 N 
HETATM    5  H   UNL     1      15.406  47.908  43.793  1.00  0.00     0.191 HD
HETATM    6  C   UNL     1      16.959  47.843  45.262  1.00  0.00     0.175 A 
HETATM    7  C   UNL     1      17.965  48.747  45.488  1.00  0.00     0.034 A 
HETATM    8  C   UNL     1      18.962  48.484  46.563  1.00  0.00     0.109 A 
HETATM    9  C   UNL     1      18.619  47.203  47.327  1.00  0.00     0.081 A 
HETATM   10  C   UNL     1      19.499  46.835  48.387  1.00  0.00     0.100 C 
HETATM   11  N   UNL     1      20.226  46.501  49.227  1.00  0.00    -0.191 NA
HETATM   12  C   UNL     1      17.568  46.405  46.990  1.00  0.00     0.140 A 
HETATM   13  O   UNL     1      16.706  46.717  45.919  1.00  0.00    -0.279 OA
ENDROOT
BRANCH   8  14
HETATM   14  C   UNL     1      19.087  49.752  47.418  1.00  0.00     0.000 A 
HETATM   15  C   UNL     1      20.399  50.242  47.663  1.00  0.00     0.076 A 
HETATM   16  C   UNL     1      20.596  51.393  48.424  1.00  0.00     0.038 A 
HETATM   17  C   UNL     1      19.511  52.059  48.980  1.00  0.00     0.015 A 
HETATM   18  C   UNL     1      18.206  51.598  48.790  1.00  0.00    -0.025 A 
HETATM   19  C   UNL     1      17.963  50.437  48.008  1.00  0.00    -0.016 A 
HETATM   20  C   UNL     1      17.149  52.305  49.387  1.00  0.00     0.012 A 
HETATM   21  C   UNL     1      16.603  50.054  47.882  1.00  0.00     0.013 A 
HETATM   22  C   UNL     1      15.557  50.763  48.482  1.00  0.00     0.001 A 
HETATM   23  C   UNL     1      15.830  51.892  49.235  1.00  0.00     0.001 A 
BRANCH  15  24
HETATM   24  O   UNL     1      21.435  49.549  47.087  1.00  0.00    -0.355 OA
HETATM   25  C   UNL     1      22.515  49.170  47.934  1.00  0.00     0.210 C 
ENDBRANCH  15  24
ENDBRANCH   8  14
BRANCH  12  26
HETATM   26  N   UNL     1      17.219  45.232  47.621  1.00  0.00    -0.282 NA
HETATM   27  H   UNL     1      16.601  45.331  48.423  1.00  0.00     0.126 HD
HETATM   28  H   UNL     1      18.028  44.644  47.809  1.00  0.00     0.126 HD
ENDBRANCH  12  26
TORSDOF 3
ENDMDL
MODEL 9
REMARK VINA RESULT:      -6.4      3.000      5.809
REMARK  3 active torsions:
REMARK  status: ('A' for Active; 'I' for Inactive)
REMARK    1  A    between atoms: C_8  and  C_9 
REMARK    2  A    between atoms: C_10  and  O_11 
REMARK    3  A    between atoms: C_24  and  N_25 
ROOT
HETATM    1  C   UNL     1      19.069  52.551  48.638  1.00  0.00     0.073 C 
HETATM    2  C   UNL     1      19.178  51.118  49.008  1.00  0.00     0.062 A 
HETATM    3  N   UNL     1      20.193  50.695  49.781  1.00  0.00    -0.177 NA
HETATM    4  N   UNL     1      19.973  49.372  49.926  1.00  0.00    -0.256 N 
HETATM    5  H   UNL     1      20.622  48.826  50.479  1.00  0.00     0.191 HD
HETATM    6  C   UNL     1      18.852  48.956  49.286  1.00  0.00     0.175 A 
HETATM    7  C   UNL     1      18.320  50.051  48.656  1.00  0.00     0.034 A 
HETATM    8  C   UNL     1      17.051  49.914  47.889  1.00  0.00     0.109 A 
HETATM    9  C   UNL     1      16.574  48.460  47.874  1.00  0.00     0.081 A 
HETATM   10  C   UNL     1      15.363  48.190  47.171  1.00  0.00     0.100 C 
HETATM   11  N   UNL     1      14.360  47.960  46.634  1.00  0.00    -0.191 NA
HETATM   12  C   UNL     1      17.222  47.467  48.544  1.00  0.00     0.140 A 
HETATM   13  O   UNL     1      18.396  47.708  49.286  1.00  0.00    -0.279 OA
ENDROOT
BRANCH   8  14
HETATM   14  C   UNL     1      17.254  50.558  46.511  1.00  0.00     0.000 A 
HETATM   15  C   UNL     1      18.261  49.999  45.677  1.00  0.00     0.076 A 
HETATM   16  C   UNL     1      18.502  50.521  44.408  1.00  0.00     0.038 A 
HETATM   17  C   UNL     1      17.781  51.619  43.954  1.00  0.00     0.015 A 
HETATM   18  C   UNL     1      16.802  52.218  44.749  1.00  0.00    -0.025 A 
HETATM   19  C   UNL     1      16.516  51.705  46.043  1.00  0.00    -0.016 A 
HETATM   20  C   UNL     1      16.112  53.332  44.242  1.00  0.00     0.012 A 
HETATM   21  C   UNL     1      15.508  52.391  46.768  1.00  0.00     0.013 A 
HETATM   22  C   UNL     1      14.828  53.501  46.255  1.00  0.00     0.001 A 
HETATM   23  C   UNL     1      15.129  53.972  44.990  1.00  0.00     0.001 A 
BRANCH  15  24
HETATM   24  O   UNL     1      18.942  48.914  46.173  1.00  0.00    -0.355 OA
HETATM   25  C   UNL     1      19.036  47.766  45.335  1.00  0.00     0.210 C 
ENDBRANCH  15  24
ENDBRANCH   8  14
BRANCH  12  26
HETATM   26  N   UNL     1      16.834  46.146  48.589  1.00  0.00    -0.282 NA
HETATM   27  H   UNL     1      16.861  45.712  49.508  1.00  0.00     0.126 HD
HETATM   28  H   UNL     1      17.290  45.589  47.870  1.00  0.00     0.126 HD
ENDBRANCH  12  26
TORSDOF 3
ENDMDL
MODEL 10
REMARK VINA RESULT:      -6.3      2.720      5.103
REMARK  3 active torsions:
REMARK  status: ('A' for Active; 'I' for Inactive)
REMARK    1  A    between atoms: C_8  and  C_9 
REMARK    2  A    between atoms: C_10  and  O_11 
REMARK    3  A    between atoms: C_24  and  N_25 
ROOT
HETATM    1  C   UNL     1      20.440  46.153  45.884  1.00  0.00     0.073 C 
HETATM    2  C   UNL     1      21.251  46.651  47.022  1.00  0.00     0.062 A 
HETATM    3  N   UNL     1      22.229  45.889  47.541  1.00  0.00    -0.177 NA
HETATM    4  N   UNL     1      22.755  46.646  48.525  1.00  0.00    -0.256 N 
HETATM    5  H   UNL     1      23.523  46.274  49.071  1.00  0.00     0.191 HD
HETATM    6  C   UNL     1      22.155  47.858  48.631  1.00  0.00     0.175 A 
HETATM    7  C   UNL     1      21.157  47.893  47.692  1.00  0.00     0.034 A 
HETATM    8  C   UNL     1      20.331  49.124  47.543  1.00  0.00     0.109 A 
HETATM    9  C   UNL     1      20.719  50.174  48.587  1.00  0.00     0.081 A 
HETATM   10  C   UNL     1      20.003  51.406  48.553  1.00  0.00     0.100 C 
HETATM   11  N   UNL     1      19.454  52.428  48.515  1.00  0.00    -0.191 NA
HETATM   12  C   UNL     1      21.737  49.988  49.473  1.00  0.00     0.140 A 
HETATM   13  O   UNL     1      22.495  48.800  49.503  1.00  0.00    -0.279 OA
ENDROOT
BRANCH   8  14
HETATM   14  C   UNL     1      18.854  48.710  47.539  1.00  0.00     0.000 A 
HETATM   15  C   UNL     1      18.326  48.181  48.749  1.00  0.00     0.076 A 
HETATM   16  C   UNL     1      16.990  47.789  48.829  1.00  0.00     0.038 A 
HETATM   17  C   UNL     1      16.166  47.882  47.714  1.00  0.00     0.015 A 
HETATM   18  C   UNL     1      16.648  48.368  46.498  1.00  0.00    -0.025 A 
HETATM   19  C   UNL     1      17.999  48.792  46.380  1.00  0.00    -0.016 A 
HETATM   20  C   UNL     1      15.771  48.429  45.401  1.00  0.00     0.012 A 
HETATM   21  C   UNL     1      18.387  49.265  45.100  1.00  0.00     0.013 A 
HETATM   22  C   UNL     1      17.507  49.319  44.014  1.00  0.00     0.001 A 
HETATM   23  C   UNL     1      16.196  48.901  44.164  1.00  0.00     0.001 A 
BRANCH  15  24
HETATM   24  O   UNL     1      19.182  48.115  49.820  1.00  0.00    -0.355 OA
HETATM   25  C   UNL     1      18.693  48.580  51.074  1.00  0.00     0.210 C 
ENDBRANCH  15  24
ENDBRANCH   8  14
BRANCH  12  26
HETATM   26  N   UNL     1      22.150  50.899  50.420  1.00  0.00    -0.282 NA
HETATM   27  H   UNL     1      22.800  50.544  51.117  1.00  0.00     0.126 HD
HETATM   28  H   UNL     1      21.369  51.410  50.824  1.00  0.00     0.126 HD
ENDBRANCH  12  26
TORSDOF 3
ENDMDL
