MODEL 1
REMARK VINA RESULT:      -8.2      0.000      0.000
REMARK  2 active torsions:
REMARK  status: ('A' for Active; 'I' for Inactive)
REMARK    1  A    between atoms: C_8  and  S_9 
REMARK    2  A    between atoms: S_9  and  C_10 
ROOT
HETATM    1  C   UNL     1      31.031  43.373  55.944  1.00  0.00     0.002 A 
HETATM    2  C   UNL     1      30.045  43.081  55.000  1.00  0.00     0.034 A 
HETATM    3  C   UNL     1      29.036  43.990  54.707  1.00  0.00     0.087 A 
HETATM    4  C   UNL     1      29.017  45.241  55.382  1.00  0.00     0.087 A 
HETATM    5  N   UNL     1      28.061  46.160  55.136  1.00  0.00    -0.231 NA
HETATM    6  C   UNL     1      27.130  45.852  54.209  1.00  0.00     0.167 A 
HETATM    7 CL   UNL     1      25.943  47.065  53.998  1.00  0.00    -0.059 Cl
HETATM    8  C   UNL     1      27.160  44.640  53.562  1.00  0.00     0.193 A 
HETATM    9  N   UNL     1      28.092  43.671  53.793  1.00  0.00    -0.232 NA
HETATM   10  C   UNL     1      30.005  45.518  56.319  1.00  0.00     0.034 A 
HETATM   11  C   UNL     1      31.010  44.594  56.605  1.00  0.00     0.002 A 
ENDROOT
BRANCH   8  12
HETATM   12  S   UNL     1      25.946  44.206  52.370  1.00  0.00     0.201 S 
HETATM   13  O   UNL     1      26.377  42.971  51.727  1.00  0.00    -0.221 OA
HETATM   14  O   UNL     1      24.645  44.323  52.992  1.00  0.00    -0.221 OA
BRANCH  12  15
HETATM   15  C   UNL     1      26.033  45.452  51.086  1.00  0.00     0.141 C 
HETATM   16  C   UNL     1      26.729  44.875  49.854  1.00  0.00     0.252 C 
HETATM   17  N   UNL     1      25.834  43.910  49.125  1.00  0.00    -0.074 N 
HETATM   18  H   UNL     1      25.653  43.095  49.752  1.00  0.00     0.277 HD
HETATM   19  H   UNL     1      26.326  43.513  48.311  1.00  0.00     0.277 HD
HETATM   20  C   UNL     1      24.526  44.478  48.692  1.00  0.00     0.232 C 
HETATM   21  C   UNL     1      23.790  45.012  49.911  1.00  0.00     0.029 C 
HETATM   22  C   UNL     1      24.644  45.998  50.712  1.00  0.00     0.024 C 
ENDBRANCH  12  15
ENDBRANCH   8  12
TORSDOF 2
ENDMDL
MODEL 2
REMARK VINA RESULT:      -7.8      1.758      2.457
REMARK  2 active torsions:
REMARK  status: ('A' for Active; 'I' for Inactive)
REMARK    1  A    between atoms: C_8  and  S_9 
REMARK    2  A    between atoms: S_9  and  C_10 
ROOT
HETATM    1  C   UNL     1      30.551  45.071  56.371  1.00  0.00     0.002 A 
HETATM    2  C   UNL     1      29.433  45.627  55.746  1.00  0.00     0.034 A 
HETATM    3  C   UNL     1      28.730  44.928  54.773  1.00  0.00     0.087 A 
HETATM    4  C   UNL     1      29.161  43.621  54.416  1.00  0.00     0.087 A 
HETATM    5  N   UNL     1      28.515  42.899  53.477  1.00  0.00    -0.231 NA
HETATM    6  C   UNL     1      27.431  43.459  52.901  1.00  0.00     0.167 A 
HETATM    7 CL   UNL     1      26.707  42.479  51.701  1.00  0.00    -0.059 Cl
HETATM    8  C   UNL     1      27.023  44.722  53.257  1.00  0.00     0.193 A 
HETATM    9  N   UNL     1      27.656  45.499  54.183  1.00  0.00    -0.232 NA
HETATM   10  C   UNL     1      30.275  43.082  55.045  1.00  0.00     0.034 A 
HETATM   11  C   UNL     1      30.973  43.796  56.019  1.00  0.00     0.002 A 
ENDROOT
BRANCH   8  12
HETATM   12  S   UNL     1      25.630  45.482  52.505  1.00  0.00     0.201 S 
HETATM   13  O   UNL     1      24.513  44.551  52.599  1.00  0.00    -0.221 OA
HETATM   14  O   UNL     1      25.533  46.836  53.005  1.00  0.00    -0.221 OA
BRANCH  12  15
HETATM   15  C   UNL     1      25.999  45.588  50.755  1.00  0.00     0.141 C 
HETATM   16  C   UNL     1      24.969  44.786  49.961  1.00  0.00     0.252 C 
HETATM   17  N   UNL     1      23.641  45.493  49.922  1.00  0.00    -0.074 N 
HETATM   18  H   UNL     1      23.268  45.543  50.895  1.00  0.00     0.277 HD
HETATM   19  H   UNL     1      22.953  44.929  49.403  1.00  0.00     0.277 HD
HETATM   20  C   UNL     1      23.687  46.872  49.358  1.00  0.00     0.232 C 
HETATM   21  C   UNL     1      24.667  47.706  50.166  1.00  0.00     0.029 C 
HETATM   22  C   UNL     1      26.045  47.044  50.259  1.00  0.00     0.024 C 
ENDBRANCH  12  15
ENDBRANCH   8  12
TORSDOF 2
ENDMDL
MODEL 3
REMARK VINA RESULT:      -7.5      2.737      3.248
REMARK  2 active torsions:
REMARK  status: ('A' for Active; 'I' for Inactive)
REMARK    1  A    between atoms: C_8  and  S_9 
REMARK    2  A    between atoms: S_9  and  C_10 
ROOT
HETATM    1  C   UNL     1      30.631  43.377  55.184  1.00  0.00     0.002 A 
HETATM    2  C   UNL     1      30.043  42.866  54.025  1.00  0.00     0.034 A 
HETATM    3  C   UNL     1      28.924  43.465  53.461  1.00  0.00     0.087 A 
HETATM    4  C   UNL     1      28.375  44.622  54.079  1.00  0.00     0.087 A 
HETATM    5  N   UNL     1      27.289  45.241  53.573  1.00  0.00    -0.231 NA
HETATM    6  C   UNL     1      26.753  44.731  52.445  1.00  0.00     0.167 A 
HETATM    7 CL   UNL     1      25.361  45.566  51.907  1.00  0.00    -0.059 Cl
HETATM    8  C   UNL     1      27.295  43.614  51.856  1.00  0.00     0.193 A 
HETATM    9  N   UNL     1      28.376  42.939  52.342  1.00  0.00    -0.232 NA
HETATM   10  C   UNL     1      28.970  45.117  55.232  1.00  0.00     0.034 A 
HETATM   11  C   UNL     1      30.092  44.505  55.788  1.00  0.00     0.002 A 
ENDROOT
BRANCH   8  12
HETATM   12  S   UNL     1      26.600  42.916  50.402  1.00  0.00     0.201 S 
HETATM   13  O   UNL     1      25.197  42.629  50.674  1.00  0.00    -0.221 OA
HETATM   14  O   UNL     1      27.001  43.732  49.276  1.00  0.00    -0.221 OA
BRANCH  12  15
HETATM   15  C   UNL     1      27.370  41.312  50.195  1.00  0.00     0.141 C 
HETATM   16  C   UNL     1      26.341  40.210  50.442  1.00  0.00     0.252 C 
HETATM   17  N   UNL     1      25.370  40.106  49.297  1.00  0.00    -0.074 N 
HETATM   18  H   UNL     1      24.824  40.994  49.250  1.00  0.00     0.277 HD
HETATM   19  H   UNL     1      24.670  39.375  49.489  1.00  0.00     0.277 HD
HETATM   20  C   UNL     1      25.998  39.862  47.968  1.00  0.00     0.232 C 
HETATM   21  C   UNL     1      26.990  40.977  47.676  1.00  0.00     0.029 C 
HETATM   22  C   UNL     1      28.009  41.150  48.805  1.00  0.00     0.024 C 
ENDBRANCH  12  15
ENDBRANCH   8  12
TORSDOF 2
ENDMDL
MODEL 4
REMARK VINA RESULT:      -7.5      4.448      7.408
REMARK  2 active torsions:
REMARK  status: ('A' for Active; 'I' for Inactive)
REMARK    1  A    between atoms: C_8  and  S_9 
REMARK    2  A    between atoms: S_9  and  C_10 
ROOT
HETATM    1  C   UNL     1      21.153  49.745  48.608  1.00  0.00     0.002 A 
HETATM    2  C   UNL     1      21.829  48.617  49.077  1.00  0.00     0.034 A 
HETATM    3  C   UNL     1      23.216  48.592  49.160  1.00  0.00     0.087 A 
HETATM    4  C   UNL     1      23.952  49.742  48.764  1.00  0.00     0.087 A 
HETATM    5  N   UNL     1      25.299  49.770  48.825  1.00  0.00    -0.231 NA
HETATM    6  C   UNL     1      25.922  48.669  49.294  1.00  0.00     0.167 A 
HETATM    7 CL   UNL     1      27.628  48.794  49.296  1.00  0.00    -0.059 Cl
HETATM    8  C   UNL     1      25.199  47.565  49.676  1.00  0.00     0.193 A 
HETATM    9  N   UNL     1      23.839  47.480  49.611  1.00  0.00    -0.232 NA
HETATM   10  C   UNL     1      23.265  50.856  48.300  1.00  0.00     0.034 A 
HETATM   11  C   UNL     1      21.873  50.866  48.219  1.00  0.00     0.002 A 
ENDROOT
BRANCH   8  12
HETATM   12  S   UNL     1      25.988  46.111  50.266  1.00  0.00     0.201 S 
HETATM   13  O   UNL     1      26.947  45.686  49.255  1.00  0.00    -0.221 OA
HETATM   14  O   UNL     1      26.385  46.341  51.638  1.00  0.00    -0.221 OA
BRANCH  12  15
HETATM   15  C   UNL     1      24.736  44.831  50.285  1.00  0.00     0.141 C 
HETATM   16  C   UNL     1      24.792  44.035  48.982  1.00  0.00     0.252 C 
HETATM   17  N   UNL     1      25.993  43.129  48.949  1.00  0.00    -0.074 N 
HETATM   18  H   UNL     1      26.851  43.723  48.953  1.00  0.00     0.277 HD
HETATM   19  H   UNL     1      26.029  42.617  48.057  1.00  0.00     0.277 HD
HETATM   20  C   UNL     1      26.077  42.165  50.083  1.00  0.00     0.232 C 
HETATM   21  C   UNL     1      26.076  42.938  51.392  1.00  0.00     0.029 C 
HETATM   22  C   UNL     1      24.883  43.893  51.495  1.00  0.00     0.024 C 
ENDBRANCH  12  15
ENDBRANCH   8  12
TORSDOF 2
ENDMDL
MODEL 5
REMARK VINA RESULT:      -7.3      2.075      2.551
REMARK  2 active torsions:
REMARK  status: ('A' for Active; 'I' for Inactive)
REMARK    1  A    between atoms: C_8  and  S_9 
REMARK    2  A    between atoms: S_9  and  C_10 
ROOT
HETATM    1  C   UNL     1      30.422  43.125  54.644  1.00  0.00     0.002 A 
HETATM    2  C   UNL     1      29.865  43.072  53.364  1.00  0.00     0.034 A 
HETATM    3  C   UNL     1      28.770  43.855  53.022  1.00  0.00     0.087 A 
HETATM    4  C   UNL     1      28.215  44.728  53.998  1.00  0.00     0.087 A 
HETATM    5  N   UNL     1      27.152  45.510  53.719  1.00  0.00    -0.231 NA
HETATM    6  C   UNL     1      26.645  45.445  52.470  1.00  0.00     0.167 A 
HETATM    7 CL   UNL     1      25.279  46.445  52.230  1.00  0.00    -0.059 Cl
HETATM    8  C   UNL     1      27.192  44.598  51.535  1.00  0.00     0.193 A 
HETATM    9  N   UNL     1      28.251  43.773  51.777  1.00  0.00    -0.232 NA
HETATM   10  C   UNL     1      28.779  44.770  55.266  1.00  0.00     0.034 A 
HETATM   11  C   UNL     1      29.877  43.976  55.596  1.00  0.00     0.002 A 
ENDROOT
BRANCH   8  12
HETATM   12  S   UNL     1      26.535  44.477  49.911  1.00  0.00     0.201 S 
HETATM   13  O   UNL     1      26.474  45.823  49.356  1.00  0.00    -0.221 OA
HETATM   14  O   UNL     1      27.225  43.405  49.227  1.00  0.00    -0.221 OA
BRANCH  12  15
HETATM   15  C   UNL     1      24.826  43.974  50.096  1.00  0.00     0.141 C 
HETATM   16  C   UNL     1      24.138  43.971  48.732  1.00  0.00     0.252 C 
HETATM   17  N   UNL     1      24.593  42.805  47.896  1.00  0.00    -0.074 N 
HETATM   18  H   UNL     1      25.610  42.922  47.697  1.00  0.00     0.277 HD
HETATM   19  H   UNL     1      24.138  42.830  46.972  1.00  0.00     0.277 HD
HETATM   20  C   UNL     1      24.381  41.470  48.522  1.00  0.00     0.232 C 
HETATM   21  C   UNL     1      25.101  41.430  49.861  1.00  0.00     0.029 C 
HETATM   22  C   UNL     1      24.696  42.595  50.767  1.00  0.00     0.024 C 
ENDBRANCH  12  15
ENDBRANCH   8  12
TORSDOF 2
ENDMDL
MODEL 6
REMARK VINA RESULT:      -7.3      2.292      2.887
REMARK  2 active torsions:
REMARK  status: ('A' for Active; 'I' for Inactive)
REMARK    1  A    between atoms: C_8  and  S_9 
REMARK    2  A    between atoms: S_9  and  C_10 
ROOT
HETATM    1  C   UNL     1      29.615  45.432  55.653  1.00  0.00     0.002 A 
HETATM    2  C   UNL     1      28.656  45.362  54.641  1.00  0.00     0.034 A 
HETATM    3  C   UNL     1      28.594  44.272  53.782  1.00  0.00     0.087 A 
HETATM    4  C   UNL     1      29.524  43.210  53.946  1.00  0.00     0.087 A 
HETATM    5  N   UNL     1      29.507  42.129  53.140  1.00  0.00    -0.231 NA
HETATM    6  C   UNL     1      28.561  42.086  52.180  1.00  0.00     0.167 A 
HETATM    7 CL   UNL     1      28.648  40.694  51.190  1.00  0.00    -0.059 Cl
HETATM    8  C   UNL     1      27.665  43.118  52.033  1.00  0.00     0.193 A 
HETATM    9  N   UNL     1      27.657  44.241  52.807  1.00  0.00    -0.232 NA
HETATM   10  C   UNL     1      30.472  43.293  54.958  1.00  0.00     0.034 A 
HETATM   11  C   UNL     1      30.525  44.395  55.811  1.00  0.00     0.002 A 
ENDROOT
BRANCH   8  12
HETATM   12  S   UNL     1      26.440  43.097  50.775  1.00  0.00     0.201 S 
HETATM   13  O   UNL     1      27.112  43.299  49.498  1.00  0.00    -0.221 OA
HETATM   14  O   UNL     1      25.578  41.959  51.006  1.00  0.00    -0.221 OA
BRANCH  12  15
HETATM   15  C   UNL     1      25.448  44.569  51.013  1.00  0.00     0.141 C 
HETATM   16  C   UNL     1      25.552  45.467  49.782  1.00  0.00     0.252 C 
HETATM   17  N   UNL     1      24.776  44.897  48.626  1.00  0.00    -0.074 N 
HETATM   18  H   UNL     1      25.215  43.992  48.351  1.00  0.00     0.277 HD
HETATM   19  H   UNL     1      24.874  45.502  47.798  1.00  0.00     0.277 HD
HETATM   20  C   UNL     1      23.330  44.659  48.903  1.00  0.00     0.232 C 
HETATM   21  C   UNL     1      23.202  43.725  50.095  1.00  0.00     0.029 C 
HETATM   22  C   UNL     1      23.976  44.235  51.313  1.00  0.00     0.024 C 
ENDBRANCH  12  15
ENDBRANCH   8  12
TORSDOF 2
ENDMDL
MODEL 7
REMARK VINA RESULT:      -7.3     13.401     15.577
REMARK  2 active torsions:
REMARK  status: ('A' for Active; 'I' for Inactive)
REMARK    1  A    between atoms: C_8  and  S_9 
REMARK    2  A    between atoms: S_9  and  C_10 
ROOT
HETATM    1  C   UNL     1      27.410  48.098  38.679  1.00  0.00     0.002 A 
HETATM    2  C   UNL     1      28.408  48.588  39.524  1.00  0.00     0.034 A 
HETATM    3  C   UNL     1      28.663  49.950  39.624  1.00  0.00     0.087 A 
HETATM    4  C   UNL     1      27.886  50.856  38.851  1.00  0.00     0.087 A 
HETATM    5  N   UNL     1      28.093  52.187  38.909  1.00  0.00    -0.231 NA
HETATM    6  C   UNL     1      29.055  52.630  39.744  1.00  0.00     0.167 A 
HETATM    7 CL   UNL     1      29.262  54.327  39.717  1.00  0.00    -0.059 Cl
HETATM    8  C   UNL     1      29.798  51.744  40.488  1.00  0.00     0.193 A 
HETATM    9  N   UNL     1      29.642  50.389  40.446  1.00  0.00    -0.232 NA
HETATM   10  C   UNL     1      26.898  50.354  38.014  1.00  0.00     0.034 A 
HETATM   11  C   UNL     1      26.654  48.983  37.923  1.00  0.00     0.002 A 
ENDROOT
BRANCH   8  12
HETATM   12  S   UNL     1      31.073  52.293  41.564  1.00  0.00     0.201 S 
HETATM   13  O   UNL     1      32.027  53.054  40.767  1.00  0.00    -0.221 OA
HETATM   14  O   UNL     1      30.454  52.855  42.744  1.00  0.00    -0.221 OA
BRANCH  12  15
HETATM   15  C   UNL     1      31.963  50.827  42.079  1.00  0.00     0.141 C 
HETATM   16  C   UNL     1      33.269  50.714  41.294  1.00  0.00     0.252 C 
HETATM   17  N   UNL     1      34.277  51.727  41.765  1.00  0.00    -0.074 N 
HETATM   18  H   UNL     1      33.905  52.679  41.556  1.00  0.00     0.277 HD
HETATM   19  H   UNL     1      35.142  51.653  41.212  1.00  0.00     0.277 HD
HETATM   20  C   UNL     1      34.603  51.651  43.218  1.00  0.00     0.232 C 
HETATM   21  C   UNL     1      33.324  51.814  44.023  1.00  0.00     0.029 C 
HETATM   22  C   UNL     1      32.243  50.820  43.592  1.00  0.00     0.024 C 
ENDBRANCH  12  15
ENDBRANCH   8  12
TORSDOF 2
ENDMDL
MODEL 8
REMARK VINA RESULT:      -7.0     12.946     13.998
REMARK  2 active torsions:
REMARK  status: ('A' for Active; 'I' for Inactive)
REMARK    1  A    between atoms: C_8  and  S_9 
REMARK    2  A    between atoms: S_9  and  C_10 
ROOT
HETATM    1  C   UNL     1      33.523  51.878  44.247  1.00  0.00     0.002 A 
HETATM    2  C   UNL     1      32.182  51.742  43.882  1.00  0.00     0.034 A 
HETATM    3  C   UNL     1      31.817  51.460  42.572  1.00  0.00     0.087 A 
HETATM    4  C   UNL     1      32.834  51.304  41.591  1.00  0.00     0.087 A 
HETATM    5  N   UNL     1      32.535  51.030  40.305  1.00  0.00    -0.231 NA
HETATM    6  C   UNL     1      31.231  50.892  39.987  1.00  0.00     0.167 A 
HETATM    7 CL   UNL     1      30.957  50.583  38.327  1.00  0.00    -0.059 Cl
HETATM    8  C   UNL     1      30.257  51.043  40.945  1.00  0.00     0.193 A 
HETATM    9  N   UNL     1      30.509  51.343  42.252  1.00  0.00    -0.232 NA
HETATM   10  C   UNL     1      34.163  51.442  41.969  1.00  0.00     0.034 A 
HETATM   11  C   UNL     1      34.515  51.728  43.288  1.00  0.00     0.002 A 
ENDROOT
BRANCH   8  12
HETATM   12  S   UNL     1      28.553  50.893  40.551  1.00  0.00     0.201 S 
HETATM   13  O   UNL     1      27.815  50.800  41.805  1.00  0.00    -0.221 OA
HETATM   14  O   UNL     1      28.232  51.893  39.556  1.00  0.00    -0.221 OA
BRANCH  12  15
HETATM   15  C   UNL     1      28.354  49.291  39.776  1.00  0.00     0.141 C 
HETATM   16  C   UNL     1      27.750  48.306  40.775  1.00  0.00     0.252 C 
HETATM   17  N   UNL     1      26.290  48.590  41.006  1.00  0.00    -0.074 N 
HETATM   18  H   UNL     1      26.207  49.530  41.453  1.00  0.00     0.277 HD
HETATM   19  H   UNL     1      25.904  47.933  41.698  1.00  0.00     0.277 HD
HETATM   20  C   UNL     1      25.450  48.573  39.775  1.00  0.00     0.232 C 
HETATM   21  C   UNL     1      26.001  49.586  38.784  1.00  0.00     0.029 C 
HETATM   22  C   UNL     1      27.490  49.365  38.504  1.00  0.00     0.024 C 
ENDBRANCH  12  15
ENDBRANCH   8  12
TORSDOF 2
ENDMDL
MODEL 9
REMARK VINA RESULT:      -6.9      4.062      8.076
REMARK  2 active torsions:
REMARK  status: ('A' for Active; 'I' for Inactive)
REMARK    1  A    between atoms: C_8  and  S_9 
REMARK    2  A    between atoms: S_9  and  C_10 
ROOT
HETATM    1  C   UNL     1      21.609  51.257  48.619  1.00  0.00     0.002 A 
HETATM    2  C   UNL     1      22.726  50.669  49.217  1.00  0.00     0.034 A 
HETATM    3  C   UNL     1      22.946  49.300  49.142  1.00  0.00     0.087 A 
HETATM    4  C   UNL     1      22.015  48.489  48.437  1.00  0.00     0.087 A 
HETATM    5  N   UNL     1      22.181  47.154  48.334  1.00  0.00    -0.231 NA
HETATM    6  C   UNL     1      23.277  46.619  48.912  1.00  0.00     0.167 A 
HETATM    7 CL   UNL     1      23.375  44.919  48.756  1.00  0.00    -0.059 Cl
HETATM    8  C   UNL     1      24.171  47.415  49.588  1.00  0.00     0.193 A 
HETATM    9  N   UNL     1      24.034  48.764  49.739  1.00  0.00    -0.232 NA
HETATM   10  C   UNL     1      20.909  49.087  47.848  1.00  0.00     0.034 A 
HETATM   11  C   UNL     1      20.699  50.463  47.934  1.00  0.00     0.002 A 
ENDROOT
BRANCH   8  12
HETATM   12  S   UNL     1      25.591  46.739  50.369  1.00  0.00     0.201 S 
HETATM   13  O   UNL     1      26.252  45.865  49.409  1.00  0.00    -0.221 OA
HETATM   14  O   UNL     1      26.299  47.817  51.025  1.00  0.00    -0.221 OA
BRANCH  12  15
HETATM   15  C   UNL     1      24.987  45.645  51.652  1.00  0.00     0.141 C 
HETATM   16  C   UNL     1      25.498  44.227  51.403  1.00  0.00     0.252 C 
HETATM   17  N   UNL     1      26.963  44.111  51.725  1.00  0.00    -0.074 N 
HETATM   18  H   UNL     1      27.492  44.720  51.064  1.00  0.00     0.277 HD
HETATM   19  H   UNL     1      27.296  43.156  51.531  1.00  0.00     0.277 HD
HETATM   20  C   UNL     1      27.326  44.494  53.119  1.00  0.00     0.232 C 
HETATM   21  C   UNL     1      26.874  45.923  53.375  1.00  0.00     0.029 C 
HETATM   22  C   UNL     1      25.389  46.122  53.059  1.00  0.00     0.024 C 
ENDBRANCH  12  15
ENDBRANCH   8  12
TORSDOF 2
ENDMDL
MODEL 10
REMARK VINA RESULT:      -6.6     13.476     14.053
REMARK  2 active torsions:
REMARK  status: ('A' for Active; 'I' for Inactive)
REMARK    1  A    between atoms: C_8  and  S_9 
REMARK    2  A    between atoms: S_9  and  C_10 
ROOT
HETATM    1  C   UNL     1      33.838  50.888  42.769  1.00  0.00     0.002 A 
HETATM    2  C   UNL     1      33.061  50.528  41.666  1.00  0.00     0.034 A 
HETATM    3  C   UNL     1      31.756  50.983  41.525  1.00  0.00     0.087 A 
HETATM    4  C   UNL     1      31.210  51.834  42.525  1.00  0.00     0.087 A 
HETATM    5  N   UNL     1      29.949  52.304  42.437  1.00  0.00    -0.231 NA
HETATM    6  C   UNL     1      29.228  51.948  41.353  1.00  0.00     0.167 A 
HETATM    7 CL   UNL     1      27.633  52.564  41.356  1.00  0.00    -0.059 Cl
HETATM    8  C   UNL     1      29.768  51.126  40.393  1.00  0.00     0.193 A 
HETATM    9  N   UNL     1      31.029  50.608  40.448  1.00  0.00    -0.232 NA
HETATM   10  C   UNL     1      31.995  52.183  43.616  1.00  0.00     0.034 A 
HETATM   11  C   UNL     1      33.303  51.717  43.745  1.00  0.00     0.002 A 
ENDROOT
BRANCH   8  12
HETATM   12  S   UNL     1      28.843  50.629  38.986  1.00  0.00     0.201 S 
HETATM   13  O   UNL     1      28.184  51.812  38.447  1.00  0.00    -0.221 OA
HETATM   14  O   UNL     1      29.690  49.793  38.163  1.00  0.00    -0.221 OA
BRANCH  12  15
HETATM   15  C   UNL     1      27.513  49.597  39.597  1.00  0.00     0.141 C 
HETATM   16  C   UNL     1      27.038  48.657  38.490  1.00  0.00     0.252 C 
HETATM   17  N   UNL     1      28.037  47.558  38.243  1.00  0.00    -0.074 N 
HETATM   18  H   UNL     1      28.917  47.991  37.887  1.00  0.00     0.277 HD
HETATM   19  H   UNL     1      27.713  46.948  37.480  1.00  0.00     0.277 HD
HETATM   20  C   UNL     1      28.363  46.733  39.441  1.00  0.00     0.232 C 
HETATM   21  C   UNL     1      28.888  47.642  40.541  1.00  0.00     0.029 C 
HETATM   22  C   UNL     1      27.927  48.795  40.843  1.00  0.00     0.024 C 
ENDBRANCH  12  15
ENDBRANCH   8  12
TORSDOF 2
ENDMDL
