MODEL 1
REMARK VINA RESULT:     -10.2      0.000      0.000
REMARK  6 active torsions:
REMARK  status: ('A' for Active; 'I' for Inactive)
REMARK    1  A    between atoms: C_2  and  O_3 
REMARK    2  A    between atoms: O_3  and  C_4 
REMARK    3  A    between atoms: C_5  and  O_6 
REMARK    4  A    between atoms: C_9  and  C_10 
REMARK       I    between atoms: C_10  and  N_11 
REMARK    5  A    between atoms: N_11  and  N_12 
REMARK       I    between atoms: N_12  and  C_13 
REMARK    6  A    between atoms: C_13  and  C_14 
ROOT
HETATM    1  N   UNL     1      25.403  46.237  51.232  1.00  0.00    -0.263 N 
HETATM    2  C   UNL     1      25.870  46.552  52.491  1.00  0.00     0.270 C 
HETATM    3  O   UNL     1      25.421  47.502  53.131  1.00  0.00    -0.266 OA
HETATM    4  H   UNL     1      25.682  45.427  50.683  1.00  0.00     0.190 HD
ENDROOT
BRANCH   1   5
HETATM    5  N   UNL     1      24.371  47.010  50.693  1.00  0.00    -0.263 N 
HETATM    6  C   UNL     1      24.696  47.920  49.710  1.00  0.00     0.270 C 
HETATM    7  O   UNL     1      25.835  48.033  49.260  1.00  0.00    -0.266 OA
HETATM    8  H   UNL     1      23.503  47.023  51.225  1.00  0.00     0.190 HD
BRANCH   6   9
HETATM    9  C   UNL     1      23.596  48.792  49.218  1.00  0.00     0.036 A 
HETATM   10  C   UNL     1      22.316  48.237  49.097  1.00  0.00     0.056 A 
HETATM   11  C   UNL     1      21.241  49.021  48.663  1.00  0.00     0.102 A 
HETATM   12  C   UNL     1      21.449  50.383  48.364  1.00  0.00     0.102 A 
HETATM   13  C   UNL     1      22.729  50.933  48.491  1.00  0.00     0.040 A 
HETATM   14  C   UNL     1      23.800  50.142  48.918  1.00  0.00     0.020 A 
BRANCH  11  15
HETATM   15  O   UNL     1      19.957  48.559  48.510  1.00  0.00    -0.353 OA
HETATM   16  C   UNL     1      19.226  48.240  49.686  1.00  0.00     0.210 C 
ENDBRANCH  11  15
BRANCH  12  17
HETATM   17  O   UNL     1      20.342  51.086  47.956  1.00  0.00    -0.349 OA
BRANCH  17  18
HETATM   18  C   UNL     1      19.739  51.979  48.887  1.00  0.00     0.171 C 
HETATM   19  C   UNL     1      18.364  52.347  48.358  1.00  0.00     0.034 C 
ENDBRANCH  17  18
ENDBRANCH  12  17
ENDBRANCH   6   9
ENDBRANCH   1   5
BRANCH   2  20
HETATM   20  C   UNL     1      26.931  45.671  53.065  1.00  0.00     0.034 A 
HETATM   21  C   UNL     1      27.533  45.929  54.308  1.00  0.00     0.031 A 
HETATM   22  C   UNL     1      28.550  45.073  54.780  1.00  0.00    -0.000 A 
HETATM   23  C   UNL     1      28.922  43.973  54.003  1.00  0.00     0.043 A 
HETATM   24  C   UNL     1      29.363  45.052  55.947  1.00  0.00    -0.023 A 
HETATM   25  N   UNL     1      29.923  43.309  54.680  1.00  0.00    -0.358 N 
HETATM   26  C   UNL     1      28.323  43.683  52.773  1.00  0.00     0.031 A 
HETATM   27  H   UNL     1      30.380  42.470  54.351  1.00  0.00     0.166 HD
HETATM   28  C   UNL     1      30.201  43.961  55.847  1.00  0.00     0.017 A 
HETATM   29  C   UNL     1      31.220  43.541  56.845  1.00  0.00     0.057 C 
HETATM   30  C   UNL     1      31.503  44.704  57.815  1.00  0.00     0.006 C 
HETATM   31  C   UNL     1      30.210  45.403  58.276  1.00  0.00     0.005 C 
HETATM   32  C   UNL     1      29.416  46.000  57.099  1.00  0.00     0.041 C 
HETATM   33  C   UNL     1      27.324  44.552  52.319  1.00  0.00     0.019 A 
ENDBRANCH   2  20
TORSDOF 6
ENDMDL
MODEL 2
REMARK VINA RESULT:      -9.4      2.429     11.203
REMARK  6 active torsions:
REMARK  status: ('A' for Active; 'I' for Inactive)
REMARK    1  A    between atoms: C_2  and  O_3 
REMARK    2  A    between atoms: O_3  and  C_4 
REMARK    3  A    between atoms: C_5  and  O_6 
REMARK    4  A    between atoms: C_9  and  C_10 
REMARK       I    between atoms: C_10  and  N_11 
REMARK    5  A    between atoms: N_11  and  N_12 
REMARK       I    between atoms: N_12  and  C_13 
REMARK    6  A    between atoms: C_13  and  C_14 
ROOT
HETATM    1  N   UNL     1      24.329  46.489  50.871  1.00  0.00    -0.263 N 
HETATM    2  C   UNL     1      24.383  47.561  50.005  1.00  0.00     0.270 C 
HETATM    3  O   UNL     1      25.389  48.263  49.902  1.00  0.00    -0.266 OA
HETATM    4  H   UNL     1      23.557  45.831  50.952  1.00  0.00     0.190 HD
ENDROOT
BRANCH   1   5
HETATM    5  N   UNL     1      25.467  46.185  51.624  1.00  0.00    -0.263 N 
HETATM    6  C   UNL     1      25.486  44.985  52.303  1.00  0.00     0.270 C 
HETATM    7  O   UNL     1      24.575  44.163  52.224  1.00  0.00    -0.266 OA
HETATM    8  H   UNL     1      26.093  46.965  51.815  1.00  0.00     0.190 HD
BRANCH   6   9
HETATM    9  C   UNL     1      26.669  44.726  53.167  1.00  0.00     0.036 A 
HETATM   10  C   UNL     1      27.301  43.480  53.068  1.00  0.00     0.056 A 
HETATM   11  C   UNL     1      28.432  43.196  53.841  1.00  0.00     0.102 A 
HETATM   12  C   UNL     1      28.948  44.180  54.710  1.00  0.00     0.102 A 
HETATM   13  C   UNL     1      28.315  45.425  54.799  1.00  0.00     0.040 A 
HETATM   14  C   UNL     1      27.180  45.700  54.030  1.00  0.00     0.020 A 
BRANCH  11  15
HETATM   15  O   UNL     1      29.109  42.002  53.813  1.00  0.00    -0.353 OA
HETATM   16  C   UNL     1      28.721  41.046  52.836  1.00  0.00     0.210 C 
ENDBRANCH  11  15
BRANCH  12  17
HETATM   17  O   UNL     1      30.066  43.828  55.423  1.00  0.00    -0.349 OA
BRANCH  17  18
HETATM   18  C   UNL     1      30.613  44.787  56.324  1.00  0.00     0.171 C 
HETATM   19  C   UNL     1      31.336  44.034  57.426  1.00  0.00     0.034 C 
ENDBRANCH  17  18
ENDBRANCH  12  17
ENDBRANCH   6   9
ENDBRANCH   1   5
BRANCH   2  20
HETATM   20  C   UNL     1      23.173  47.825  49.171  1.00  0.00     0.034 A 
HETATM   21  C   UNL     1      22.452  49.029  49.247  1.00  0.00     0.031 A 
HETATM   22  C   UNL     1      21.301  49.203  48.451  1.00  0.00    -0.000 A 
HETATM   23  C   UNL     1      20.915  48.175  47.587  1.00  0.00     0.043 A 
HETATM   24  C   UNL     1      20.353  50.253  48.300  1.00  0.00    -0.023 A 
HETATM   25  N   UNL     1      19.773  48.592  46.935  1.00  0.00    -0.358 N 
HETATM   26  C   UNL     1      21.627  46.977  47.477  1.00  0.00     0.031 A 
HETATM   27  H   UNL     1      19.275  48.047  46.245  1.00  0.00     0.166 HD
HETATM   28  C   UNL     1      19.424  49.839  47.369  1.00  0.00     0.017 A 
HETATM   29  C   UNL     1      18.251  50.618  46.890  1.00  0.00     0.057 C 
HETATM   30  C   UNL     1      17.974  51.782  47.860  1.00  0.00     0.006 C 
HETATM   31  C   UNL     1      19.267  52.508  48.279  1.00  0.00     0.005 C 
HETATM   32  C   UNL     1      20.258  51.570  48.995  1.00  0.00     0.041 C 
HETATM   33  C   UNL     1      22.760  46.821  48.285  1.00  0.00     0.019 A 
ENDBRANCH   2  20
TORSDOF 6
ENDMDL
MODEL 3
REMARK VINA RESULT:      -9.2      1.694      2.495
REMARK  6 active torsions:
REMARK  status: ('A' for Active; 'I' for Inactive)
REMARK    1  A    between atoms: C_2  and  O_3 
REMARK    2  A    between atoms: O_3  and  C_4 
REMARK    3  A    between atoms: C_5  and  O_6 
REMARK    4  A    between atoms: C_9  and  C_10 
REMARK       I    between atoms: C_10  and  N_11 
REMARK    5  A    between atoms: N_11  and  N_12 
REMARK       I    between atoms: N_12  and  C_13 
REMARK    6  A    between atoms: C_13  and  C_14 
ROOT
HETATM    1  N   UNL     1      26.031  45.352  51.808  1.00  0.00    -0.263 N 
HETATM    2  C   UNL     1      26.773  44.202  51.630  1.00  0.00     0.270 C 
HETATM    3  O   UNL     1      26.557  43.428  50.698  1.00  0.00    -0.266 OA
HETATM    4  H   UNL     1      26.203  46.064  52.513  1.00  0.00     0.190 HD
ENDROOT
BRANCH   1   5
HETATM    5  N   UNL     1      25.032  45.648  50.877  1.00  0.00    -0.263 N 
HETATM    6  C   UNL     1      24.900  46.959  50.471  1.00  0.00     0.270 C 
HETATM    7  O   UNL     1      25.657  47.851  50.852  1.00  0.00    -0.266 OA
HETATM    8  H   UNL     1      24.320  44.931  50.748  1.00  0.00     0.190 HD
BRANCH   6   9
HETATM    9  C   UNL     1      23.773  47.262  49.550  1.00  0.00     0.036 A 
HETATM   10  C   UNL     1      23.369  48.597  49.414  1.00  0.00     0.056 A 
HETATM   11  C   UNL     1      22.330  48.938  48.542  1.00  0.00     0.102 A 
HETATM   12  C   UNL     1      21.700  47.931  47.781  1.00  0.00     0.102 A 
HETATM   13  C   UNL     1      22.111  46.601  47.918  1.00  0.00     0.040 A 
HETATM   14  C   UNL     1      23.145  46.266  48.797  1.00  0.00     0.020 A 
BRANCH  11  15
HETATM   15  O   UNL     1      21.867  50.217  48.352  1.00  0.00    -0.353 OA
HETATM   16  C   UNL     1      21.112  50.808  49.400  1.00  0.00     0.210 C 
ENDBRANCH  11  15
BRANCH  12  17
HETATM   17  O   UNL     1      20.699  48.350  46.941  1.00  0.00    -0.349 OA
BRANCH  17  18
HETATM   18  C   UNL     1      19.381  47.863  47.180  1.00  0.00     0.171 C 
HETATM   19  C   UNL     1      18.915  47.141  45.928  1.00  0.00     0.034 C 
ENDBRANCH  17  18
ENDBRANCH  12  17
ENDBRANCH   6   9
ENDBRANCH   1   5
BRANCH   2  20
HETATM   20  C   UNL     1      27.873  43.942  52.607  1.00  0.00     0.034 A 
HETATM   21  C   UNL     1      27.977  44.633  53.826  1.00  0.00     0.031 A 
HETATM   22  C   UNL     1      29.057  44.360  54.691  1.00  0.00    -0.000 A 
HETATM   23  C   UNL     1      29.991  43.390  54.319  1.00  0.00     0.043 A 
HETATM   24  C   UNL     1      29.468  44.874  55.951  1.00  0.00    -0.023 A 
HETATM   25  N   UNL     1      30.934  43.319  55.324  1.00  0.00    -0.358 N 
HETATM   26  C   UNL     1      29.898  42.674  53.122  1.00  0.00     0.031 A 
HETATM   27  H   UNL     1      31.728  42.694  55.323  1.00  0.00     0.166 HD
HETATM   28  C   UNL     1      30.629  44.218  56.305  1.00  0.00     0.017 A 
HETATM   29  C   UNL     1      31.413  44.428  57.552  1.00  0.00     0.057 C 
HETATM   30  C   UNL     1      30.989  45.754  58.211  1.00  0.00     0.006 C 
HETATM   31  C   UNL     1      29.458  45.935  58.219  1.00  0.00     0.005 C 
HETATM   32  C   UNL     1      28.864  45.945  56.797  1.00  0.00     0.041 C 
HETATM   33  C   UNL     1      28.824  42.969  52.274  1.00  0.00     0.019 A 
ENDBRANCH   2  20
TORSDOF 6
ENDMDL
MODEL 4
REMARK VINA RESULT:      -9.1      1.544      1.710
REMARK  6 active torsions:
REMARK  status: ('A' for Active; 'I' for Inactive)
REMARK    1  A    between atoms: C_2  and  O_3 
REMARK    2  A    between atoms: O_3  and  C_4 
REMARK    3  A    between atoms: C_5  and  O_6 
REMARK    4  A    between atoms: C_9  and  C_10 
REMARK       I    between atoms: C_10  and  N_11 
REMARK    5  A    between atoms: N_11  and  N_12 
REMARK       I    between atoms: N_12  and  C_13 
REMARK    6  A    between atoms: C_13  and  C_14 
ROOT
HETATM    1  N   UNL     1      24.890  46.476  50.842  1.00  0.00    -0.263 N 
HETATM    2  C   UNL     1      24.757  45.206  51.363  1.00  0.00     0.270 C 
HETATM    3  O   UNL     1      23.700  44.581  51.289  1.00  0.00    -0.266 OA
HETATM    4  H   UNL     1      25.752  47.015  50.808  1.00  0.00     0.190 HD
ENDROOT
BRANCH   1   5
HETATM    5  N   UNL     1      23.794  47.044  50.188  1.00  0.00    -0.263 N 
HETATM    6  C   UNL     1      23.978  48.256  49.556  1.00  0.00     0.270 C 
HETATM    7  O   UNL     1      25.072  48.816  49.503  1.00  0.00    -0.266 OA
HETATM    8  H   UNL     1      22.884  46.651  50.425  1.00  0.00     0.190 HD
BRANCH   6   9
HETATM    9  C   UNL     1      22.775  48.880  48.945  1.00  0.00     0.036 A 
HETATM   10  C   UNL     1      21.535  48.259  49.142  1.00  0.00     0.056 A 
HETATM   11  C   UNL     1      20.369  48.819  48.609  1.00  0.00     0.102 A 
HETATM   12  C   UNL     1      20.444  50.029  47.887  1.00  0.00     0.102 A 
HETATM   13  C   UNL     1      21.685  50.647  47.699  1.00  0.00     0.040 A 
HETATM   14  C   UNL     1      22.847  50.077  48.227  1.00  0.00     0.020 A 
BRANCH  11  15
HETATM   15  O   UNL     1      19.115  48.276  48.747  1.00  0.00    -0.353 OA
HETATM   16  C   UNL     1      18.530  48.288  50.042  1.00  0.00     0.210 C 
ENDBRANCH  11  15
BRANCH  12  17
HETATM   17  O   UNL     1      19.255  50.519  47.409  1.00  0.00    -0.349 OA
BRANCH  17  18
HETATM   18  C   UNL     1      19.092  50.612  45.996  1.00  0.00     0.171 C 
HETATM   19  C   UNL     1      18.298  49.403  45.536  1.00  0.00     0.034 C 
ENDBRANCH  17  18
ENDBRANCH  12  17
ENDBRANCH   6   9
ENDBRANCH   1   5
BRANCH   2  20
HETATM   20  C   UNL     1      25.964  44.602  52.003  1.00  0.00     0.034 A 
HETATM   21  C   UNL     1      26.579  45.166  53.134  1.00  0.00     0.031 A 
HETATM   22  C   UNL     1      27.733  44.560  53.673  1.00  0.00    -0.000 A 
HETATM   23  C   UNL     1      28.228  43.398  53.076  1.00  0.00     0.043 A 
HETATM   24  C   UNL     1      28.594  44.869  54.762  1.00  0.00    -0.023 A 
HETATM   25  N   UNL     1      29.349  43.016  53.784  1.00  0.00    -0.358 N 
HETATM   26  C   UNL     1      27.622  42.806  51.964  1.00  0.00     0.031 A 
HETATM   27  H   UNL     1      29.910  42.201  53.575  1.00  0.00     0.166 HD
HETATM   28  C   UNL     1      29.580  43.905  54.794  1.00  0.00     0.017 A 
HETATM   29  C   UNL     1      30.697  43.821  55.773  1.00  0.00     0.057 C 
HETATM   30  C   UNL     1      30.849  45.170  56.500  1.00  0.00     0.006 C 
HETATM   31  C   UNL     1      29.489  45.757  56.925  1.00  0.00     0.005 C 
HETATM   32  C   UNL     1      28.560  46.011  55.722  1.00  0.00     0.041 C 
HETATM   33  C   UNL     1      26.484  43.430  51.439  1.00  0.00     0.019 A 
ENDBRANCH   2  20
TORSDOF 6
ENDMDL
MODEL 5
REMARK VINA RESULT:      -9.1      2.311      3.374
REMARK  6 active torsions:
REMARK  status: ('A' for Active; 'I' for Inactive)
REMARK    1  A    between atoms: C_2  and  O_3 
REMARK    2  A    between atoms: O_3  and  C_4 
REMARK    3  A    between atoms: C_5  and  O_6 
REMARK    4  A    between atoms: C_9  and  C_10 
REMARK       I    between atoms: C_10  and  N_11 
REMARK    5  A    between atoms: N_11  and  N_12 
REMARK       I    between atoms: N_12  and  C_13 
REMARK    6  A    between atoms: C_13  and  C_14 
ROOT
HETATM    1  N   UNL     1      24.945  46.774  51.108  1.00  0.00    -0.263 N 
HETATM    2  C   UNL     1      25.025  45.817  52.100  1.00  0.00     0.270 C 
HETATM    3  O   UNL     1      24.318  44.811  52.089  1.00  0.00    -0.266 OA
HETATM    4  H   UNL     1      25.547  47.589  51.022  1.00  0.00     0.190 HD
ENDROOT
BRANCH   1   5
HETATM    5  N   UNL     1      24.051  46.565  50.054  1.00  0.00    -0.263 N 
HETATM    6  C   UNL     1      23.433  47.669  49.507  1.00  0.00     0.270 C 
HETATM    7  O   UNL     1      23.681  48.817  49.872  1.00  0.00    -0.266 OA
HETATM    8  H   UNL     1      23.735  45.605  49.925  1.00  0.00     0.190 HD
BRANCH   6   9
HETATM    9  C   UNL     1      22.421  47.411  48.448  1.00  0.00     0.036 A 
HETATM   10  C   UNL     1      21.473  48.407  48.183  1.00  0.00     0.056 A 
HETATM   11  C   UNL     1      20.514  48.224  47.180  1.00  0.00     0.102 A 
HETATM   12  C   UNL     1      20.519  47.035  46.420  1.00  0.00     0.102 A 
HETATM   13  C   UNL     1      21.472  46.047  46.688  1.00  0.00     0.040 A 
HETATM   14  C   UNL     1      22.422  46.233  47.696  1.00  0.00     0.020 A 
BRANCH  11  15
HETATM   15  O   UNL     1      19.545  49.142  46.857  1.00  0.00    -0.353 OA
HETATM   16  C   UNL     1      19.426  50.293  47.682  1.00  0.00     0.210 C 
ENDBRANCH  11  15
BRANCH  12  17
HETATM   17  O   UNL     1      19.555  46.938  45.449  1.00  0.00    -0.349 OA
BRANCH  17  18
HETATM   18  C   UNL     1      19.364  45.673  44.823  1.00  0.00     0.171 C 
HETATM   19  C   UNL     1      17.959  45.197  45.147  1.00  0.00     0.034 C 
ENDBRANCH  17  18
ENDBRANCH  12  17
ENDBRANCH   6   9
ENDBRANCH   1   5
BRANCH   2  20
HETATM   20  C   UNL     1      26.032  46.039  53.181  1.00  0.00     0.034 A 
HETATM   21  C   UNL     1      27.066  45.126  53.446  1.00  0.00     0.031 A 
HETATM   22  C   UNL     1      27.967  45.383  54.500  1.00  0.00    -0.000 A 
HETATM   23  C   UNL     1      27.818  46.554  55.247  1.00  0.00     0.043 A 
HETATM   24  C   UNL     1      29.081  44.683  55.041  1.00  0.00    -0.023 A 
HETATM   25  N   UNL     1      28.811  46.562  56.205  1.00  0.00    -0.358 N 
HETATM   26  C   UNL     1      26.810  47.488  54.989  1.00  0.00     0.031 A 
HETATM   27  H   UNL     1      28.946  47.297  56.885  1.00  0.00     0.166 HD
HETATM   28  C   UNL     1      29.568  45.431  56.092  1.00  0.00     0.017 A 
HETATM   29  C   UNL     1      30.735  45.090  56.949  1.00  0.00     0.057 C 
HETATM   30  C   UNL     1      31.084  43.600  56.775  1.00  0.00     0.006 C 
HETATM   31  C   UNL     1      31.056  43.165  55.297  1.00  0.00     0.005 C 
HETATM   32  C   UNL     1      29.669  43.366  54.655  1.00  0.00     0.041 C 
HETATM   33  C   UNL     1      25.921  47.208  53.945  1.00  0.00     0.019 A 
ENDBRANCH   2  20
TORSDOF 6
ENDMDL
MODEL 6
REMARK VINA RESULT:      -8.7      2.374      3.458
REMARK  6 active torsions:
REMARK  status: ('A' for Active; 'I' for Inactive)
REMARK    1  A    between atoms: C_2  and  O_3 
REMARK    2  A    between atoms: O_3  and  C_4 
REMARK    3  A    between atoms: C_5  and  O_6 
REMARK    4  A    between atoms: C_9  and  C_10 
REMARK       I    between atoms: C_10  and  N_11 
REMARK    5  A    between atoms: N_11  and  N_12 
REMARK       I    between atoms: N_12  and  C_13 
REMARK    6  A    between atoms: C_13  and  C_14 
ROOT
HETATM    1  N   UNL     1      23.692  46.124  49.703  1.00  0.00    -0.263 N 
HETATM    2  C   UNL     1      23.452  44.766  49.755  1.00  0.00     0.270 C 
HETATM    3  O   UNL     1      22.348  44.293  49.492  1.00  0.00    -0.266 OA
HETATM    4  H   UNL     1      24.596  46.571  49.840  1.00  0.00     0.190 HD
ENDROOT
BRANCH   1   5
HETATM    5  N   UNL     1      22.651  46.969  49.311  1.00  0.00    -0.263 N 
HETATM    6  C   UNL     1      22.865  48.329  49.381  1.00  0.00     0.270 C 
HETATM    7  O   UNL     1      23.943  48.814  49.719  1.00  0.00    -0.266 OA
HETATM    8  H   UNL     1      21.733  46.534  49.233  1.00  0.00     0.190 HD
BRANCH   6   9
HETATM    9  C   UNL     1      21.711  49.204  49.044  1.00  0.00     0.036 A 
HETATM   10  C   UNL     1      20.423  48.659  49.117  1.00  0.00     0.056 A 
HETATM   11  C   UNL     1      19.302  49.447  48.834  1.00  0.00     0.102 A 
HETATM   12  C   UNL     1      19.473  50.805  48.492  1.00  0.00     0.102 A 
HETATM   13  C   UNL     1      20.763  51.344  48.425  1.00  0.00     0.040 A 
HETATM   14  C   UNL     1      21.879  50.549  48.702  1.00  0.00     0.020 A 
BRANCH  11  15
HETATM   15  O   UNL     1      18.006  48.994  48.875  1.00  0.00    -0.353 OA
HETATM   16  C   UNL     1      17.791  47.596  48.742  1.00  0.00     0.210 C 
ENDBRANCH  11  15
BRANCH  12  17
HETATM   17  O   UNL     1      18.324  51.512  48.240  1.00  0.00    -0.349 OA
BRANCH  17  18
HETATM   18  C   UNL     1      18.032  52.628  49.075  1.00  0.00     0.171 C 
HETATM   19  C   UNL     1      16.800  52.289  49.896  1.00  0.00     0.034 C 
ENDBRANCH  17  18
ENDBRANCH  12  17
ENDBRANCH   6   9
ENDBRANCH   1   5
BRANCH   2  20
HETATM   20  C   UNL     1      24.601  43.884  50.119  1.00  0.00     0.034 A 
HETATM   21  C   UNL     1      25.484  44.191  51.168  1.00  0.00     0.031 A 
HETATM   22  C   UNL     1      26.566  43.329  51.443  1.00  0.00    -0.000 A 
HETATM   23  C   UNL     1      26.722  42.175  50.671  1.00  0.00     0.043 A 
HETATM   24  C   UNL     1      27.630  43.347  52.386  1.00  0.00    -0.023 A 
HETATM   25  N   UNL     1      27.841  41.516  51.136  1.00  0.00    -0.358 N 
HETATM   26  C   UNL     1      25.845  41.836  49.636  1.00  0.00     0.031 A 
HETATM   27  H   UNL     1      28.191  40.644  50.763  1.00  0.00     0.166 HD
HETATM   28  C   UNL     1      28.399  42.224  52.162  1.00  0.00     0.017 A 
HETATM   29  C   UNL     1      29.616  41.827  52.919  1.00  0.00     0.057 C 
HETATM   30  C   UNL     1      30.143  43.032  53.720  1.00  0.00     0.006 C 
HETATM   31  C   UNL     1      29.009  43.801  54.426  1.00  0.00     0.005 C 
HETATM   32  C   UNL     1      27.972  44.357  53.431  1.00  0.00     0.041 C 
HETATM   33  C   UNL     1      24.784  42.712  49.375  1.00  0.00     0.019 A 
ENDBRANCH   2  20
TORSDOF 6
ENDMDL
MODEL 7
REMARK VINA RESULT:      -8.7      3.386      4.464
REMARK  6 active torsions:
REMARK  status: ('A' for Active; 'I' for Inactive)
REMARK    1  A    between atoms: C_2  and  O_3 
REMARK    2  A    between atoms: O_3  and  C_4 
REMARK    3  A    between atoms: C_5  and  O_6 
REMARK    4  A    between atoms: C_9  and  C_10 
REMARK       I    between atoms: C_10  and  N_11 
REMARK    5  A    between atoms: N_11  and  N_12 
REMARK       I    between atoms: N_12  and  C_13 
REMARK    6  A    between atoms: C_13  and  C_14 
ROOT
HETATM    1  N   UNL     1      24.724  45.109  51.869  1.00  0.00    -0.263 N 
HETATM    2  C   UNL     1      25.259  46.347  52.163  1.00  0.00     0.270 C 
HETATM    3  O   UNL     1      24.951  47.354  51.526  1.00  0.00    -0.266 OA
HETATM    4  H   UNL     1      24.882  44.256  52.399  1.00  0.00     0.190 HD
ENDROOT
BRANCH   1   5
HETATM    5  N   UNL     1      23.787  45.018  50.837  1.00  0.00    -0.263 N 
HETATM    6  C   UNL     1      24.096  44.222  49.755  1.00  0.00     0.270 C 
HETATM    7  O   UNL     1      25.129  43.556  49.696  1.00  0.00    -0.266 OA
HETATM    8  H   UNL     1      23.055  45.727  50.839  1.00  0.00     0.190 HD
BRANCH   6   9
HETATM    9  C   UNL     1      23.122  44.213  48.632  1.00  0.00     0.036 A 
HETATM   10  C   UNL     1      21.789  44.542  48.909  1.00  0.00     0.056 A 
HETATM   11  C   UNL     1      20.838  44.573  47.884  1.00  0.00     0.102 A 
HETATM   12  C   UNL     1      21.233  44.290  46.559  1.00  0.00     0.102 A 
HETATM   13  C   UNL     1      22.567  43.967  46.288  1.00  0.00     0.040 A 
HETATM   14  C   UNL     1      23.510  43.930  47.319  1.00  0.00     0.020 A 
BRANCH  11  15
HETATM   15  O   UNL     1      19.512  44.879  48.066  1.00  0.00    -0.353 OA
HETATM   16  C   UNL     1      19.189  46.203  48.467  1.00  0.00     0.210 C 
ENDBRANCH  11  15
BRANCH  12  17
HETATM   17  O   UNL     1      20.244  44.353  45.610  1.00  0.00    -0.349 OA
BRANCH  17  18
HETATM   18  C   UNL     1      19.890  43.150  44.934  1.00  0.00     0.171 C 
HETATM   19  C   UNL     1      18.457  43.288  44.452  1.00  0.00     0.034 C 
ENDBRANCH  17  18
ENDBRANCH  12  17
ENDBRANCH   6   9
ENDBRANCH   1   5
BRANCH   2  20
HETATM   20  C   UNL     1      26.212  46.423  53.310  1.00  0.00     0.034 A 
HETATM   21  C   UNL     1      27.214  45.460  53.523  1.00  0.00     0.031 A 
HETATM   22  C   UNL     1      28.064  45.577  54.642  1.00  0.00    -0.000 A 
HETATM   23  C   UNL     1      27.901  46.663  55.505  1.00  0.00     0.043 A 
HETATM   24  C   UNL     1      29.134  44.793  55.156  1.00  0.00    -0.023 A 
HETATM   25  N   UNL     1      28.843  46.541  56.505  1.00  0.00    -0.358 N 
HETATM   26  C   UNL     1      26.926  47.645  55.303  1.00  0.00     0.031 A 
HETATM   27  H   UNL     1      28.958  47.193  57.268  1.00  0.00     0.166 HD
HETATM   28  C   UNL     1      29.582  45.410  56.305  1.00  0.00     0.017 A 
HETATM   29  C   UNL     1      30.696  44.946  57.175  1.00  0.00     0.057 C 
HETATM   30  C   UNL     1      31.023  43.476  56.855  1.00  0.00     0.006 C 
HETATM   31  C   UNL     1      31.062  43.206  55.338  1.00  0.00     0.005 C 
HETATM   32  C   UNL     1      29.715  43.512  54.656  1.00  0.00     0.041 C 
HETATM   33  C   UNL     1      26.086  47.504  54.192  1.00  0.00     0.019 A 
ENDBRANCH   2  20
TORSDOF 6
ENDMDL
MODEL 8
REMARK VINA RESULT:      -8.6      3.182      4.230
REMARK  6 active torsions:
REMARK  status: ('A' for Active; 'I' for Inactive)
REMARK    1  A    between atoms: C_2  and  O_3 
REMARK    2  A    between atoms: O_3  and  C_4 
REMARK    3  A    between atoms: C_5  and  O_6 
REMARK    4  A    between atoms: C_9  and  C_10 
REMARK       I    between atoms: C_10  and  N_11 
REMARK    5  A    between atoms: N_11  and  N_12 
REMARK       I    between atoms: N_12  and  C_13 
REMARK    6  A    between atoms: C_13  and  C_14 
ROOT
HETATM    1  N   UNL     1      25.831  43.920  51.327  1.00  0.00    -0.263 N 
HETATM    2  C   UNL     1      27.168  44.159  51.089  1.00  0.00     0.270 C 
HETATM    3  O   UNL     1      27.568  44.587  50.007  1.00  0.00    -0.266 OA
HETATM    4  H   UNL     1      25.430  43.635  52.218  1.00  0.00     0.190 HD
ENDROOT
BRANCH   1   5
HETATM    5  N   UNL     1      24.914  44.205  50.312  1.00  0.00    -0.263 N 
HETATM    6  C   UNL     1      23.732  43.494  50.295  1.00  0.00     0.270 C 
HETATM    7  O   UNL     1      23.441  42.671  51.161  1.00  0.00    -0.266 OA
HETATM    8  H   UNL     1      25.277  44.737  49.523  1.00  0.00     0.190 HD
BRANCH   6   9
HETATM    9  C   UNL     1      22.815  43.753  49.154  1.00  0.00     0.036 A 
HETATM   10  C   UNL     1      22.061  44.933  49.165  1.00  0.00     0.056 A 
HETATM   11  C   UNL     1      21.202  45.236  48.103  1.00  0.00     0.102 A 
HETATM   12  C   UNL     1      21.111  44.353  47.007  1.00  0.00     0.102 A 
HETATM   13  C   UNL     1      21.870  43.178  47.000  1.00  0.00     0.040 A 
HETATM   14  C   UNL     1      22.721  42.877  48.068  1.00  0.00     0.020 A 
BRANCH  11  15
HETATM   15  O   UNL     1      20.423  46.365  48.034  1.00  0.00    -0.353 OA
HETATM   16  C   UNL     1      21.037  47.609  48.341  1.00  0.00     0.210 C 
ENDBRANCH  11  15
BRANCH  12  17
HETATM   17  O   UNL     1      20.255  44.727  46.002  1.00  0.00    -0.349 OA
BRANCH  17  18
HETATM   18  C   UNL     1      19.131  43.893  45.737  1.00  0.00     0.171 C 
HETATM   19  C   UNL     1      17.896  44.581  46.293  1.00  0.00     0.034 C 
ENDBRANCH  17  18
ENDBRANCH  12  17
ENDBRANCH   6   9
ENDBRANCH   1   5
BRANCH   2  20
HETATM   20  C   UNL     1      28.118  43.902  52.213  1.00  0.00     0.034 A 
HETATM   21  C   UNL     1      28.096  44.649  53.404  1.00  0.00     0.031 A 
HETATM   22  C   UNL     1      29.039  44.373  54.415  1.00  0.00    -0.000 A 
HETATM   23  C   UNL     1      29.965  43.346  54.214  1.00  0.00     0.043 A 
HETATM   24  C   UNL     1      29.308  44.932  55.695  1.00  0.00    -0.023 A 
HETATM   25  N   UNL     1      30.763  43.284  55.337  1.00  0.00    -0.358 N 
HETATM   26  C   UNL     1      29.993  42.575  53.048  1.00  0.00     0.031 A 
HETATM   27  H   UNL     1      31.519  42.627  55.469  1.00  0.00     0.166 HD
HETATM   28  C   UNL     1      30.379  44.245  56.228  1.00  0.00     0.017 A 
HETATM   29  C   UNL     1      31.003  44.484  57.557  1.00  0.00     0.057 C 
HETATM   30  C   UNL     1      30.563  45.859  58.095  1.00  0.00     0.006 C 
HETATM   31  C   UNL     1      29.056  46.107  57.891  1.00  0.00     0.005 C 
HETATM   32  C   UNL     1      28.653  46.070  56.405  1.00  0.00     0.041 C 
HETATM   33  C   UNL     1      29.054  42.873  52.053  1.00  0.00     0.019 A 
ENDBRANCH   2  20
TORSDOF 6
ENDMDL
MODEL 9
REMARK VINA RESULT:      -8.6      6.145      9.014
REMARK  6 active torsions:
REMARK  status: ('A' for Active; 'I' for Inactive)
REMARK    1  A    between atoms: C_2  and  O_3 
REMARK    2  A    between atoms: O_3  and  C_4 
REMARK    3  A    between atoms: C_5  and  O_6 
REMARK    4  A    between atoms: C_9  and  C_10 
REMARK       I    between atoms: C_10  and  N_11 
REMARK    5  A    between atoms: N_11  and  N_12 
REMARK       I    between atoms: N_12  and  C_13 
REMARK    6  A    between atoms: C_13  and  C_14 
ROOT
HETATM    1  N   UNL     1      27.148  41.127  52.151  1.00  0.00    -0.263 N 
HETATM    2  C   UNL     1      26.801  42.448  51.952  1.00  0.00     0.270 C 
HETATM    3  O   UNL     1      26.081  42.796  51.017  1.00  0.00    -0.266 OA
HETATM    4  H   UNL     1      27.679  40.767  52.940  1.00  0.00     0.190 HD
ENDROOT
BRANCH   1   5
HETATM    5  N   UNL     1      26.634  40.167  51.276  1.00  0.00    -0.263 N 
HETATM    6  C   UNL     1      27.433  39.760  50.227  1.00  0.00     0.270 C 
HETATM    7  O   UNL     1      28.583  40.167  50.073  1.00  0.00    -0.266 OA
HETATM    8  H   UNL     1      25.629  40.014  51.326  1.00  0.00     0.190 HD
BRANCH   6   9
HETATM    9  C   UNL     1      26.829  38.805  49.261  1.00  0.00     0.036 A 
HETATM   10  C   UNL     1      26.208  39.324  48.118  1.00  0.00     0.056 A 
HETATM   11  C   UNL     1      25.646  38.467  47.164  1.00  0.00     0.102 A 
HETATM   12  C   UNL     1      25.725  37.071  47.350  1.00  0.00     0.102 A 
HETATM   13  C   UNL     1      26.351  36.559  48.492  1.00  0.00     0.040 A 
HETATM   14  C   UNL     1      26.903  37.421  49.444  1.00  0.00     0.020 A 
BRANCH  11  15
HETATM   15  O   UNL     1      25.015  38.889  46.020  1.00  0.00    -0.353 OA
HETATM   16  C   UNL     1      25.597  39.970  45.305  1.00  0.00     0.210 C 
ENDBRANCH  11  15
BRANCH  12  17
HETATM   17  O   UNL     1      25.161  36.300  46.365  1.00  0.00    -0.349 OA
BRANCH  17  18
HETATM   18  C   UNL     1      24.113  35.409  46.734  1.00  0.00     0.171 C 
HETATM   19  C   UNL     1      24.575  33.994  46.437  1.00  0.00     0.034 C 
ENDBRANCH  17  18
ENDBRANCH  12  17
ENDBRANCH   6   9
ENDBRANCH   1   5
BRANCH   2  20
HETATM   20  C   UNL     1      27.316  43.444  52.939  1.00  0.00     0.034 A 
HETATM   21  C   UNL     1      28.380  43.159  53.812  1.00  0.00     0.031 A 
HETATM   22  C   UNL     1      28.800  44.136  54.739  1.00  0.00    -0.000 A 
HETATM   23  C   UNL     1      28.155  45.375  54.754  1.00  0.00     0.043 A 
HETATM   24  C   UNL     1      29.798  44.173  55.752  1.00  0.00    -0.023 A 
HETATM   25  N   UNL     1      28.746  46.136  55.741  1.00  0.00    -0.358 N 
HETATM   26  C   UNL     1      27.108  45.689  53.882  1.00  0.00     0.031 A 
HETATM   27  H   UNL     1      28.481  47.083  55.972  1.00  0.00     0.166 HD
HETATM   28  C   UNL     1      29.729  45.412  56.353  1.00  0.00     0.017 A 
HETATM   29  C   UNL     1      30.591  45.900  57.463  1.00  0.00     0.057 C 
HETATM   30  C   UNL     1      31.301  44.706  58.129  1.00  0.00     0.006 C 
HETATM   31  C   UNL     1      31.861  43.712  57.093  1.00  0.00     0.005 C 
HETATM   32  C   UNL     1      30.758  43.119  56.195  1.00  0.00     0.041 C 
HETATM   33  C   UNL     1      26.701  44.702  52.977  1.00  0.00     0.019 A 
ENDBRANCH   2  20
TORSDOF 6
ENDMDL
MODEL 10
REMARK VINA RESULT:      -8.2      6.910      9.899
REMARK  6 active torsions:
REMARK  status: ('A' for Active; 'I' for Inactive)
REMARK    1  A    between atoms: C_2  and  O_3 
REMARK    2  A    between atoms: O_3  and  C_4 
REMARK    3  A    between atoms: C_5  and  O_6 
REMARK    4  A    between atoms: C_9  and  C_10 
REMARK       I    between atoms: C_10  and  N_11 
REMARK    5  A    between atoms: N_11  and  N_12 
REMARK       I    between atoms: N_12  and  C_13 
REMARK    6  A    between atoms: C_13  and  C_14 
ROOT
HETATM    1  N   UNL     1      27.399  40.530  51.163  1.00  0.00    -0.263 N 
HETATM    2  C   UNL     1      27.448  41.855  50.779  1.00  0.00     0.270 C 
HETATM    3  O   UNL     1      27.324  42.194  49.603  1.00  0.00    -0.266 OA
HETATM    4  H   UNL     1      27.424  40.191  52.121  1.00  0.00     0.190 HD
ENDROOT
BRANCH   1   5
HETATM    5  N   UNL     1      27.171  39.562  50.181  1.00  0.00    -0.263 N 
HETATM    6  C   UNL     1      28.242  38.796  49.773  1.00  0.00     0.270 C 
HETATM    7  O   UNL     1      29.359  38.897  50.276  1.00  0.00    -0.266 OA
HETATM    8  H   UNL     1      26.297  39.651  49.666  1.00  0.00     0.190 HD
BRANCH   6   9
HETATM    9  C   UNL     1      27.992  37.836  48.665  1.00  0.00     0.036 A 
HETATM   10  C   UNL     1      26.813  37.080  48.698  1.00  0.00     0.056 A 
HETATM   11  C   UNL     1      26.518  36.180  47.668  1.00  0.00     0.102 A 
HETATM   12  C   UNL     1      27.407  36.052  46.580  1.00  0.00     0.102 A 
HETATM   13  C   UNL     1      28.580  36.814  46.551  1.00  0.00     0.040 A 
HETATM   14  C   UNL     1      28.873  37.705  47.588  1.00  0.00     0.020 A 
BRANCH  11  15
HETATM   15  O   UNL     1      25.392  35.396  47.622  1.00  0.00    -0.353 OA
HETATM   16  C   UNL     1      24.156  36.034  47.334  1.00  0.00     0.210 C 
ENDBRANCH  11  15
BRANCH  12  17
HETATM   17  O   UNL     1      27.040  35.158  45.605  1.00  0.00    -0.349 OA
BRANCH  17  18
HETATM   18  C   UNL     1      27.069  35.599  44.251  1.00  0.00     0.171 C 
HETATM   19  C   UNL     1      25.778  36.351  43.976  1.00  0.00     0.034 C 
ENDBRANCH  17  18
ENDBRANCH  12  17
ENDBRANCH   6   9
ENDBRANCH   1   5
BRANCH   2  20
HETATM   20  C   UNL     1      27.633  42.871  51.858  1.00  0.00     0.034 A 
HETATM   21  C   UNL     1      28.643  42.764  52.829  1.00  0.00     0.031 A 
HETATM   22  C   UNL     1      28.746  43.745  53.837  1.00  0.00    -0.000 A 
HETATM   23  C   UNL     1      27.846  44.813  53.834  1.00  0.00     0.043 A 
HETATM   24  C   UNL     1      29.607  43.928  54.954  1.00  0.00    -0.023 A 
HETATM   25  N   UNL     1      28.156  45.617  54.912  1.00  0.00    -0.358 N 
HETATM   26  C   UNL     1      26.846  44.953  52.867  1.00  0.00     0.031 A 
HETATM   27  H   UNL     1      27.668  46.468  55.153  1.00  0.00     0.166 HD
HETATM   28  C   UNL     1      29.210  45.082  55.596  1.00  0.00     0.017 A 
HETATM   29  C   UNL     1      29.831  45.669  56.813  1.00  0.00     0.057 C 
HETATM   30  C   UNL     1      30.717  44.613  57.501  1.00  0.00     0.006 C 
HETATM   31  C   UNL     1      31.581  43.833  56.491  1.00  0.00     0.005 C 
HETATM   32  C   UNL     1      30.728  43.078  55.454  1.00  0.00     0.041 C 
HETATM   33  C   UNL     1      26.756  43.963  51.882  1.00  0.00     0.019 A 
ENDBRANCH   2  20
TORSDOF 6
ENDMDL
