MODEL 1
REMARK VINA RESULT:      -9.8      0.000      0.000
REMARK  4 active torsions:
REMARK  status: ('A' for Active; 'I' for Inactive)
REMARK    1  A    between atoms: C_5  and  C_6 
REMARK    2  A    between atoms: C_6  and  N_7 
REMARK    3  A    between atoms: C_17  and  C_18 
REMARK    4  A    between atoms: C_27  and  C_28 
ROOT
HETATM    1  N   UNL     1      25.100  45.332  50.016  1.00  0.00    -0.067 N 
HETATM    2  H   UNL     1      24.565  45.220  49.142  1.00  0.00     0.280 HD
HETATM    3  C   UNL     1      26.526  44.972  49.707  1.00  0.00     0.236 C 
HETATM    4  C   UNL     1      27.371  44.863  50.977  1.00  0.00     0.039 C 
HETATM    5  C   UNL     1      26.787  43.936  52.079  1.00  0.00    -0.013 C 
HETATM    6  C   UNL     1      26.920  42.427  51.730  1.00  0.00     0.244 C 
HETATM    7  N   UNL     1      28.352  41.952  51.767  1.00  0.00    -0.073 N 
HETATM    8  H   UNL     1      28.917  42.447  51.063  1.00  0.00     0.279 HD
HETATM    9  C   UNL     1      28.463  40.484  51.396  1.00  0.00     0.269 C 
HETATM   10  C   UNL     1      29.024  42.197  53.111  1.00  0.00     0.243 C 
HETATM   11  C   UNL     1      28.974  43.693  53.439  1.00  0.00     0.045 C 
HETATM   12  C   UNL     1      27.519  44.196  53.429  1.00  0.00     0.022 C 
HETATM   13  C   UNL     1      25.286  44.304  52.281  1.00  0.00     0.039 C 
HETATM   14  C   UNL     1      24.468  44.378  50.992  1.00  0.00     0.236 C 
ENDROOT
BRANCH  11  15
HETATM   15  C   UNL     1      29.676  43.985  54.748  1.00  0.00    -0.052 A 
HETATM   16  C   UNL     1      30.634  43.081  55.236  1.00  0.00     0.007 A 
HETATM   17  C   UNL     1      31.281  43.314  56.449  1.00  0.00     0.001 A 
HETATM   18  C   UNL     1      30.984  44.451  57.193  1.00  0.00     0.000 A 
HETATM   19  C   UNL     1      30.039  45.360  56.722  1.00  0.00     0.001 A 
HETATM   20  C   UNL     1      29.388  45.130  55.508  1.00  0.00     0.007 A 
ENDBRANCH  11  15
BRANCH   1  21
HETATM   21  C   UNL     1      24.855  46.802  50.372  1.00  0.00     0.277 C 
BRANCH  21  22
HETATM   22  C   UNL     1      23.902  47.556  49.515  1.00  0.00     0.011 A 
HETATM   23  C   UNL     1      22.574  47.191  49.178  1.00  0.00     0.149 A 
HETATM   24  N   UNL     1      21.990  48.040  48.345  1.00  0.00    -0.185 NA
HETATM   25  N   UNL     1      22.898  49.012  48.180  1.00  0.00    -0.278 N 
HETATM   26  C   UNL     1      22.574  50.148  47.344  1.00  0.00     0.179 C 
HETATM   27  C   UNL     1      24.057  48.791  48.893  1.00  0.00     0.043 A 
BRANCH  27  28
HETATM   28  C   UNL     1      25.202  49.804  48.939  1.00  0.00     0.038 A 
HETATM   29  C   UNL     1      26.630  49.308  48.856  1.00  0.00     0.011 A 
HETATM   30  C   UNL     1      26.062  50.114  47.738  1.00  0.00     0.011 A 
ENDBRANCH  27  28
ENDBRANCH  21  22
ENDBRANCH   1  21
TORSDOF 4
ENDMDL
MODEL 2
REMARK VINA RESULT:      -9.7      1.123      1.998
REMARK  4 active torsions:
REMARK  status: ('A' for Active; 'I' for Inactive)
REMARK    1  A    between atoms: C_5  and  C_6 
REMARK    2  A    between atoms: C_6  and  N_7 
REMARK    3  A    between atoms: C_17  and  C_18 
REMARK    4  A    between atoms: C_27  and  C_28 
ROOT
HETATM    1  N   UNL     1      25.155  45.140  50.588  1.00  0.00    -0.067 N 
HETATM    2  H   UNL     1      24.623  45.011  49.714  1.00  0.00     0.280 HD
HETATM    3  C   UNL     1      26.604  44.919  50.257  1.00  0.00     0.236 C 
HETATM    4  C   UNL     1      27.468  44.842  51.517  1.00  0.00     0.039 C 
HETATM    5  C   UNL     1      26.979  43.830  52.590  1.00  0.00    -0.013 C 
HETATM    6  C   UNL     1      27.241  42.351  52.188  1.00  0.00     0.244 C 
HETATM    7  N   UNL     1      28.710  42.004  52.198  1.00  0.00    -0.073 N 
HETATM    8  H   UNL     1      29.221  42.571  51.508  1.00  0.00     0.279 HD
HETATM    9  C   UNL     1      28.946  40.566  51.776  1.00  0.00     0.269 C 
HETATM   10  C   UNL     1      29.371  42.262  53.545  1.00  0.00     0.243 C 
HETATM   11  C   UNL     1      29.192  43.736  53.926  1.00  0.00     0.045 C 
HETATM   12  C   UNL     1      27.698  44.108  53.943  1.00  0.00     0.022 C 
HETATM   13  C   UNL     1      25.453  44.057  52.814  1.00  0.00     0.039 C 
HETATM   14  C   UNL     1      24.619  44.101  51.535  1.00  0.00     0.236 C 
ENDROOT
BRANCH  11  15
HETATM   15  C   UNL     1      29.878  44.045  55.239  1.00  0.00    -0.052 A 
HETATM   16  C   UNL     1      30.817  43.138  55.759  1.00  0.00     0.007 A 
HETATM   17  C   UNL     1      31.450  43.386  56.977  1.00  0.00     0.001 A 
HETATM   18  C   UNL     1      31.156  44.542  57.693  1.00  0.00     0.000 A 
HETATM   19  C   UNL     1      30.230  45.452  57.192  1.00  0.00     0.001 A 
HETATM   20  C   UNL     1      29.594  45.208  55.973  1.00  0.00     0.007 A 
ENDBRANCH  11  15
BRANCH   1  21
HETATM   21  C   UNL     1      24.785  46.570  50.996  1.00  0.00     0.277 C 
BRANCH  21  22
HETATM   22  C   UNL     1      25.126  47.657  50.041  1.00  0.00     0.011 A 
HETATM   23  C   UNL     1      26.421  48.101  49.669  1.00  0.00     0.149 A 
HETATM   24  N   UNL     1      26.404  49.132  48.836  1.00  0.00    -0.185 NA
HETATM   25  N   UNL     1      25.101  49.334  48.592  1.00  0.00    -0.278 N 
HETATM   26  C   UNL     1      24.709  50.381  47.674  1.00  0.00     0.179 C 
HETATM   27  C   UNL     1      24.286  48.449  49.263  1.00  0.00     0.043 A 
BRANCH  27  28
HETATM   28  C   UNL     1      22.768  48.419  49.072  1.00  0.00     0.038 A 
HETATM   29  C   UNL     1      22.201  48.065  47.714  1.00  0.00     0.011 A 
HETATM   30  C   UNL     1      22.000  47.138  48.864  1.00  0.00     0.011 A 
ENDBRANCH  27  28
ENDBRANCH  21  22
ENDBRANCH   1  21
TORSDOF 4
ENDMDL
MODEL 3
REMARK VINA RESULT:      -9.5      1.827      8.862
REMARK  4 active torsions:
REMARK  status: ('A' for Active; 'I' for Inactive)
REMARK    1  A    between atoms: C_5  and  C_6 
REMARK    2  A    between atoms: C_6  and  N_7 
REMARK    3  A    between atoms: C_17  and  C_18 
REMARK    4  A    between atoms: C_27  and  C_28 
ROOT
HETATM    1  N   UNL     1      27.051  43.936  53.450  1.00  0.00    -0.067 N 
HETATM    2  H   UNL     1      27.152  43.084  54.020  1.00  0.00     0.280 HD
HETATM    3  C   UNL     1      25.614  44.363  53.548  1.00  0.00     0.236 C 
HETATM    4  C   UNL     1      25.283  45.474  52.551  1.00  0.00     0.039 C 
HETATM    5  C   UNL     1      25.678  45.177  51.078  1.00  0.00    -0.013 C 
HETATM    6  C   UNL     1      24.740  44.139  50.400  1.00  0.00     0.244 C 
HETATM    7  N   UNL     1      23.354  44.688  50.159  1.00  0.00    -0.073 N 
HETATM    8  H   UNL     1      22.899  44.928  51.050  1.00  0.00     0.279 HD
HETATM    9  C   UNL     1      22.446  43.651  49.523  1.00  0.00     0.269 C 
HETATM   10  C   UNL     1      23.356  45.957  49.319  1.00  0.00     0.243 C 
HETATM   11  C   UNL     1      24.214  47.022  50.009  1.00  0.00     0.045 C 
HETATM   12  C   UNL     1      25.641  46.493  50.247  1.00  0.00     0.022 C 
HETATM   13  C   UNL     1      27.146  44.654  51.064  1.00  0.00     0.039 C 
HETATM   14  C   UNL     1      27.433  43.526  52.054  1.00  0.00     0.236 C 
ENDROOT
BRANCH  11  15
HETATM   15  C   UNL     1      24.204  48.319  49.228  1.00  0.00    -0.052 A 
HETATM   16  C   UNL     1      22.977  48.867  48.815  1.00  0.00     0.007 A 
HETATM   17  C   UNL     1      22.938  50.050  48.076  1.00  0.00     0.001 A 
HETATM   18  C   UNL     1      24.119  50.702  47.739  1.00  0.00     0.000 A 
HETATM   19  C   UNL     1      25.343  50.175  48.142  1.00  0.00     0.001 A 
HETATM   20  C   UNL     1      25.387  48.991  48.882  1.00  0.00     0.007 A 
ENDBRANCH  11  15
BRANCH   1  21
HETATM   21  C   UNL     1      28.065  44.890  54.091  1.00  0.00     0.277 C 
BRANCH  21  22
HETATM   22  C   UNL     1      29.244  44.276  54.757  1.00  0.00     0.011 A 
HETATM   23  C   UNL     1      29.937  43.100  54.369  1.00  0.00     0.149 A 
HETATM   24  N   UNL     1      30.917  42.769  55.196  1.00  0.00    -0.185 NA
HETATM   25  N   UNL     1      30.930  43.760  56.100  1.00  0.00    -0.278 N 
HETATM   26  C   UNL     1      31.921  43.742  57.154  1.00  0.00     0.179 C 
HETATM   27  C   UNL     1      29.967  44.717  55.862  1.00  0.00     0.043 A 
BRANCH  27  28
HETATM   28  C   UNL     1      29.846  45.990  56.700  1.00  0.00     0.038 A 
HETATM   29  C   UNL     1      28.591  46.221  57.515  1.00  0.00     0.011 A 
HETATM   30  C   UNL     1      29.888  45.977  58.208  1.00  0.00     0.011 A 
ENDBRANCH  27  28
ENDBRANCH  21  22
ENDBRANCH   1  21
TORSDOF 4
ENDMDL
MODEL 4
REMARK VINA RESULT:      -9.1      1.858      8.748
REMARK  4 active torsions:
REMARK  status: ('A' for Active; 'I' for Inactive)
REMARK    1  A    between atoms: C_5  and  C_6 
REMARK    2  A    between atoms: C_6  and  N_7 
REMARK    3  A    between atoms: C_17  and  C_18 
REMARK    4  A    between atoms: C_27  and  C_28 
ROOT
HETATM    1  N   UNL     1      26.656  43.865  51.948  1.00  0.00    -0.067 N 
HETATM    2  H   UNL     1      26.976  42.923  52.217  1.00  0.00     0.280 HD
HETATM    3  C   UNL     1      25.154  43.836  51.951  1.00  0.00     0.236 C 
HETATM    4  C   UNL     1      24.562  45.104  51.332  1.00  0.00     0.039 C 
HETATM    5  C   UNL     1      25.112  45.469  49.926  1.00  0.00    -0.013 C 
HETATM    6  C   UNL     1      24.569  44.537  48.805  1.00  0.00     0.244 C 
HETATM    7  N   UNL     1      23.098  44.753  48.540  1.00  0.00    -0.073 N 
HETATM    8  H   UNL     1      22.542  44.530  49.376  1.00  0.00     0.279 HD
HETATM    9  C   UNL     1      22.582  43.815  47.464  1.00  0.00     0.269 C 
HETATM   10  C   UNL     1      22.767  46.193  48.172  1.00  0.00     0.243 C 
HETATM   11  C   UNL     1      23.225  47.124  49.300  1.00  0.00     0.045 C 
HETATM   12  C   UNL     1      24.728  46.937  49.575  1.00  0.00     0.022 C 
HETATM   13  C   UNL     1      26.667  45.389  49.975  1.00  0.00     0.039 C 
HETATM   14  C   UNL     1      27.222  44.098  50.574  1.00  0.00     0.236 C 
ENDROOT
BRANCH  11  15
HETATM   15  C   UNL     1      22.870  48.563  48.994  1.00  0.00    -0.052 A 
HETATM   16  C   UNL     1      23.862  49.432  48.507  1.00  0.00     0.007 A 
HETATM   17  C   UNL     1      23.569  50.768  48.236  1.00  0.00     0.001 A 
HETATM   18  C   UNL     1      22.284  51.258  48.446  1.00  0.00     0.000 A 
HETATM   19  C   UNL     1      21.288  50.411  48.926  1.00  0.00     0.001 A 
HETATM   20  C   UNL     1      21.577  49.072  49.199  1.00  0.00     0.007 A 
ENDBRANCH  11  15
BRANCH   1  21
HETATM   21  C   UNL     1      27.299  44.754  53.018  1.00  0.00     0.277 C 
BRANCH  21  22
HETATM   22  C   UNL     1      28.421  44.169  53.800  1.00  0.00     0.011 A 
HETATM   23  C   UNL     1      29.030  42.902  53.615  1.00  0.00     0.149 A 
HETATM   24  N   UNL     1      29.972  42.635  54.508  1.00  0.00    -0.185 NA
HETATM   25  N   UNL     1      30.045  43.751  55.248  1.00  0.00    -0.278 N 
HETATM   26  C   UNL     1      31.018  43.828  56.316  1.00  0.00     0.179 C 
HETATM   27  C   UNL     1      29.159  44.725  54.841  1.00  0.00     0.043 A 
BRANCH  27  28
HETATM   28  C   UNL     1      29.119  46.118  55.470  1.00  0.00     0.038 A 
HETATM   29  C   UNL     1      27.794  46.841  55.582  1.00  0.00     0.011 A 
HETATM   30  C   UNL     1      28.493  46.385  56.817  1.00  0.00     0.011 A 
ENDBRANCH  27  28
ENDBRANCH  21  22
ENDBRANCH   1  21
TORSDOF 4
ENDMDL
MODEL 5
REMARK VINA RESULT:      -8.9      3.439      5.924
REMARK  4 active torsions:
REMARK  status: ('A' for Active; 'I' for Inactive)
REMARK    1  A    between atoms: C_5  and  C_6 
REMARK    2  A    between atoms: C_6  and  N_7 
REMARK    3  A    between atoms: C_17  and  C_18 
REMARK    4  A    between atoms: C_27  and  C_28 
ROOT
HETATM    1  N   UNL     1      25.011  43.851  51.500  1.00  0.00    -0.067 N 
HETATM    2  H   UNL     1      24.184  44.038  50.914  1.00  0.00     0.280 HD
HETATM    3  C   UNL     1      24.657  44.257  52.902  1.00  0.00     0.236 C 
HETATM    4  C   UNL     1      25.881  44.257  53.819  1.00  0.00     0.039 C 
HETATM    5  C   UNL     1      27.097  45.068  53.293  1.00  0.00    -0.013 C 
HETATM    6  C   UNL     1      26.886  46.606  53.393  1.00  0.00     0.244 C 
HETATM    7  N   UNL     1      26.885  47.094  54.822  1.00  0.00    -0.073 N 
HETATM    8  H   UNL     1      26.107  46.676  55.348  1.00  0.00     0.279 HD
HETATM    9  C   UNL     1      26.649  48.591  54.899  1.00  0.00     0.269 C 
HETATM   10  C   UNL     1      28.159  46.733  55.573  1.00  0.00     0.243 C 
HETATM   11  C   UNL     1      28.346  45.212  55.554  1.00  0.00     0.045 C 
HETATM   12  C   UNL     1      28.372  44.692  54.105  1.00  0.00     0.022 C 
HETATM   13  C   UNL     1      27.349  44.663  51.810  1.00  0.00     0.039 C 
HETATM   14  C   UNL     1      26.108  44.700  50.918  1.00  0.00     0.236 C 
ENDROOT
BRANCH  11  15
HETATM   15  C   UNL     1      29.579  44.806  56.334  1.00  0.00    -0.052 A 
HETATM   16  C   UNL     1      29.892  45.475  57.529  1.00  0.00     0.007 A 
HETATM   17  C   UNL     1      31.032  45.137  58.258  1.00  0.00     0.001 A 
HETATM   18  C   UNL     1      31.876  44.128  57.806  1.00  0.00     0.000 A 
HETATM   19  C   UNL     1      31.580  43.453  56.624  1.00  0.00     0.001 A 
HETATM   20  C   UNL     1      30.439  43.789  55.892  1.00  0.00     0.007 A 
ENDBRANCH  11  15
BRANCH   1  21
HETATM   21  C   UNL     1      25.240  42.351  51.288  1.00  0.00     0.277 C 
BRANCH  21  22
HETATM   22  C   UNL     1      26.154  41.955  50.184  1.00  0.00     0.011 A 
HETATM   23  C   UNL     1      26.029  42.271  48.807  1.00  0.00     0.149 A 
HETATM   24  N   UNL     1      26.973  41.726  48.054  1.00  0.00    -0.185 NA
HETATM   25  N   UNL     1      27.772  41.102  48.933  1.00  0.00    -0.278 N 
HETATM   26  C   UNL     1      28.952  40.416  48.451  1.00  0.00     0.179 C 
HETATM   27  C   UNL     1      27.347  41.239  50.236  1.00  0.00     0.043 A 
BRANCH  27  28
HETATM   28  C   UNL     1      28.143  40.696  51.424  1.00  0.00     0.038 A 
HETATM   29  C   UNL     1      29.121  41.607  52.135  1.00  0.00     0.011 A 
HETATM   30  C   UNL     1      27.893  41.145  52.843  1.00  0.00     0.011 A 
ENDBRANCH  27  28
ENDBRANCH  21  22
ENDBRANCH   1  21
TORSDOF 4
ENDMDL
MODEL 6
REMARK VINA RESULT:      -8.6      3.324      5.436
REMARK  4 active torsions:
REMARK  status: ('A' for Active; 'I' for Inactive)
REMARK    1  A    between atoms: C_5  and  C_6 
REMARK    2  A    between atoms: C_6  and  N_7 
REMARK    3  A    between atoms: C_17  and  C_18 
REMARK    4  A    between atoms: C_27  and  C_28 
ROOT
HETATM    1  N   UNL     1      24.949  44.199  51.325  1.00  0.00    -0.067 N 
HETATM    2  H   UNL     1      24.106  44.415  50.772  1.00  0.00     0.280 HD
HETATM    3  C   UNL     1      24.592  44.403  52.770  1.00  0.00     0.236 C 
HETATM    4  C   UNL     1      25.826  44.351  53.672  1.00  0.00     0.039 C 
HETATM    5  C   UNL     1      26.992  45.286  53.247  1.00  0.00    -0.013 C 
HETATM    6  C   UNL     1      26.702  46.784  53.546  1.00  0.00     0.244 C 
HETATM    7  N   UNL     1      26.693  47.085  55.025  1.00  0.00    -0.073 N 
HETATM    8  H   UNL     1      25.945  46.561  55.498  1.00  0.00     0.279 HD
HETATM    9  C   UNL     1      26.381  48.545  55.296  1.00  0.00     0.269 C 
HETATM   10  C   UNL     1      27.994  46.698  55.717  1.00  0.00     0.243 C 
HETATM   11  C   UNL     1      28.260  45.205  55.500  1.00  0.00     0.045 C 
HETATM   12  C   UNL     1      28.294  44.877  53.996  1.00  0.00     0.022 C 
HETATM   13  C   UNL     1      27.245  45.088  51.723  1.00  0.00     0.039 C 
HETATM   14  C   UNL     1      25.993  45.173  50.850  1.00  0.00     0.236 C 
ENDROOT
BRANCH  11  15
HETATM   15  C   UNL     1      29.522  44.769  56.214  1.00  0.00    -0.052 A 
HETATM   16  C   UNL     1      29.877  45.383  57.427  1.00  0.00     0.007 A 
HETATM   17  C   UNL     1      31.045  45.017  58.096  1.00  0.00     0.001 A 
HETATM   18  C   UNL     1      31.874  44.033  57.567  1.00  0.00     0.000 A 
HETATM   19  C   UNL     1      31.536  43.412  56.367  1.00  0.00     0.001 A 
HETATM   20  C   UNL     1      30.368  43.776  55.694  1.00  0.00     0.007 A 
ENDBRANCH  11  15
BRANCH   1  21
HETATM   21  C   UNL     1      25.253  42.753  50.920  1.00  0.00     0.277 C 
BRANCH  21  22
HETATM   22  C   UNL     1      24.432  42.170  49.825  1.00  0.00     0.011 A 
HETATM   23  C   UNL     1      23.107  42.521  49.462  1.00  0.00     0.149 A 
HETATM   24  N   UNL     1      22.618  41.782  48.477  1.00  0.00    -0.185 NA
HETATM   25  N   UNL     1      23.637  40.984  48.130  1.00  0.00    -0.278 N 
HETATM   26  C   UNL     1      23.465  40.052  47.037  1.00  0.00     0.179 C 
HETATM   27  C   UNL     1      24.770  41.200  48.885  1.00  0.00     0.043 A 
BRANCH  27  28
HETATM   28  C   UNL     1      26.091  40.478  48.615  1.00  0.00     0.038 A 
HETATM   29  C   UNL     1      27.071  41.075  47.628  1.00  0.00     0.011 A 
HETATM   30  C   UNL     1      27.422  41.019  49.076  1.00  0.00     0.011 A 
ENDBRANCH  27  28
ENDBRANCH  21  22
ENDBRANCH   1  21
TORSDOF 4
ENDMDL
MODEL 7
REMARK VINA RESULT:      -8.4      3.301      8.347
REMARK  4 active torsions:
REMARK  status: ('A' for Active; 'I' for Inactive)
REMARK    1  A    between atoms: C_5  and  C_6 
REMARK    2  A    between atoms: C_6  and  N_7 
REMARK    3  A    between atoms: C_17  and  C_18 
REMARK    4  A    between atoms: C_27  and  C_28 
ROOT
HETATM    1  N   UNL     1      26.535  44.156  51.261  1.00  0.00    -0.067 N 
HETATM    2  H   UNL     1      27.370  43.619  51.540  1.00  0.00     0.280 HD
HETATM    3  C   UNL     1      26.777  44.647  49.862  1.00  0.00     0.236 C 
HETATM    4  C   UNL     1      25.717  45.660  49.425  1.00  0.00     0.039 C 
HETATM    5  C   UNL     1      25.499  46.847  50.404  1.00  0.00    -0.013 C 
HETATM    6  C   UNL     1      26.660  47.880  50.367  1.00  0.00     0.244 C 
HETATM    7  N   UNL     1      26.699  48.655  49.072  1.00  0.00    -0.073 N 
HETATM    8  H   UNL     1      26.868  48.025  48.277  1.00  0.00     0.279 HD
HETATM    9  C   UNL     1      27.855  49.638  49.044  1.00  0.00     0.269 C 
HETATM   10  C   UNL     1      25.395  49.384  48.777  1.00  0.00     0.243 C 
HETATM   11  C   UNL     1      24.246  48.371  48.732  1.00  0.00     0.045 C 
HETATM   12  C   UNL     1      24.172  47.583  50.052  1.00  0.00     0.022 C 
HETATM   13  C   UNL     1      25.348  46.270  51.844  1.00  0.00     0.039 C 
HETATM   14  C   UNL     1      26.439  45.282  52.254  1.00  0.00     0.236 C 
ENDROOT
BRANCH  11  15
HETATM   15  C   UNL     1      22.936  49.051  48.393  1.00  0.00    -0.052 A 
HETATM   16  C   UNL     1      22.803  50.435  48.596  1.00  0.00     0.007 A 
HETATM   17  C   UNL     1      21.602  51.085  48.312  1.00  0.00     0.001 A 
HETATM   18  C   UNL     1      20.517  50.364  47.822  1.00  0.00     0.000 A 
HETATM   19  C   UNL     1      20.633  48.993  47.613  1.00  0.00     0.001 A 
HETATM   20  C   UNL     1      21.834  48.338  47.896  1.00  0.00     0.007 A 
ENDBRANCH  11  15
BRANCH   1  21
HETATM   21  C   UNL     1      25.410  43.127  51.412  1.00  0.00     0.277 C 
BRANCH  21  22
HETATM   22  C   UNL     1      25.218  42.164  50.296  1.00  0.00     0.011 A 
HETATM   23  C   UNL     1      26.083  41.106  49.914  1.00  0.00     0.149 A 
HETATM   24  N   UNL     1      25.670  40.452  48.838  1.00  0.00    -0.185 NA
HETATM   25  N   UNL     1      24.494  41.023  48.539  1.00  0.00    -0.278 N 
HETATM   26  C   UNL     1      23.730  40.521  47.418  1.00  0.00     0.179 C 
HETATM   27  C   UNL     1      24.153  42.037  49.408  1.00  0.00     0.043 A 
BRANCH  27  28
HETATM   28  C   UNL     1      22.816  42.775  49.330  1.00  0.00     0.038 A 
HETATM   29  C   UNL     1      22.732  44.204  49.822  1.00  0.00     0.011 A 
HETATM   30  C   UNL     1      22.571  43.912  48.368  1.00  0.00     0.011 A 
ENDBRANCH  27  28
ENDBRANCH  21  22
ENDBRANCH   1  21
TORSDOF 4
ENDMDL
MODEL 8
REMARK VINA RESULT:      -8.2      4.894     12.326
REMARK  4 active torsions:
REMARK  status: ('A' for Active; 'I' for Inactive)
REMARK    1  A    between atoms: C_5  and  C_6 
REMARK    2  A    between atoms: C_6  and  N_7 
REMARK    3  A    between atoms: C_17  and  C_18 
REMARK    4  A    between atoms: C_27  and  C_28 
ROOT
HETATM    1  N   UNL     1      20.750  48.172  49.380  1.00  0.00    -0.067 N 
HETATM    2  H   UNL     1      21.056  47.825  50.301  1.00  0.00     0.280 HD
HETATM    3  C   UNL     1      20.710  49.671  49.465  1.00  0.00     0.236 C 
HETATM    4  C   UNL     1      20.038  50.291  48.239  1.00  0.00     0.039 C 
HETATM    5  C   UNL     1      18.637  49.713  47.894  1.00  0.00    -0.013 C 
HETATM    6  C   UNL     1      17.530  50.187  48.877  1.00  0.00     0.244 C 
HETATM    7  N   UNL     1      17.216  51.656  48.725  1.00  0.00    -0.073 N 
HETATM    8  H   UNL     1      18.042  52.228  48.945  1.00  0.00     0.279 HD
HETATM    9  C   UNL     1      16.154  52.105  49.712  1.00  0.00     0.269 C 
HETATM   10  C   UNL     1      16.796  52.029  47.309  1.00  0.00     0.243 C 
HETATM   11  C   UNL     1      17.909  51.641  46.330  1.00  0.00     0.045 C 
HETATM   12  C   UNL     1      18.232  50.140  46.452  1.00  0.00     0.022 C 
HETATM   13  C   UNL     1      18.733  48.158  47.913  1.00  0.00     0.039 C 
HETATM   14  C   UNL     1      19.387  47.573  49.165  1.00  0.00     0.236 C 
ENDROOT
BRANCH  11  15
HETATM   15  C   UNL     1      17.550  52.040  44.915  1.00  0.00    -0.052 A 
HETATM   16  C   UNL     1      16.830  53.226  44.692  1.00  0.00     0.007 A 
HETATM   17  C   UNL     1      16.467  53.608  43.400  1.00  0.00     0.001 A 
HETATM   18  C   UNL     1      16.818  52.815  42.313  1.00  0.00     0.000 A 
HETATM   19  C   UNL     1      17.534  51.638  42.515  1.00  0.00     0.001 A 
HETATM   20  C   UNL     1      17.899  51.251  43.807  1.00  0.00     0.007 A 
ENDBRANCH  11  15
BRANCH   1  21
HETATM   21  C   UNL     1      21.811  47.595  48.437  1.00  0.00     0.277 C 
BRANCH  21  22
HETATM   22  C   UNL     1      23.149  47.306  49.019  1.00  0.00     0.011 A 
HETATM   23  C   UNL     1      23.665  46.042  49.405  1.00  0.00     0.149 A 
HETATM   24  N   UNL     1      24.871  46.110  49.948  1.00  0.00    -0.185 NA
HETATM   25  N   UNL     1      25.196  47.408  49.861  1.00  0.00    -0.278 N 
HETATM   26  C   UNL     1      26.491  47.846  50.336  1.00  0.00     0.179 C 
HETATM   27  C   UNL     1      24.209  48.170  49.274  1.00  0.00     0.043 A 
BRANCH  27  28
HETATM   28  C   UNL     1      24.385  49.661  48.980  1.00  0.00     0.038 A 
HETATM   29  C   UNL     1      25.267  50.087  47.826  1.00  0.00     0.011 A 
HETATM   30  C   UNL     1      23.797  50.323  47.759  1.00  0.00     0.011 A 
ENDBRANCH  27  28
ENDBRANCH  21  22
ENDBRANCH   1  21
TORSDOF 4
ENDMDL
MODEL 9
REMARK VINA RESULT:      -8.1      3.280      8.380
REMARK  4 active torsions:
REMARK  status: ('A' for Active; 'I' for Inactive)
REMARK    1  A    between atoms: C_5  and  C_6 
REMARK    2  A    between atoms: C_6  and  N_7 
REMARK    3  A    between atoms: C_17  and  C_18 
REMARK    4  A    between atoms: C_27  and  C_28 
ROOT
HETATM    1  N   UNL     1      26.326  44.168  51.216  1.00  0.00    -0.067 N 
HETATM    2  H   UNL     1      27.160  43.601  51.426  1.00  0.00     0.280 HD
HETATM    3  C   UNL     1      26.458  44.636  49.794  1.00  0.00     0.236 C 
HETATM    4  C   UNL     1      25.405  45.687  49.442  1.00  0.00     0.039 C 
HETATM    5  C   UNL     1      25.323  46.891  50.420  1.00  0.00    -0.013 C 
HETATM    6  C   UNL     1      26.516  47.876  50.265  1.00  0.00     0.244 C 
HETATM    7  N   UNL     1      26.468  48.636  48.961  1.00  0.00    -0.073 N 
HETATM    8  H   UNL     1      26.539  47.992  48.163  1.00  0.00     0.279 HD
HETATM    9  C   UNL     1      27.655  49.571  48.817  1.00  0.00     0.269 C 
HETATM   10  C   UNL     1      25.172  49.415  48.776  1.00  0.00     0.243 C 
HETATM   11  C   UNL     1      23.985  48.449  48.848  1.00  0.00     0.045 C 
HETATM   12  C   UNL     1      24.000  47.676  50.180  1.00  0.00     0.022 C 
HETATM   13  C   UNL     1      25.280  46.335  51.875  1.00  0.00     0.039 C 
HETATM   14  C   UNL     1      26.364  45.307  52.199  1.00  0.00     0.236 C 
ENDROOT
BRANCH  11  15
HETATM   15  C   UNL     1      22.678  49.177  48.620  1.00  0.00    -0.052 A 
HETATM   16  C   UNL     1      22.663  50.583  48.602  1.00  0.00     0.007 A 
HETATM   17  C   UNL     1      21.471  51.281  48.414  1.00  0.00     0.001 A 
HETATM   18  C   UNL     1      20.276  50.589  48.241  1.00  0.00     0.000 A 
HETATM   19  C   UNL     1      20.272  49.197  48.253  1.00  0.00     0.001 A 
HETATM   20  C   UNL     1      21.464  48.494  48.441  1.00  0.00     0.007 A 
ENDBRANCH  11  15
BRANCH   1  21
HETATM   21  C   UNL     1      25.178  43.188  51.482  1.00  0.00     0.277 C 
BRANCH  21  22
HETATM   22  C   UNL     1      24.447  42.665  50.298  1.00  0.00     0.011 A 
HETATM   23  C   UNL     1      23.222  43.141  49.763  1.00  0.00     0.149 A 
HETATM   24  N   UNL     1      22.788  42.431  48.732  1.00  0.00    -0.185 NA
HETATM   25  N   UNL     1      23.754  41.524  48.528  1.00  0.00    -0.278 N 
HETATM   26  C   UNL     1      23.625  40.587  47.433  1.00  0.00     0.179 C 
HETATM   27  C   UNL     1      24.798  41.643  49.420  1.00  0.00     0.043 A 
BRANCH  27  28
HETATM   28  C   UNL     1      26.059  40.782  49.332  1.00  0.00     0.038 A 
HETATM   29  C   UNL     1      27.210  41.246  48.465  1.00  0.00     0.011 A 
HETATM   30  C   UNL     1      27.373  41.200  49.946  1.00  0.00     0.011 A 
ENDBRANCH  27  28
ENDBRANCH  21  22
ENDBRANCH   1  21
TORSDOF 4
ENDMDL
MODEL 10
REMARK VINA RESULT:      -8.1      4.868     12.287
REMARK  4 active torsions:
REMARK  status: ('A' for Active; 'I' for Inactive)
REMARK    1  A    between atoms: C_5  and  C_6 
REMARK    2  A    between atoms: C_6  and  N_7 
REMARK    3  A    between atoms: C_17  and  C_18 
REMARK    4  A    between atoms: C_27  and  C_28 
ROOT
HETATM    1  N   UNL     1      21.407  48.892  49.520  1.00  0.00    -0.067 N 
HETATM    2  H   UNL     1      21.825  48.670  50.435  1.00  0.00     0.280 HD
HETATM    3  C   UNL     1      21.272  50.387  49.450  1.00  0.00     0.236 C 
HETATM    4  C   UNL     1      20.440  50.825  48.243  1.00  0.00     0.039 C 
HETATM    5  C   UNL     1      19.056  50.132  48.111  1.00  0.00    -0.013 C 
HETATM    6  C   UNL     1      18.021  50.650  49.151  1.00  0.00     0.244 C 
HETATM    7  N   UNL     1      17.593  52.072  48.877  1.00  0.00    -0.073 N 
HETATM    8  H   UNL     1      18.395  52.711  48.947  1.00  0.00     0.279 HD
HETATM    9  C   UNL     1      16.606  52.566  49.918  1.00  0.00     0.269 C 
HETATM   10  C   UNL     1      17.010  52.258  47.483  1.00  0.00     0.243 C 
HETATM   11  C   UNL     1      18.045  51.826  46.438  1.00  0.00     0.045 C 
HETATM   12  C   UNL     1      18.482  50.370  46.683  1.00  0.00     0.022 C 
HETATM   13  C   UNL     1      19.260  48.597  48.285  1.00  0.00     0.039 C 
HETATM   14  C   UNL     1      20.073  48.196  49.515  1.00  0.00     0.236 C 
ENDROOT
BRANCH  11  15
HETATM   15  C   UNL     1      17.521  52.042  45.034  1.00  0.00    -0.052 A 
HETATM   16  C   UNL     1      17.867  51.133  44.020  1.00  0.00     0.007 A 
HETATM   17  C   UNL     1      17.417  51.318  42.713  1.00  0.00     0.001 A 
HETATM   18  C   UNL     1      16.615  52.410  42.398  1.00  0.00     0.000 A 
HETATM   19  C   UNL     1      16.260  53.319  43.392  1.00  0.00     0.001 A 
HETATM   20  C   UNL     1      16.710  53.138  44.702  1.00  0.00     0.007 A 
ENDBRANCH  11  15
BRANCH   1  21
HETATM   21  C   UNL     1      22.407  48.275  48.536  1.00  0.00     0.277 C 
BRANCH  21  22
HETATM   22  C   UNL     1      23.733  48.935  48.416  1.00  0.00     0.011 A 
HETATM   23  C   UNL     1      24.059  50.078  47.642  1.00  0.00     0.149 A 
HETATM   24  N   UNL     1      25.344  50.399  47.692  1.00  0.00    -0.185 NA
HETATM   25  N   UNL     1      25.868  49.517  48.555  1.00  0.00    -0.278 N 
HETATM   26  C   UNL     1      27.274  49.599  48.884  1.00  0.00     0.179 C 
HETATM   27  C   UNL     1      24.934  48.634  49.053  1.00  0.00     0.043 A 
BRANCH  27  28
HETATM   28  C   UNL     1      25.271  47.595  50.124  1.00  0.00     0.038 A 
HETATM   29  C   UNL     1      24.657  46.214  50.032  1.00  0.00     0.011 A 
HETATM   30  C   UNL     1      26.126  46.384  49.841  1.00  0.00     0.011 A 
ENDBRANCH  27  28
ENDBRANCH  21  22
ENDBRANCH   1  21
TORSDOF 4
ENDMDL
