MODEL 1
REMARK VINA RESULT:      -9.5      0.000      0.000
REMARK  4 active torsions:
REMARK  status: ('A' for Active; 'I' for Inactive)
REMARK    1  A    between atoms: C_2  and  O_3 
REMARK    2  A    between atoms: O_3  and  C_4 
REMARK    3  A    between atoms: C_9  and  N_10 
REMARK       I    between atoms: N_10  and  C_11 
REMARK       I    between atoms: C_11  and  N_12 
REMARK       I    between atoms: N_12  and  C_13 
REMARK    4  A    between atoms: C_13  and  C_14 
ROOT
HETATM    1  N   UNL     1      24.581  47.912  50.174  1.00  0.00    -0.019 N 
HETATM    2  C   UNL     1      23.379  47.665  49.523  1.00  0.00     0.693 C 
HETATM    3  N   UNL     1      22.477  48.677  49.352  1.00  0.00    -0.155 N 
HETATM    4  C   UNL     1      21.191  48.524  48.760  1.00  0.00     0.269 C 
HETATM    5  O   UNL     1      20.906  47.494  48.165  1.00  0.00    -0.267 OA
HETATM    6  N   UNL     1      23.082  46.415  49.102  1.00  0.00    -0.234 N 
HETATM    7  H   UNL     1      23.731  45.658  49.327  1.00  0.00     0.174 HD
HETATM    8  H   UNL     1      22.222  46.211  48.595  1.00  0.00     0.174 HD
HETATM    9  H   UNL     1      24.830  48.846  50.455  1.00  0.00     0.203 HD
HETATM   10  H   UNL     1      22.733  49.587  49.699  1.00  0.00     0.187 HD
ENDROOT
BRANCH   1  11
HETATM   11  C   UNL     1      25.429  46.984  50.753  1.00  0.00     0.742 A 
HETATM   12  N   UNL     1      25.711  47.161  52.042  1.00  0.00    -0.062 NA
HETATM   13  C   UNL     1      26.422  46.208  52.663  1.00  0.00     0.088 A 
HETATM   14  C   UNL     1      26.854  45.045  52.016  1.00  0.00     0.021 A 
HETATM   15  C   UNL     1      26.727  46.362  54.011  1.00  0.00     0.036 A 
HETATM   16  C   UNL     1      27.546  44.050  52.746  1.00  0.00     0.052 A 
HETATM   17  C   UNL     1      26.535  44.971  50.657  1.00  0.00     0.062 A 
HETATM   18  C   UNL     1      27.798  44.202  54.108  1.00  0.00     0.069 A 
HETATM   19  C   UNL     1      27.410  45.377  54.737  1.00  0.00     0.039 A 
HETATM   20  N   UNL     1      25.833  45.938  50.020  1.00  0.00    -0.066 NA
HETATM   21  C   UNL     1      26.917  43.784  49.818  1.00  0.00     0.072 C 
BRANCH  18  22
HETATM   22  O   UNL     1      28.427  43.144  54.697  1.00  0.00    -0.351 OA
BRANCH  22  23
HETATM   23  C   UNL     1      29.807  42.957  54.379  1.00  0.00     0.171 C 
HETATM   24  C   UNL     1      30.630  43.505  55.531  1.00  0.00     0.034 C 
ENDBRANCH  22  23
ENDBRANCH  18  22
ENDBRANCH   1  11
BRANCH   4  25
HETATM   25  C   UNL     1      20.221  49.628  48.940  1.00  0.00     0.032 A 
HETATM   26  C   UNL     1      20.504  50.927  48.500  1.00  0.00     0.017 A 
HETATM   27  C   UNL     1      19.603  51.962  48.768  1.00  0.00     0.007 A 
HETATM   28  C   UNL     1      18.421  51.712  49.475  1.00  0.00    -0.062 A 
HETATM   29  C   UNL     1      17.474  52.829  49.811  1.00  0.00     0.048 C 
HETATM   30  C   UNL     1      18.146  50.412  49.912  1.00  0.00     0.007 A 
HETATM   31  C   UNL     1      19.042  49.374  49.651  1.00  0.00     0.017 A 
ENDBRANCH   4  25
TORSDOF 4
ENDMDL
MODEL 2
REMARK VINA RESULT:      -9.5      1.401      2.471
REMARK  4 active torsions:
REMARK  status: ('A' for Active; 'I' for Inactive)
REMARK    1  A    between atoms: C_2  and  O_3 
REMARK    2  A    between atoms: O_3  and  C_4 
REMARK    3  A    between atoms: C_9  and  N_10 
REMARK       I    between atoms: N_10  and  C_11 
REMARK       I    between atoms: C_11  and  N_12 
REMARK       I    between atoms: N_12  and  C_13 
REMARK    4  A    between atoms: C_13  and  C_14 
ROOT
HETATM    1  N   UNL     1      25.505  47.460  51.157  1.00  0.00    -0.019 N 
HETATM    2  C   UNL     1      24.384  47.112  50.416  1.00  0.00     0.693 C 
HETATM    3  N   UNL     1      23.643  48.083  49.803  1.00  0.00    -0.155 N 
HETATM    4  C   UNL     1      22.443  47.849  49.074  1.00  0.00     0.269 C 
HETATM    5  O   UNL     1      22.120  46.709  48.771  1.00  0.00    -0.267 OA
HETATM    6  N   UNL     1      23.999  45.818  50.339  1.00  0.00    -0.234 N 
HETATM    7  H   UNL     1      24.513  45.123  50.884  1.00  0.00     0.174 HD
HETATM    8  H   UNL     1      23.199  45.530  49.776  1.00  0.00     0.174 HD
HETATM    9  H   UNL     1      25.824  48.415  51.188  1.00  0.00     0.203 HD
HETATM   10  H   UNL     1      23.958  49.036  49.904  1.00  0.00     0.187 HD
ENDROOT
BRANCH   1  11
HETATM   11  C   UNL     1      26.146  46.699  52.119  1.00  0.00     0.742 A 
HETATM   12  N   UNL     1      26.596  45.507  51.731  1.00  0.00    -0.062 NA
HETATM   13  C   UNL     1      27.334  44.803  52.601  1.00  0.00     0.088 A 
HETATM   14  C   UNL     1      27.658  45.281  53.876  1.00  0.00     0.021 A 
HETATM   15  C   UNL     1      27.823  43.558  52.222  1.00  0.00     0.036 A 
HETATM   16  C   UNL     1      28.495  44.515  54.721  1.00  0.00     0.052 A 
HETATM   17  C   UNL     1      27.112  46.527  54.198  1.00  0.00     0.062 A 
HETATM   18  C   UNL     1      29.014  43.291  54.303  1.00  0.00     0.069 A 
HETATM   19  C   UNL     1      28.653  42.799  53.057  1.00  0.00     0.039 A 
HETATM   20  N   UNL     1      26.349  47.234  53.330  1.00  0.00    -0.066 NA
HETATM   21  C   UNL     1      27.370  47.186  55.524  1.00  0.00     0.072 C 
BRANCH  18  22
HETATM   22  O   UNL     1      29.847  42.685  55.198  1.00  0.00    -0.351 OA
BRANCH  22  23
HETATM   23  C   UNL     1      31.018  43.407  55.580  1.00  0.00     0.171 C 
HETATM   24  C   UNL     1      31.293  43.108  57.043  1.00  0.00     0.034 C 
ENDBRANCH  22  23
ENDBRANCH  18  22
ENDBRANCH   1  11
BRANCH   4  25
HETATM   25  C   UNL     1      21.598  49.022  48.753  1.00  0.00     0.032 A 
HETATM   26  C   UNL     1      22.015  50.325  49.054  1.00  0.00     0.017 A 
HETATM   27  C   UNL     1      21.152  51.400  48.819  1.00  0.00     0.007 A 
HETATM   28  C   UNL     1      19.875  51.186  48.289  1.00  0.00    -0.062 A 
HETATM   29  C   UNL     1      18.925  52.332  48.082  1.00  0.00     0.048 C 
HETATM   30  C   UNL     1      19.466  49.882  47.993  1.00  0.00     0.007 A 
HETATM   31  C   UNL     1      20.320  48.802  48.227  1.00  0.00     0.017 A 
ENDBRANCH   4  25
TORSDOF 4
ENDMDL
MODEL 3
REMARK VINA RESULT:      -8.9      2.285     10.077
REMARK  4 active torsions:
REMARK  status: ('A' for Active; 'I' for Inactive)
REMARK    1  A    between atoms: C_2  and  O_3 
REMARK    2  A    between atoms: O_3  and  C_4 
REMARK    3  A    between atoms: C_9  and  N_10 
REMARK       I    between atoms: N_10  and  C_11 
REMARK       I    between atoms: C_11  and  N_12 
REMARK       I    between atoms: N_12  and  C_13 
REMARK    4  A    between atoms: C_13  and  C_14 
ROOT
HETATM    1  N   UNL     1      26.268  46.490  51.497  1.00  0.00    -0.019 N 
HETATM    2  C   UNL     1      26.421  46.774  52.847  1.00  0.00     0.693 C 
HETATM    3  N   UNL     1      27.508  46.298  53.524  1.00  0.00    -0.155 N 
HETATM    4  C   UNL     1      27.734  46.471  54.920  1.00  0.00     0.269 C 
HETATM    5  O   UNL     1      27.052  47.259  55.560  1.00  0.00    -0.267 OA
HETATM    6  N   UNL     1      25.471  47.480  53.502  1.00  0.00    -0.234 N 
HETATM    7  H   UNL     1      24.623  47.742  52.996  1.00  0.00     0.174 HD
HETATM    8  H   UNL     1      25.572  47.729  54.485  1.00  0.00     0.174 HD
HETATM    9  H   UNL     1      26.987  46.001  50.990  1.00  0.00     0.203 HD
HETATM   10  H   UNL     1      28.180  45.760  52.999  1.00  0.00     0.187 HD
ENDROOT
BRANCH   1  11
HETATM   11  C   UNL     1      25.104  46.559  50.750  1.00  0.00     0.742 A 
HETATM   12  N   UNL     1      24.660  47.780  50.454  1.00  0.00    -0.062 NA
HETATM   13  C   UNL     1      23.612  47.879  49.623  1.00  0.00     0.088 A 
HETATM   14  C   UNL     1      22.992  46.762  49.053  1.00  0.00     0.021 A 
HETATM   15  C   UNL     1      23.129  49.140  49.291  1.00  0.00     0.036 A 
HETATM   16  C   UNL     1      21.930  46.940  48.134  1.00  0.00     0.052 A 
HETATM   17  C   UNL     1      23.513  45.527  49.452  1.00  0.00     0.062 A 
HETATM   18  C   UNL     1      21.494  48.215  47.777  1.00  0.00     0.069 A 
HETATM   19  C   UNL     1      22.080  49.319  48.380  1.00  0.00     0.039 A 
HETATM   20  N   UNL     1      24.559  45.420  50.305  1.00  0.00    -0.066 NA
HETATM   21  C   UNL     1      22.966  44.230  48.924  1.00  0.00     0.072 C 
BRANCH  18  22
HETATM   22  O   UNL     1      20.500  48.241  46.844  1.00  0.00    -0.351 OA
BRANCH  22  23
HETATM   23  C   UNL     1      19.273  47.597  47.192  1.00  0.00     0.171 C 
HETATM   24  C   UNL     1      18.508  48.522  48.121  1.00  0.00     0.034 C 
ENDBRANCH  22  23
ENDBRANCH  18  22
ENDBRANCH   1  11
BRANCH   4  25
HETATM   25  C   UNL     1      28.776  45.632  55.552  1.00  0.00     0.032 A 
HETATM   26  C   UNL     1      29.379  46.003  56.761  1.00  0.00     0.017 A 
HETATM   27  C   UNL     1      30.423  45.232  57.281  1.00  0.00     0.007 A 
HETATM   28  C   UNL     1      30.872  44.093  56.604  1.00  0.00    -0.062 A 
HETATM   29  C   UNL     1      32.027  43.289  57.132  1.00  0.00     0.048 C 
HETATM   30  C   UNL     1      30.265  43.729  55.397  1.00  0.00     0.007 A 
HETATM   31  C   UNL     1      29.225  44.495  54.869  1.00  0.00     0.017 A 
ENDBRANCH   4  25
TORSDOF 4
ENDMDL
MODEL 4
REMARK VINA RESULT:      -8.8      2.938     10.168
REMARK  4 active torsions:
REMARK  status: ('A' for Active; 'I' for Inactive)
REMARK    1  A    between atoms: C_2  and  O_3 
REMARK    2  A    between atoms: O_3  and  C_4 
REMARK    3  A    between atoms: C_9  and  N_10 
REMARK       I    between atoms: N_10  and  C_11 
REMARK       I    between atoms: C_11  and  N_12 
REMARK       I    between atoms: N_12  and  C_13 
REMARK    4  A    between atoms: C_13  and  C_14 
ROOT
HETATM    1  N   UNL     1      25.525  43.790  52.522  1.00  0.00    -0.019 N 
HETATM    2  C   UNL     1      26.903  43.628  52.460  1.00  0.00     0.693 C 
HETATM    3  N   UNL     1      27.649  43.699  53.602  1.00  0.00    -0.155 N 
HETATM    4  C   UNL     1      29.070  43.613  53.649  1.00  0.00     0.269 C 
HETATM    5  O   UNL     1      29.697  43.247  52.665  1.00  0.00    -0.267 OA
HETATM    6  N   UNL     1      27.510  43.446  51.265  1.00  0.00    -0.234 N 
HETATM    7  H   UNL     1      26.941  43.492  50.418  1.00  0.00     0.174 HD
HETATM    8  H   UNL     1      28.515  43.293  51.193  1.00  0.00     0.174 HD
HETATM    9  H   UNL     1      25.059  43.885  53.409  1.00  0.00     0.203 HD
HETATM   10  H   UNL     1      27.156  43.855  54.467  1.00  0.00     0.187 HD
ENDROOT
BRANCH   1  11
HETATM   11  C   UNL     1      24.669  44.110  51.482  1.00  0.00     0.742 A 
HETATM   12  N   UNL     1      24.599  45.396  51.146  1.00  0.00    -0.062 NA
HETATM   13  C   UNL     1      23.882  45.721  50.060  1.00  0.00     0.088 A 
HETATM   14  C   UNL     1      23.230  44.765  49.272  1.00  0.00     0.021 A 
HETATM   15  C   UNL     1      23.794  47.056  49.680  1.00  0.00     0.036 A 
HETATM   16  C   UNL     1      22.542  45.169  48.104  1.00  0.00     0.052 A 
HETATM   17  C   UNL     1      23.339  43.448  49.728  1.00  0.00     0.062 A 
HETATM   18  C   UNL     1      22.509  46.506  47.714  1.00  0.00     0.069 A 
HETATM   19  C   UNL     1      23.115  47.457  48.522  1.00  0.00     0.039 A 
HETATM   20  N   UNL     1      24.047  43.116  50.834  1.00  0.00    -0.066 NA
HETATM   21  C   UNL     1      22.706  42.301  48.992  1.00  0.00     0.072 C 
BRANCH  18  22
HETATM   22  O   UNL     1      21.855  46.746  46.541  1.00  0.00    -0.351 OA
BRANCH  22  23
HETATM   23  C   UNL     1      20.444  46.521  46.532  1.00  0.00     0.171 C 
HETATM   24  C   UNL     1      19.760  47.835  46.864  1.00  0.00     0.034 C 
ENDBRANCH  22  23
ENDBRANCH  18  22
ENDBRANCH   1  11
BRANCH   4  25
HETATM   25  C   UNL     1      29.738  44.028  54.903  1.00  0.00     0.032 A 
HETATM   26  C   UNL     1      30.708  43.223  55.514  1.00  0.00     0.017 A 
HETATM   27  C   UNL     1      31.251  43.605  56.745  1.00  0.00     0.007 A 
HETATM   28  C   UNL     1      30.833  44.784  57.373  1.00  0.00    -0.062 A 
HETATM   29  C   UNL     1      31.376  45.174  58.719  1.00  0.00     0.048 C 
HETATM   30  C   UNL     1      29.863  45.582  56.756  1.00  0.00     0.007 A 
HETATM   31  C   UNL     1      29.314  45.206  55.529  1.00  0.00     0.017 A 
ENDBRANCH   4  25
TORSDOF 4
ENDMDL
MODEL 5
REMARK VINA RESULT:      -8.7      2.761     10.265
REMARK  4 active torsions:
REMARK  status: ('A' for Active; 'I' for Inactive)
REMARK    1  A    between atoms: C_2  and  O_3 
REMARK    2  A    between atoms: O_3  and  C_4 
REMARK    3  A    between atoms: C_9  and  N_10 
REMARK       I    between atoms: N_10  and  C_11 
REMARK       I    between atoms: C_11  and  N_12 
REMARK       I    between atoms: N_12  and  C_13 
REMARK    4  A    between atoms: C_13  and  C_14 
ROOT
HETATM    1  N   UNL     1      25.318  45.250  51.943  1.00  0.00    -0.019 N 
HETATM    2  C   UNL     1      26.518  44.553  51.964  1.00  0.00     0.693 C 
HETATM    3  N   UNL     1      27.243  44.480  53.120  1.00  0.00    -0.155 N 
HETATM    4  C   UNL     1      28.515  43.849  53.241  1.00  0.00     0.269 C 
HETATM    5  O   UNL     1      28.935  43.136  52.341  1.00  0.00    -0.267 OA
HETATM    6  N   UNL     1      26.991  43.986  50.831  1.00  0.00    -0.234 N 
HETATM    7  H   UNL     1      26.478  44.136  49.960  1.00  0.00     0.174 HD
HETATM    8  H   UNL     1      27.853  43.442  50.824  1.00  0.00     0.174 HD
HETATM    9  H   UNL     1      24.936  45.641  52.789  1.00  0.00     0.203 HD
HETATM   10  H   UNL     1      26.861  44.934  53.934  1.00  0.00     0.187 HD
ENDROOT
BRANCH   1  11
HETATM   11  C   UNL     1      24.647  45.736  50.834  1.00  0.00     0.742 A 
HETATM   12  N   UNL     1      23.886  44.866  50.172  1.00  0.00    -0.062 NA
HETATM   13  C   UNL     1      23.123  45.336  49.174  1.00  0.00     0.088 A 
HETATM   14  C   UNL     1      23.087  46.691  48.824  1.00  0.00     0.021 A 
HETATM   15  C   UNL     1      22.314  44.453  48.468  1.00  0.00     0.036 A 
HETATM   16  C   UNL     1      22.212  47.129  47.802  1.00  0.00     0.052 A 
HETATM   17  C   UNL     1      23.945  47.515  49.558  1.00  0.00     0.062 A 
HETATM   18  C   UNL     1      21.373  46.235  47.141  1.00  0.00     0.069 A 
HETATM   19  C   UNL     1      21.445  44.886  47.457  1.00  0.00     0.039 A 
HETATM   20  N   UNL     1      24.732  47.043  50.555  1.00  0.00    -0.066 NA
HETATM   21  C   UNL     1      24.021  48.996  49.314  1.00  0.00     0.072 C 
BRANCH  18  22
HETATM   22  O   UNL     1      20.545  46.801  46.216  1.00  0.00    -0.351 OA
BRANCH  22  23
HETATM   23  C   UNL     1      19.516  47.659  46.711  1.00  0.00     0.171 C 
HETATM   24  C   UNL     1      18.431  47.746  45.652  1.00  0.00     0.034 C 
ENDBRANCH  22  23
ENDBRANCH  18  22
ENDBRANCH   1  11
BRANCH   4  25
HETATM   25  C   UNL     1      29.306  44.135  54.459  1.00  0.00     0.032 A 
HETATM   26  C   UNL     1      30.328  43.277  54.883  1.00  0.00     0.017 A 
HETATM   27  C   UNL     1      30.992  43.532  56.087  1.00  0.00     0.007 A 
HETATM   28  C   UNL     1      30.643  44.635  56.874  1.00  0.00    -0.062 A 
HETATM   29  C   UNL     1      31.318  44.885  58.193  1.00  0.00     0.048 C 
HETATM   30  C   UNL     1      29.619  45.486  56.444  1.00  0.00     0.007 A 
HETATM   31  C   UNL     1      28.949  45.238  55.245  1.00  0.00     0.017 A 
ENDBRANCH   4  25
TORSDOF 4
ENDMDL
MODEL 6
REMARK VINA RESULT:      -8.6      2.634      3.406
REMARK  4 active torsions:
REMARK  status: ('A' for Active; 'I' for Inactive)
REMARK    1  A    between atoms: C_2  and  O_3 
REMARK    2  A    between atoms: O_3  and  C_4 
REMARK    3  A    between atoms: C_9  and  N_10 
REMARK       I    between atoms: N_10  and  C_11 
REMARK       I    between atoms: C_11  and  N_12 
REMARK       I    between atoms: N_12  and  C_13 
REMARK    4  A    between atoms: C_13  and  C_14 
ROOT
HETATM    1  N   UNL     1      24.024  45.776  50.461  1.00  0.00    -0.019 N 
HETATM    2  C   UNL     1      24.292  47.061  50.009  1.00  0.00     0.693 C 
HETATM    3  N   UNL     1      23.268  47.946  49.823  1.00  0.00    -0.155 N 
HETATM    4  C   UNL     1      23.419  49.264  49.304  1.00  0.00     0.269 C 
HETATM    5  O   UNL     1      24.532  49.758  49.195  1.00  0.00    -0.267 OA
HETATM    6  N   UNL     1      25.561  47.422  49.709  1.00  0.00    -0.234 N 
HETATM    7  H   UNL     1      26.295  46.713  49.765  1.00  0.00     0.174 HD
HETATM    8  H   UNL     1      25.791  48.367  49.405  1.00  0.00     0.174 HD
HETATM    9  H   UNL     1      23.090  45.510  50.726  1.00  0.00     0.203 HD
HETATM   10  H   UNL     1      22.337  47.627  50.042  1.00  0.00     0.187 HD
ENDROOT
BRANCH   1  11
HETATM   11  C   UNL     1      24.841  44.663  50.362  1.00  0.00     0.742 A 
HETATM   12  N   UNL     1      25.936  44.661  51.121  1.00  0.00    -0.062 NA
HETATM   13  C   UNL     1      26.677  43.544  51.147  1.00  0.00     0.088 A 
HETATM   14  C   UNL     1      26.332  42.392  50.429  1.00  0.00     0.021 A 
HETATM   15  C   UNL     1      27.823  43.509  51.934  1.00  0.00     0.036 A 
HETATM   16  C   UNL     1      27.124  41.226  50.551  1.00  0.00     0.052 A 
HETATM   17  C   UNL     1      25.184  42.508  49.640  1.00  0.00     0.062 A 
HETATM   18  C   UNL     1      28.240  41.197  51.384  1.00  0.00     0.069 A 
HETATM   19  C   UNL     1      28.607  42.354  52.057  1.00  0.00     0.039 A 
HETATM   20  N   UNL     1      24.442  43.640  49.596  1.00  0.00    -0.066 NA
HETATM   21  C   UNL     1      24.672  41.360  48.816  1.00  0.00     0.072 C 
BRANCH  18  22
HETATM   22  O   UNL     1      28.880  39.994  51.446  1.00  0.00    -0.351 OA
BRANCH  22  23
HETATM   23  C   UNL     1      28.807  39.165  50.285  1.00  0.00     0.171 C 
HETATM   24  C   UNL     1      29.675  37.943  50.529  1.00  0.00     0.034 C 
ENDBRANCH  22  23
ENDBRANCH  18  22
ENDBRANCH   1  11
BRANCH   4  25
HETATM   25  C   UNL     1      22.193  49.969  48.865  1.00  0.00     0.032 A 
HETATM   26  C   UNL     1      21.575  50.930  49.674  1.00  0.00     0.017 A 
HETATM   27  C   UNL     1      20.369  51.509  49.265  1.00  0.00     0.007 A 
HETATM   28  C   UNL     1      19.773  51.135  48.056  1.00  0.00    -0.062 A 
HETATM   29  C   UNL     1      18.453  51.716  47.636  1.00  0.00     0.048 C 
HETATM   30  C   UNL     1      20.397  50.173  47.254  1.00  0.00     0.007 A 
HETATM   31  C   UNL     1      21.599  49.588  47.656  1.00  0.00     0.017 A 
ENDBRANCH   4  25
TORSDOF 4
ENDMDL
MODEL 7
REMARK VINA RESULT:      -8.4     13.118     16.174
REMARK  4 active torsions:
REMARK  status: ('A' for Active; 'I' for Inactive)
REMARK    1  A    between atoms: C_2  and  O_3 
REMARK    2  A    between atoms: O_3  and  C_4 
REMARK    3  A    between atoms: C_9  and  N_10 
REMARK       I    between atoms: N_10  and  C_11 
REMARK       I    between atoms: C_11  and  N_12 
REMARK       I    between atoms: N_12  and  C_13 
REMARK    4  A    between atoms: C_13  and  C_14 
ROOT
HETATM    1  N   UNL     1      34.193  51.036  43.391  1.00  0.00    -0.019 N 
HETATM    2  C   UNL     1      35.338  51.753  43.073  1.00  0.00     0.693 C 
HETATM    3  N   UNL     1      36.305  51.948  44.018  1.00  0.00    -0.155 N 
HETATM    4  C   UNL     1      37.486  52.720  43.824  1.00  0.00     0.269 C 
HETATM    5  O   UNL     1      37.806  53.081  42.700  1.00  0.00    -0.267 OA
HETATM    6  N   UNL     1      35.475  52.299  41.843  1.00  0.00    -0.234 N 
HETATM    7  H   UNL     1      34.697  52.220  41.186  1.00  0.00     0.174 HD
HETATM    8  H   UNL     1      36.319  52.803  41.572  1.00  0.00     0.174 HD
HETATM    9  H   UNL     1      34.099  50.592  44.290  1.00  0.00     0.203 HD
HETATM   10  H   UNL     1      36.151  51.540  44.927  1.00  0.00     0.187 HD
ENDROOT
BRANCH   1  11
HETATM   11  C   UNL     1      32.983  51.044  42.720  1.00  0.00     0.742 A 
HETATM   12  N   UNL     1      32.254  49.932  42.795  1.00  0.00    -0.062 NA
HETATM   13  C   UNL     1      31.022  49.954  42.268  1.00  0.00     0.088 A 
HETATM   14  C   UNL     1      30.478  51.096  41.667  1.00  0.00     0.021 A 
HETATM   15  C   UNL     1      30.235  48.810  42.336  1.00  0.00     0.036 A 
HETATM   16  C   UNL     1      29.147  51.071  41.187  1.00  0.00     0.052 A 
HETATM   17  C   UNL     1      31.334  52.200  41.611  1.00  0.00     0.062 A 
HETATM   18  C   UNL     1      28.359  49.928  41.310  1.00  0.00     0.069 A 
HETATM   19  C   UNL     1      28.916  48.783  41.863  1.00  0.00     0.039 A 
HETATM   20  N   UNL     1      32.586  52.177  42.125  1.00  0.00    -0.066 NA
HETATM   21  C   UNL     1      30.901  53.506  41.007  1.00  0.00     0.072 C 
BRANCH  18  22
HETATM   22  O   UNL     1      27.081  50.060  40.851  1.00  0.00    -0.351 OA
BRANCH  22  23
HETATM   23  C   UNL     1      26.742  49.333  39.669  1.00  0.00     0.171 C 
HETATM   24  C   UNL     1      26.811  50.293  38.495  1.00  0.00     0.034 C 
ENDBRANCH  22  23
ENDBRANCH  18  22
ENDBRANCH   1  11
BRANCH   4  25
HETATM   25  C   UNL     1      38.261  53.097  45.027  1.00  0.00     0.032 A 
HETATM   26  C   UNL     1      39.379  52.359  45.437  1.00  0.00     0.017 A 
HETATM   27  C   UNL     1      40.031  52.691  46.629  1.00  0.00     0.007 A 
HETATM   28  C   UNL     1      39.576  53.754  47.416  1.00  0.00    -0.062 A 
HETATM   29  C   UNL     1      40.242  54.085  48.723  1.00  0.00     0.048 C 
HETATM   30  C   UNL     1      38.459  54.486  47.000  1.00  0.00     0.007 A 
HETATM   31  C   UNL     1      37.800  54.159  45.814  1.00  0.00     0.017 A 
ENDBRANCH   4  25
TORSDOF 4
ENDMDL
MODEL 8
REMARK VINA RESULT:      -8.4      2.715      9.995
REMARK  4 active torsions:
REMARK  status: ('A' for Active; 'I' for Inactive)
REMARK    1  A    between atoms: C_2  and  O_3 
REMARK    2  A    between atoms: O_3  and  C_4 
REMARK    3  A    between atoms: C_9  and  N_10 
REMARK       I    between atoms: N_10  and  C_11 
REMARK       I    between atoms: C_11  and  N_12 
REMARK       I    between atoms: N_12  and  C_13 
REMARK    4  A    between atoms: C_13  and  C_14 
ROOT
HETATM    1  N   UNL     1      26.393  46.953  51.203  1.00  0.00    -0.019 N 
HETATM    2  C   UNL     1      26.411  46.946  52.592  1.00  0.00     0.693 C 
HETATM    3  N   UNL     1      27.518  46.498  53.256  1.00  0.00    -0.155 N 
HETATM    4  C   UNL     1      27.623  46.385  54.672  1.00  0.00     0.269 C 
HETATM    5  O   UNL     1      26.782  46.900  55.394  1.00  0.00    -0.267 OA
HETATM    6  N   UNL     1      25.319  47.339  53.285  1.00  0.00    -0.234 N 
HETATM    7  H   UNL     1      24.472  47.579  52.765  1.00  0.00     0.174 HD
HETATM    8  H   UNL     1      25.315  47.374  54.304  1.00  0.00     0.174 HD
HETATM    9  H   UNL     1      27.214  46.702  50.677  1.00  0.00     0.203 HD
HETATM   10  H   UNL     1      28.301  46.197  52.697  1.00  0.00     0.187 HD
ENDROOT
BRANCH   1  11
HETATM   11  C   UNL     1      25.283  47.015  50.378  1.00  0.00     0.742 A 
HETATM   12  N   UNL     1      24.753  45.850  50.008  1.00  0.00    -0.062 NA
HETATM   13  C   UNL     1      23.603  45.877  49.318  1.00  0.00     0.088 A 
HETATM   14  C   UNL     1      22.943  47.069  48.996  1.00  0.00     0.021 A 
HETATM   15  C   UNL     1      23.023  44.677  48.922  1.00  0.00     0.036 A 
HETATM   16  C   UNL     1      21.701  47.023  48.322  1.00  0.00     0.052 A 
HETATM   17  C   UNL     1      23.597  48.236  49.403  1.00  0.00     0.062 A 
HETATM   18  C   UNL     1      21.112  45.808  47.979  1.00  0.00     0.069 A 
HETATM   19  C   UNL     1      21.791  44.630  48.256  1.00  0.00     0.039 A 
HETATM   20  N   UNL     1      24.768  48.215  50.083  1.00  0.00    -0.066 NA
HETATM   21  C   UNL     1      23.018  49.598  49.144  1.00  0.00     0.072 C 
BRANCH  18  22
HETATM   22  O   UNL     1      19.891  45.910  47.379  1.00  0.00    -0.351 OA
BRANCH  22  23
HETATM   23  C   UNL     1      19.074  47.017  47.764  1.00  0.00     0.171 C 
HETATM   24  C   UNL     1      17.770  46.466  48.313  1.00  0.00     0.034 C 
ENDBRANCH  22  23
ENDBRANCH  18  22
ENDBRANCH   1  11
BRANCH   4  25
HETATM   25  C   UNL     1      28.749  45.589  55.211  1.00  0.00     0.032 A 
HETATM   26  C   UNL     1      29.130  44.374  54.626  1.00  0.00     0.017 A 
HETATM   27  C   UNL     1      30.138  43.606  55.217  1.00  0.00     0.007 A 
HETATM   28  C   UNL     1      30.767  44.038  56.390  1.00  0.00    -0.062 A 
HETATM   29  C   UNL     1      31.815  43.193  57.058  1.00  0.00     0.048 C 
HETATM   30  C   UNL     1      30.380  45.251  56.969  1.00  0.00     0.007 A 
HETATM   31  C   UNL     1      29.372  46.023  56.387  1.00  0.00     0.017 A 
ENDBRANCH   4  25
TORSDOF 4
ENDMDL
MODEL 9
REMARK VINA RESULT:      -8.3     13.370     16.318
REMARK  4 active torsions:
REMARK  status: ('A' for Active; 'I' for Inactive)
REMARK    1  A    between atoms: C_2  and  O_3 
REMARK    2  A    between atoms: O_3  and  C_4 
REMARK    3  A    between atoms: C_9  and  N_10 
REMARK       I    between atoms: N_10  and  C_11 
REMARK       I    between atoms: C_11  and  N_12 
REMARK       I    between atoms: N_12  and  C_13 
REMARK    4  A    between atoms: C_13  and  C_14 
ROOT
HETATM    1  N   UNL     1      32.832  51.906  43.480  1.00  0.00    -0.019 N 
HETATM    2  C   UNL     1      34.184  51.637  43.314  1.00  0.00     0.693 C 
HETATM    3  N   UNL     1      35.114  52.375  43.990  1.00  0.00    -0.155 N 
HETATM    4  C   UNL     1      36.524  52.230  43.848  1.00  0.00     0.269 C 
HETATM    5  O   UNL     1      36.986  51.265  43.256  1.00  0.00    -0.267 OA
HETATM    6  N   UNL     1      34.581  50.675  42.450  1.00  0.00    -0.234 N 
HETATM    7  H   UNL     1      33.872  50.203  41.886  1.00  0.00     0.174 HD
HETATM    8  H   UNL     1      35.565  50.435  42.331  1.00  0.00     0.174 HD
HETATM    9  H   UNL     1      32.524  52.591  44.150  1.00  0.00     0.203 HD
HETATM   10  H   UNL     1      34.772  53.094  44.608  1.00  0.00     0.187 HD
ENDROOT
BRANCH   1  11
HETATM   11  C   UNL     1      31.793  51.539  42.642  1.00  0.00     0.742 A 
HETATM   12  N   UNL     1      31.317  52.486  41.836  1.00  0.00    -0.062 NA
HETATM   13  C   UNL     1      30.403  52.129  40.923  1.00  0.00     0.088 A 
HETATM   14  C   UNL     1      29.953  50.811  40.780  1.00  0.00     0.021 A 
HETATM   15  C   UNL     1      29.891  53.095  40.063  1.00  0.00     0.036 A 
HETATM   16  C   UNL     1      29.033  50.490  39.754  1.00  0.00     0.052 A 
HETATM   17  C   UNL     1      30.490  49.900  41.694  1.00  0.00     0.062 A 
HETATM   18  C   UNL     1      28.571  51.464  38.871  1.00  0.00     0.069 A 
HETATM   19  C   UNL     1      28.982  52.778  39.045  1.00  0.00     0.039 A 
HETATM   20  N   UNL     1      31.400  50.259  42.631  1.00  0.00    -0.066 NA
HETATM   21  C   UNL     1      30.119  48.444  41.671  1.00  0.00     0.072 C 
BRANCH  18  22
HETATM   22  O   UNL     1      27.729  51.006  37.900  1.00  0.00    -0.351 OA
BRANCH  22  23
HETATM   23  C   UNL     1      26.546  50.336  38.337  1.00  0.00     0.171 C 
HETATM   24  C   UNL     1      26.367  49.097  37.478  1.00  0.00     0.034 C 
ENDBRANCH  22  23
ENDBRANCH  18  22
ENDBRANCH   1  11
BRANCH   4  25
HETATM   25  C   UNL     1      37.380  53.307  44.394  1.00  0.00     0.032 A 
HETATM   26  C   UNL     1      37.827  53.281  45.721  1.00  0.00     0.017 A 
HETATM   27  C   UNL     1      38.558  54.361  46.228  1.00  0.00     0.007 A 
HETATM   28  C   UNL     1      38.844  55.468  45.422  1.00  0.00    -0.062 A 
HETATM   29  C   UNL     1      39.585  56.653  45.976  1.00  0.00     0.048 C 
HETATM   30  C   UNL     1      38.393  55.486  44.098  1.00  0.00     0.007 A 
HETATM   31  C   UNL     1      37.660  54.415  43.585  1.00  0.00     0.017 A 
ENDBRANCH   4  25
TORSDOF 4
ENDMDL
MODEL 10
REMARK VINA RESULT:      -8.3     11.214     12.434
REMARK  4 active torsions:
REMARK  status: ('A' for Active; 'I' for Inactive)
REMARK    1  A    between atoms: C_2  and  O_3 
REMARK    2  A    between atoms: O_3  and  C_4 
REMARK    3  A    between atoms: C_9  and  N_10 
REMARK       I    between atoms: N_10  and  C_11 
REMARK       I    between atoms: C_11  and  N_12 
REMARK       I    between atoms: N_12  and  C_13 
REMARK    4  A    between atoms: C_13  and  C_14 
ROOT
HETATM    1  N   UNL     1      26.352  50.664  38.581  1.00  0.00    -0.019 N 
HETATM    2  C   UNL     1      25.393  49.867  39.192  1.00  0.00     0.693 C 
HETATM    3  N   UNL     1      24.067  50.148  39.024  1.00  0.00    -0.155 N 
HETATM    4  C   UNL     1      23.003  49.440  39.653  1.00  0.00     0.269 C 
HETATM    5  O   UNL     1      23.221  48.381  40.224  1.00  0.00    -0.267 OA
HETATM    6  N   UNL     1      25.773  48.843  39.989  1.00  0.00    -0.234 N 
HETATM    7  H   UNL     1      26.769  48.713  40.174  1.00  0.00     0.174 HD
HETATM    8  H   UNL     1      25.091  48.223  40.425  1.00  0.00     0.174 HD
HETATM    9  H   UNL     1      26.082  51.403  37.953  1.00  0.00     0.203 HD
HETATM   10  H   UNL     1      23.832  50.932  38.437  1.00  0.00     0.187 HD
ENDROOT
BRANCH   1  11
HETATM   11  C   UNL     1      27.692  50.769  38.911  1.00  0.00     0.742 A 
HETATM   12  N   UNL     1      28.065  51.889  39.528  1.00  0.00    -0.062 NA
HETATM   13  C   UNL     1      29.326  51.965  39.978  1.00  0.00     0.088 A 
HETATM   14  C   UNL     1      30.242  50.916  39.839  1.00  0.00     0.021 A 
HETATM   15  C   UNL     1      29.744  53.120  40.631  1.00  0.00     0.036 A 
HETATM   16  C   UNL     1      31.539  51.038  40.393  1.00  0.00     0.052 A 
HETATM   17  C   UNL     1      29.762  49.798  39.150  1.00  0.00     0.062 A 
HETATM   18  C   UNL     1      31.920  52.184  41.087  1.00  0.00     0.069 A 
HETATM   19  C   UNL     1      31.026  53.241  41.182  1.00  0.00     0.039 A 
HETATM   20  N   UNL     1      28.495  49.723  38.677  1.00  0.00    -0.066 NA
HETATM   21  C   UNL     1      30.616  48.582  38.923  1.00  0.00     0.072 C 
BRANCH  18  22
HETATM   22  O   UNL     1      33.179  52.145  41.612  1.00  0.00    -0.351 OA
BRANCH  22  23
HETATM   23  C   UNL     1      33.429  51.159  42.615  1.00  0.00     0.171 C 
HETATM   24  C   UNL     1      33.048  51.754  43.959  1.00  0.00     0.034 C 
ENDBRANCH  22  23
ENDBRANCH  18  22
ENDBRANCH   1  11
BRANCH   4  25
HETATM   25  C   UNL     1      21.660  50.063  39.626  1.00  0.00     0.032 A 
HETATM   26  C   UNL     1      20.896  50.101  38.453  1.00  0.00     0.017 A 
HETATM   27  C   UNL     1      19.672  50.777  38.444  1.00  0.00     0.007 A 
HETATM   28  C   UNL     1      19.203  51.418  39.596  1.00  0.00    -0.062 A 
HETATM   29  C   UNL     1      17.913  52.188  39.578  1.00  0.00     0.048 C 
HETATM   30  C   UNL     1      19.973  51.376  40.764  1.00  0.00     0.007 A 
HETATM   31  C   UNL     1      21.197  50.706  40.781  1.00  0.00     0.017 A 
ENDBRANCH   4  25
TORSDOF 4
ENDMDL
