MODEL 1
REMARK VINA RESULT:     -10.2      0.000      0.000
REMARK  9 active torsions:
REMARK  status: ('A' for Active; 'I' for Inactive)
REMARK    1  A    between atoms: C_2  and  C_3 
REMARK    2  A    between atoms: C_6  and  N_7 
REMARK       I    between atoms: N_7  and  C_8 
REMARK    3  A    between atoms: C_8  and  C_9 
REMARK    4  A    between atoms: C_9  and  S_10 
REMARK    5  A    between atoms: S_10  and  C_11 
REMARK    6  A    between atoms: C_15  and  C_16 
REMARK       I    between atoms: C_16  and  N_17 
REMARK    7  A    between atoms: N_17  and  C_18 
REMARK    8  A    between atoms: C_19  and  O_20 
REMARK    9  A    between atoms: C_27  and  C_28 
ROOT
HETATM    1  C   UNL     1      24.931  47.113  50.636  1.00  0.00     0.087 C 
HETATM    2  N   UNL     1      25.156  47.558  51.932  1.00  0.00    -0.353 N 
HETATM    3  C   UNL     1      25.584  46.747  52.974  1.00  0.00     0.019 C 
HETATM    4  C   UNL     1      26.045  47.465  54.221  1.00  0.00     0.069 C 
HETATM    5  C   UNL     1      25.601  45.404  52.815  1.00  0.00     0.046 C 
HETATM    6  C   UNL     1      24.959  44.773  51.581  1.00  0.00     0.104 C 
HETATM    7  C   UNL     1      24.728  45.783  50.443  1.00  0.00     0.055 C 
HETATM    8  C   UNL     1      24.151  45.241  49.146  1.00  0.00     0.019 C 
HETATM    9  N   UNL     1      23.672  44.789  48.070  1.00  0.00    -0.096 N 
HETATM   10  H   UNL     1      25.374  48.542  52.051  1.00  0.00     0.166 HD
ENDROOT
BRANCH   1  11
HETATM   11  S   UNL     1      25.007  48.156  49.219  1.00  0.00    -0.102 SA
BRANCH  11  12
HETATM   12  C   UNL     1      23.313  48.430  48.667  1.00  0.00     0.184 C 
BRANCH  12  13
HETATM   13  C   UNL     1      22.485  49.509  49.359  1.00  0.00     0.231 C 
HETATM   14  N   UNL     1      21.115  49.349  49.342  1.00  0.00    -0.327 N 
HETATM   15  H   UNL     1      20.772  48.435  49.066  1.00  0.00     0.169 HD
HETATM   16  O   UNL     1      23.073  50.491  49.812  1.00  0.00    -0.272 OA
BRANCH  14  17
HETATM   17  C   UNL     1      20.142  50.371  49.435  1.00  0.00     0.034 A 
HETATM   18  C   UNL     1      20.152  51.531  48.659  1.00  0.00     0.030 A 
HETATM   19  C   UNL     1      19.049  52.395  48.653  1.00  0.00     0.009 A 
HETATM   20  C   UNL     1      17.917  52.114  49.425  1.00  0.00    -0.058 A 
HETATM   21  C   UNL     1      17.933  50.986  50.252  1.00  0.00     0.009 A 
HETATM   22  C   UNL     1      19.041  50.131  50.266  1.00  0.00     0.030 A 
BRANCH  20  23
HETATM   23  C   UNL     1      16.674  52.959  49.300  1.00  0.00     0.034 C 
HETATM   24  C   UNL     1      15.681  52.346  48.320  1.00  0.00     0.010 C 
ENDBRANCH  20  23
ENDBRANCH  14  17
ENDBRANCH  12  13
ENDBRANCH  11  12
ENDBRANCH   1  11
BRANCH   6  25
HETATM   25  C   UNL     1      25.690  43.530  51.076  1.00  0.00    -0.044 A 
HETATM   26  C   UNL     1      26.965  43.658  50.496  1.00  0.00     0.008 A 
HETATM   27  C   UNL     1      27.639  42.541  50.005  1.00  0.00     0.001 A 
HETATM   28  C   UNL     1      27.053  41.281  50.091  1.00  0.00     0.000 A 
HETATM   29  C   UNL     1      25.796  41.136  50.671  1.00  0.00     0.001 A 
HETATM   30  C   UNL     1      25.117  42.250  51.166  1.00  0.00     0.008 A 
ENDBRANCH   6  25
BRANCH   5  31
HETATM   31  C   UNL     1      26.526  44.626  53.696  1.00  0.00     0.255 C 
HETATM   32  N   UNL     1      27.856  44.940  53.592  1.00  0.00    -0.321 N 
HETATM   33  H   UNL     1      28.170  45.556  52.852  1.00  0.00     0.169 HD
HETATM   34  O   UNL     1      26.039  43.808  54.472  1.00  0.00    -0.268 OA
BRANCH  32  35
HETATM   35  C   UNL     1      28.884  44.544  54.487  1.00  0.00     0.068 A 
HETATM   36  C   UNL     1      29.519  43.309  54.246  1.00  0.00     0.095 A 
HETATM   37  C   UNL     1      30.575  42.899  55.071  1.00  0.00     0.039 A 
HETATM   38  C   UNL     1      30.994  43.699  56.134  1.00  0.00     0.003 A 
HETATM   39  C   UNL     1      30.364  44.913  56.381  1.00  0.00     0.002 A 
HETATM   40  C   UNL     1      29.317  45.333  55.560  1.00  0.00     0.032 A 
BRANCH  36  41
HETATM   41  O   UNL     1      29.040  42.591  53.174  1.00  0.00    -0.354 OA
HETATM   42  C   UNL     1      28.494  41.310  53.472  1.00  0.00     0.210 C 
ENDBRANCH  36  41
ENDBRANCH  32  35
ENDBRANCH   5  31
TORSDOF 9
ENDMDL
MODEL 2
REMARK VINA RESULT:     -10.2      2.054      2.863
REMARK  9 active torsions:
REMARK  status: ('A' for Active; 'I' for Inactive)
REMARK    1  A    between atoms: C_2  and  C_3 
REMARK    2  A    between atoms: C_6  and  N_7 
REMARK       I    between atoms: N_7  and  C_8 
REMARK    3  A    between atoms: C_8  and  C_9 
REMARK    4  A    between atoms: C_9  and  S_10 
REMARK    5  A    between atoms: S_10  and  C_11 
REMARK    6  A    between atoms: C_15  and  C_16 
REMARK       I    between atoms: C_16  and  N_17 
REMARK    7  A    between atoms: N_17  and  C_18 
REMARK    8  A    between atoms: C_19  and  O_20 
REMARK    9  A    between atoms: C_27  and  C_28 
ROOT
HETATM    1  C   UNL     1      23.226  44.485  49.119  1.00  0.00     0.087 C 
HETATM    2  N   UNL     1      23.582  45.512  49.983  1.00  0.00    -0.353 N 
HETATM    3  C   UNL     1      24.672  45.471  50.841  1.00  0.00     0.019 C 
HETATM    4  C   UNL     1      25.057  46.784  51.482  1.00  0.00     0.069 C 
HETATM    5  C   UNL     1      25.335  44.306  51.028  1.00  0.00     0.046 C 
HETATM    6  C   UNL     1      24.765  43.005  50.466  1.00  0.00     0.104 C 
HETATM    7  C   UNL     1      23.698  43.238  49.382  1.00  0.00     0.055 C 
HETATM    8  C   UNL     1      23.113  42.004  48.714  1.00  0.00     0.019 C 
HETATM    9  N   UNL     1      22.629  40.979  48.161  1.00  0.00    -0.096 N 
HETATM   10  H   UNL     1      23.279  46.450  49.737  1.00  0.00     0.166 HD
ENDROOT
BRANCH   1  11
HETATM   11  S   UNL     1      22.297  44.728  47.644  1.00  0.00    -0.102 SA
BRANCH  11  12
HETATM   12  C   UNL     1      20.725  45.468  48.120  1.00  0.00     0.184 C 
BRANCH  12  13
HETATM   13  C   UNL     1      20.546  46.975  47.957  1.00  0.00     0.231 C 
HETATM   14  N   UNL     1      20.760  47.752  49.077  1.00  0.00    -0.327 N 
HETATM   15  H   UNL     1      21.222  47.298  49.858  1.00  0.00     0.169 HD
HETATM   16  O   UNL     1      20.143  47.399  46.874  1.00  0.00    -0.272 OA
BRANCH  14  17
HETATM   17  C   UNL     1      20.204  49.024  49.344  1.00  0.00     0.034 A 
HETATM   18  C   UNL     1      20.762  50.227  48.908  1.00  0.00     0.030 A 
HETATM   19  C   UNL     1      20.050  51.428  49.026  1.00  0.00     0.009 A 
HETATM   20  C   UNL     1      18.768  51.448  49.585  1.00  0.00    -0.058 A 
HETATM   21  C   UNL     1      18.236  50.253  50.080  1.00  0.00     0.009 A 
HETATM   22  C   UNL     1      18.954  49.056  49.973  1.00  0.00     0.030 A 
BRANCH  20  23
HETATM   23  C   UNL     1      17.944  52.710  49.571  1.00  0.00     0.034 C 
HETATM   24  C   UNL     1      16.488  52.428  49.925  1.00  0.00     0.010 C 
ENDBRANCH  20  23
ENDBRANCH  14  17
ENDBRANCH  12  13
ENDBRANCH  11  12
ENDBRANCH   1  11
BRANCH   6  25
HETATM   25  C   UNL     1      25.833  42.024  49.988  1.00  0.00    -0.044 A 
HETATM   26  C   UNL     1      26.170  40.916  50.787  1.00  0.00     0.008 A 
HETATM   27  C   UNL     1      27.160  40.021  50.382  1.00  0.00     0.001 A 
HETATM   28  C   UNL     1      27.824  40.217  49.174  1.00  0.00     0.000 A 
HETATM   29  C   UNL     1      27.495  41.303  48.367  1.00  0.00     0.001 A 
HETATM   30  C   UNL     1      26.504  42.201  48.766  1.00  0.00     0.008 A 
ENDBRANCH   6  25
BRANCH   5  31
HETATM   31  C   UNL     1      26.751  44.398  51.499  1.00  0.00     0.255 C 
HETATM   32  N   UNL     1      26.980  43.991  52.787  1.00  0.00    -0.321 N 
HETATM   33  H   UNL     1      26.198  43.786  53.396  1.00  0.00     0.169 HD
HETATM   34  O   UNL     1      27.605  44.783  50.704  1.00  0.00    -0.268 OA
BRANCH  32  35
HETATM   35  C   UNL     1      28.248  43.735  53.373  1.00  0.00     0.068 A 
HETATM   36  C   UNL     1      28.579  44.442  54.546  1.00  0.00     0.095 A 
HETATM   37  C   UNL     1      29.797  44.187  55.191  1.00  0.00     0.039 A 
HETATM   38  C   UNL     1      30.687  43.246  54.673  1.00  0.00     0.003 A 
HETATM   39  C   UNL     1      30.368  42.553  53.512  1.00  0.00     0.002 A 
HETATM   40  C   UNL     1      29.154  42.795  52.867  1.00  0.00     0.032 A 
BRANCH  36  41
HETATM   41  O   UNL     1      27.639  45.348  54.983  1.00  0.00    -0.354 OA
HETATM   42  C   UNL     1      28.139  46.487  55.674  1.00  0.00     0.210 C 
ENDBRANCH  36  41
ENDBRANCH  32  35
ENDBRANCH   5  31
TORSDOF 9
ENDMDL
MODEL 3
REMARK VINA RESULT:      -9.5      2.588      3.671
REMARK  9 active torsions:
REMARK  status: ('A' for Active; 'I' for Inactive)
REMARK    1  A    between atoms: C_2  and  C_3 
REMARK    2  A    between atoms: C_6  and  N_7 
REMARK       I    between atoms: N_7  and  C_8 
REMARK    3  A    between atoms: C_8  and  C_9 
REMARK    4  A    between atoms: C_9  and  S_10 
REMARK    5  A    between atoms: S_10  and  C_11 
REMARK    6  A    between atoms: C_15  and  C_16 
REMARK       I    between atoms: C_16  and  N_17 
REMARK    7  A    between atoms: N_17  and  C_18 
REMARK    8  A    between atoms: C_19  and  O_20 
REMARK    9  A    between atoms: C_27  and  C_28 
ROOT
HETATM    1  C   UNL     1      23.487  44.001  48.210  1.00  0.00     0.087 C 
HETATM    2  N   UNL     1      23.730  45.122  48.992  1.00  0.00    -0.353 N 
HETATM    3  C   UNL     1      24.722  45.201  49.960  1.00  0.00     0.019 C 
HETATM    4  C   UNL     1      25.012  46.584  50.494  1.00  0.00     0.069 C 
HETATM    5  C   UNL     1      25.381  44.081  50.338  1.00  0.00     0.046 C 
HETATM    6  C   UNL     1      24.897  42.713  49.861  1.00  0.00     0.104 C 
HETATM    7  C   UNL     1      23.948  42.801  48.652  1.00  0.00     0.055 C 
HETATM    8  C   UNL     1      23.461  41.489  48.061  1.00  0.00     0.019 C 
HETATM    9  N   UNL     1      23.057  40.399  47.572  1.00  0.00    -0.096 N 
HETATM   10  H   UNL     1      23.439  46.020  48.617  1.00  0.00     0.166 HD
ENDROOT
BRANCH   1  11
HETATM   11  S   UNL     1      22.718  44.063  46.627  1.00  0.00    -0.102 SA
BRANCH  11  12
HETATM   12  C   UNL     1      20.941  43.922  46.892  1.00  0.00     0.184 C 
BRANCH  12  13
HETATM   13  C   UNL     1      20.158  45.174  47.278  1.00  0.00     0.231 C 
HETATM   14  N   UNL     1      20.652  46.380  46.829  1.00  0.00    -0.327 N 
HETATM   15  H   UNL     1      21.364  46.335  46.107  1.00  0.00     0.169 HD
HETATM   16  O   UNL     1      19.191  45.046  48.030  1.00  0.00    -0.272 OA
BRANCH  14  17
HETATM   17  C   UNL     1      20.452  47.650  47.419  1.00  0.00     0.034 A 
HETATM   18  C   UNL     1      21.184  48.129  48.507  1.00  0.00     0.030 A 
HETATM   19  C   UNL     1      21.080  49.469  48.903  1.00  0.00     0.009 A 
HETATM   20  C   UNL     1      20.239  50.353  48.219  1.00  0.00    -0.058 A 
HETATM   21  C   UNL     1      19.458  49.858  47.170  1.00  0.00     0.009 A 
HETATM   22  C   UNL     1      19.554  48.516  46.784  1.00  0.00     0.030 A 
BRANCH  20  23
HETATM   23  C   UNL     1      20.245  51.824  48.546  1.00  0.00     0.034 C 
HETATM   24  C   UNL     1      18.839  52.412  48.493  1.00  0.00     0.010 C 
ENDBRANCH  20  23
ENDBRANCH  14  17
ENDBRANCH  12  13
ENDBRANCH  11  12
ENDBRANCH   1  11
BRANCH   6  25
HETATM   25  C   UNL     1      26.027  41.718  49.604  1.00  0.00    -0.044 A 
HETATM   26  C   UNL     1      26.793  41.820  48.428  1.00  0.00     0.008 A 
HETATM   27  C   UNL     1      27.812  40.907  48.162  1.00  0.00     0.001 A 
HETATM   28  C   UNL     1      28.084  39.884  49.065  1.00  0.00     0.000 A 
HETATM   29  C   UNL     1      27.341  39.774  50.238  1.00  0.00     0.001 A 
HETATM   30  C   UNL     1      26.322  40.687  50.511  1.00  0.00     0.008 A 
ENDBRANCH   6  25
BRANCH   5  31
HETATM   31  C   UNL     1      26.736  44.262  50.943  1.00  0.00     0.255 C 
HETATM   32  N   UNL     1      26.871  43.847  52.242  1.00  0.00    -0.321 N 
HETATM   33  H   UNL     1      26.050  43.579  52.772  1.00  0.00     0.169 HD
HETATM   34  O   UNL     1      27.632  44.718  50.238  1.00  0.00    -0.268 OA
BRANCH  32  35
HETATM   35  C   UNL     1      28.092  43.669  52.943  1.00  0.00     0.068 A 
HETATM   36  C   UNL     1      28.272  44.397  54.137  1.00  0.00     0.095 A 
HETATM   37  C   UNL     1      29.439  44.216  54.892  1.00  0.00     0.039 A 
HETATM   38  C   UNL     1      30.427  43.328  54.465  1.00  0.00     0.003 A 
HETATM   39  C   UNL     1      30.257  42.615  53.284  1.00  0.00     0.002 A 
HETATM   40  C   UNL     1      29.095  42.783  52.529  1.00  0.00     0.032 A 
BRANCH  36  41
HETATM   41  O   UNL     1      27.244  45.246  54.479  1.00  0.00    -0.354 OA
HETATM   42  C   UNL     1      27.625  46.507  55.017  1.00  0.00     0.210 C 
ENDBRANCH  36  41
ENDBRANCH  32  35
ENDBRANCH   5  31
TORSDOF 9
ENDMDL
MODEL 4
REMARK VINA RESULT:      -9.5      2.866     10.703
REMARK  9 active torsions:
REMARK  status: ('A' for Active; 'I' for Inactive)
REMARK    1  A    between atoms: C_2  and  C_3 
REMARK    2  A    between atoms: C_6  and  N_7 
REMARK       I    between atoms: N_7  and  C_8 
REMARK    3  A    between atoms: C_8  and  C_9 
REMARK    4  A    between atoms: C_9  and  S_10 
REMARK    5  A    between atoms: S_10  and  C_11 
REMARK    6  A    between atoms: C_15  and  C_16 
REMARK       I    between atoms: C_16  and  N_17 
REMARK    7  A    between atoms: N_17  and  C_18 
REMARK    8  A    between atoms: C_19  and  O_20 
REMARK    9  A    between atoms: C_27  and  C_28 
ROOT
HETATM    1  C   UNL     1      23.722  44.426  49.384  1.00  0.00     0.087 C 
HETATM    2  N   UNL     1      24.179  45.691  49.733  1.00  0.00    -0.353 N 
HETATM    3  C   UNL     1      23.635  46.877  49.260  1.00  0.00     0.019 C 
HETATM    4  C   UNL     1      24.076  48.134  49.973  1.00  0.00     0.069 C 
HETATM    5  C   UNL     1      22.741  46.847  48.245  1.00  0.00     0.046 C 
HETATM    6  C   UNL     1      22.491  45.546  47.486  1.00  0.00     0.104 C 
HETATM    7  C   UNL     1      22.989  44.304  48.246  1.00  0.00     0.055 C 
HETATM    8  C   UNL     1      22.730  42.951  47.603  1.00  0.00     0.019 C 
HETATM    9  N   UNL     1      22.514  41.830  47.067  1.00  0.00    -0.096 N 
HETATM   10  H   UNL     1      24.666  45.778  50.620  1.00  0.00     0.166 HD
ENDROOT
BRANCH   1  11
HETATM   11  S   UNL     1      23.941  42.998  50.390  1.00  0.00    -0.102 SA
BRANCH  11  12
HETATM   12  C   UNL     1      25.703  42.860  50.742  1.00  0.00     0.184 C 
BRANCH  12  13
HETATM   13  C   UNL     1      26.243  43.489  52.024  1.00  0.00     0.231 C 
HETATM   14  N   UNL     1      27.612  43.625  52.121  1.00  0.00    -0.327 N 
HETATM   15  H   UNL     1      28.139  43.501  51.263  1.00  0.00     0.169 HD
HETATM   16  O   UNL     1      25.445  43.756  52.922  1.00  0.00    -0.272 OA
BRANCH  14  17
HETATM   17  C   UNL     1      28.376  43.685  53.310  1.00  0.00     0.034 A 
HETATM   18  C   UNL     1      29.367  42.761  53.648  1.00  0.00     0.030 A 
HETATM   19  C   UNL     1      30.224  42.998  54.730  1.00  0.00     0.009 A 
HETATM   20  C   UNL     1      30.102  44.162  55.497  1.00  0.00    -0.058 A 
HETATM   21  C   UNL     1      29.068  45.055  55.198  1.00  0.00     0.009 A 
HETATM   22  C   UNL     1      28.206  44.811  54.124  1.00  0.00     0.030 A 
BRANCH  20  23
HETATM   23  C   UNL     1      31.118  44.489  56.561  1.00  0.00     0.034 C 
HETATM   24  C   UNL     1      31.739  43.225  57.146  1.00  0.00     0.010 C 
ENDBRANCH  20  23
ENDBRANCH  14  17
ENDBRANCH  12  13
ENDBRANCH  11  12
ENDBRANCH   1  11
BRANCH   6  25
HETATM   25  C   UNL     1      21.044  45.370  47.029  1.00  0.00    -0.044 A 
HETATM   26  C   UNL     1      20.063  44.977  47.957  1.00  0.00     0.008 A 
HETATM   27  C   UNL     1      18.741  44.786  47.556  1.00  0.00     0.001 A 
HETATM   28  C   UNL     1      18.380  44.988  46.227  1.00  0.00     0.000 A 
HETATM   29  C   UNL     1      19.338  45.386  45.298  1.00  0.00     0.001 A 
HETATM   30  C   UNL     1      20.662  45.581  45.694  1.00  0.00     0.008 A 
ENDBRANCH   6  25
BRANCH   5  31
HETATM   31  C   UNL     1      21.811  48.012  48.124  1.00  0.00     0.255 C 
HETATM   32  N   UNL     1      20.884  48.142  49.125  1.00  0.00    -0.321 N 
HETATM   33  H   UNL     1      20.769  47.400  49.804  1.00  0.00     0.169 HD
HETATM   34  O   UNL     1      21.964  48.784  47.181  1.00  0.00    -0.268 OA
BRANCH  32  35
HETATM   35  C   UNL     1      20.078  49.283  49.379  1.00  0.00     0.068 A 
HETATM   36  C   UNL     1      18.681  49.100  49.419  1.00  0.00     0.095 A 
HETATM   37  C   UNL     1      17.846  50.186  49.716  1.00  0.00     0.039 A 
HETATM   38  C   UNL     1      18.388  51.447  49.963  1.00  0.00     0.003 A 
HETATM   39  C   UNL     1      19.764  51.634  49.916  1.00  0.00     0.002 A 
HETATM   40  C   UNL     1      20.604  50.557  49.627  1.00  0.00     0.032 A 
BRANCH  36  41
HETATM   41  O   UNL     1      18.239  47.821  49.165  1.00  0.00    -0.354 OA
HETATM   42  C   UNL     1      16.872  47.693  48.789  1.00  0.00     0.210 C 
ENDBRANCH  36  41
ENDBRANCH  32  35
ENDBRANCH   5  31
TORSDOF 9
ENDMDL
MODEL 5
REMARK VINA RESULT:      -9.5      2.536     11.311
REMARK  9 active torsions:
REMARK  status: ('A' for Active; 'I' for Inactive)
REMARK    1  A    between atoms: C_2  and  C_3 
REMARK    2  A    between atoms: C_6  and  N_7 
REMARK       I    between atoms: N_7  and  C_8 
REMARK    3  A    between atoms: C_8  and  C_9 
REMARK    4  A    between atoms: C_9  and  S_10 
REMARK    5  A    between atoms: S_10  and  C_11 
REMARK    6  A    between atoms: C_15  and  C_16 
REMARK       I    between atoms: C_16  and  N_17 
REMARK    7  A    between atoms: N_17  and  C_18 
REMARK    8  A    between atoms: C_19  and  O_20 
REMARK    9  A    between atoms: C_27  and  C_28 
ROOT
HETATM    1  C   UNL     1      24.244  45.004  49.237  1.00  0.00     0.087 C 
HETATM    2  N   UNL     1      23.229  44.339  48.561  1.00  0.00    -0.353 N 
HETATM    3  C   UNL     1      22.118  44.962  48.009  1.00  0.00     0.019 C 
HETATM    4  C   UNL     1      21.285  44.116  47.075  1.00  0.00     0.069 C 
HETATM    5  C   UNL     1      21.864  46.259  48.296  1.00  0.00     0.046 C 
HETATM    6  C   UNL     1      22.670  46.973  49.380  1.00  0.00     0.104 C 
HETATM    7  C   UNL     1      23.975  46.239  49.737  1.00  0.00     0.055 C 
HETATM    8  C   UNL     1      24.881  46.902  50.761  1.00  0.00     0.019 C 
HETATM    9  N   UNL     1      25.632  47.453  51.612  1.00  0.00    -0.096 N 
HETATM   10  H   UNL     1      23.464  43.448  48.134  1.00  0.00     0.166 HD
ENDROOT
BRANCH   1  11
HETATM   11  S   UNL     1      25.887  44.388  49.382  1.00  0.00    -0.102 SA
BRANCH  11  12
HETATM   12  C   UNL     1      25.908  43.251  50.780  1.00  0.00     0.184 C 
BRANCH  12  13
HETATM   13  C   UNL     1      26.399  43.764  52.131  1.00  0.00     0.231 C 
HETATM   14  N   UNL     1      27.756  43.974  52.262  1.00  0.00    -0.327 N 
HETATM   15  H   UNL     1      28.295  43.981  51.402  1.00  0.00     0.169 HD
HETATM   16  O   UNL     1      25.579  43.876  53.043  1.00  0.00    -0.272 OA
BRANCH  14  17
HETATM   17  C   UNL     1      28.507  43.946  53.460  1.00  0.00     0.034 A 
HETATM   18  C   UNL     1      29.496  43.001  53.738  1.00  0.00     0.030 A 
HETATM   19  C   UNL     1      30.341  43.158  54.845  1.00  0.00     0.009 A 
HETATM   20  C   UNL     1      30.209  44.261  55.694  1.00  0.00    -0.058 A 
HETATM   21  C   UNL     1      29.177  45.173  55.451  1.00  0.00     0.009 A 
HETATM   22  C   UNL     1      28.326  45.008  54.353  1.00  0.00     0.030 A 
BRANCH  20  23
HETATM   23  C   UNL     1      31.214  44.510  56.790  1.00  0.00     0.034 C 
HETATM   24  C   UNL     1      31.890  43.216  57.229  1.00  0.00     0.010 C 
ENDBRANCH  20  23
ENDBRANCH  14  17
ENDBRANCH  12  13
ENDBRANCH  11  12
ENDBRANCH   1  11
BRANCH   6  25
HETATM   25  C   UNL     1      22.930  48.448  49.081  1.00  0.00    -0.044 A 
HETATM   26  C   UNL     1      22.080  49.430  49.622  1.00  0.00     0.008 A 
HETATM   27  C   UNL     1      22.284  50.780  49.341  1.00  0.00     0.001 A 
HETATM   28  C   UNL     1      23.339  51.170  48.521  1.00  0.00     0.000 A 
HETATM   29  C   UNL     1      24.195  50.211  47.985  1.00  0.00     0.001 A 
HETATM   30  C   UNL     1      23.998  48.858  48.264  1.00  0.00     0.008 A 
ENDBRANCH   6  25
BRANCH   5  31
HETATM   31  C   UNL     1      21.026  47.020  47.320  1.00  0.00     0.255 C 
HETATM   32  N   UNL     1      19.887  47.590  47.826  1.00  0.00    -0.321 N 
HETATM   33  H   UNL     1      19.589  47.366  48.768  1.00  0.00     0.169 HD
HETATM   34  O   UNL     1      21.426  47.122  46.163  1.00  0.00    -0.268 OA
BRANCH  32  35
HETATM   35  C   UNL     1      19.077  48.562  47.183  1.00  0.00     0.068 A 
HETATM   36  C   UNL     1      17.704  48.277  47.041  1.00  0.00     0.095 A 
HETATM   37  C   UNL     1      16.854  49.228  46.459  1.00  0.00     0.039 A 
HETATM   38  C   UNL     1      17.360  50.448  46.010  1.00  0.00     0.003 A 
HETATM   39  C   UNL     1      18.714  50.729  46.140  1.00  0.00     0.002 A 
HETATM   40  C   UNL     1      19.567  49.791  46.725  1.00  0.00     0.032 A 
BRANCH  36  41
HETATM   41  O   UNL     1      17.296  47.051  47.514  1.00  0.00    -0.354 OA
HETATM   42  C   UNL     1      16.634  47.054  48.775  1.00  0.00     0.210 C 
ENDBRANCH  36  41
ENDBRANCH  32  35
ENDBRANCH   5  31
TORSDOF 9
ENDMDL
MODEL 6
REMARK VINA RESULT:      -9.5      2.943     11.181
REMARK  9 active torsions:
REMARK  status: ('A' for Active; 'I' for Inactive)
REMARK    1  A    between atoms: C_2  and  C_3 
REMARK    2  A    between atoms: C_6  and  N_7 
REMARK       I    between atoms: N_7  and  C_8 
REMARK    3  A    between atoms: C_8  and  C_9 
REMARK    4  A    between atoms: C_9  and  S_10 
REMARK    5  A    between atoms: S_10  and  C_11 
REMARK    6  A    between atoms: C_15  and  C_16 
REMARK       I    between atoms: C_16  and  N_17 
REMARK    7  A    between atoms: N_17  and  C_18 
REMARK    8  A    between atoms: C_19  and  O_20 
REMARK    9  A    between atoms: C_27  and  C_28 
ROOT
HETATM    1  C   UNL     1      23.370  46.717  49.097  1.00  0.00     0.087 C 
HETATM    2  N   UNL     1      23.517  48.094  49.202  1.00  0.00    -0.353 N 
HETATM    3  C   UNL     1      22.623  49.018  48.679  1.00  0.00     0.019 C 
HETATM    4  C   UNL     1      22.804  50.445  49.143  1.00  0.00     0.069 C 
HETATM    5  C   UNL     1      21.646  48.606  47.839  1.00  0.00     0.046 C 
HETATM    6  C   UNL     1      21.654  47.175  47.303  1.00  0.00     0.104 C 
HETATM    7  C   UNL     1      22.556  46.234  48.122  1.00  0.00     0.055 C 
HETATM    8  C   UNL     1      22.583  44.772  47.707  1.00  0.00     0.019 C 
HETATM    9  N   UNL     1      22.604  43.559  47.362  1.00  0.00    -0.096 N 
HETATM   10  H   UNL     1      24.074  48.442  49.976  1.00  0.00     0.166 HD
ENDROOT
BRANCH   1  11
HETATM   11  S   UNL     1      24.086  45.570  50.225  1.00  0.00    -0.102 SA
BRANCH  11  12
HETATM   12  C   UNL     1      25.415  44.723  49.351  1.00  0.00     0.184 C 
BRANCH  12  13
HETATM   13  C   UNL     1      26.782  44.619  50.023  1.00  0.00     0.231 C 
HETATM   14  N   UNL     1      26.891  43.735  51.077  1.00  0.00    -0.327 N 
HETATM   15  H   UNL     1      26.131  43.072  51.189  1.00  0.00     0.169 HD
HETATM   16  O   UNL     1      27.673  45.381  49.649  1.00  0.00    -0.272 OA
BRANCH  14  17
HETATM   17  C   UNL     1      27.815  43.802  52.146  1.00  0.00     0.034 A 
HETATM   18  C   UNL     1      27.525  44.357  53.394  1.00  0.00     0.030 A 
HETATM   19  C   UNL     1      28.411  44.199  54.468  1.00  0.00     0.009 A 
HETATM   20  C   UNL     1      29.604  43.486  54.312  1.00  0.00    -0.058 A 
HETATM   21  C   UNL     1      29.923  42.986  53.046  1.00  0.00     0.009 A 
HETATM   22  C   UNL     1      29.043  43.155  51.971  1.00  0.00     0.030 A 
BRANCH  20  23
HETATM   23  C   UNL     1      30.479  43.186  55.502  1.00  0.00     0.034 C 
HETATM   24  C   UNL     1      31.016  44.465  56.135  1.00  0.00     0.010 C 
ENDBRANCH  20  23
ENDBRANCH  14  17
ENDBRANCH  12  13
ENDBRANCH  11  12
ENDBRANCH   1  11
BRANCH   6  25
HETATM   25  C   UNL     1      20.259  46.581  47.120  1.00  0.00    -0.044 A 
HETATM   26  C   UNL     1      19.527  46.159  48.245  1.00  0.00     0.008 A 
HETATM   27  C   UNL     1      18.262  45.591  48.098  1.00  0.00     0.001 A 
HETATM   28  C   UNL     1      17.709  45.440  46.830  1.00  0.00     0.000 A 
HETATM   29  C   UNL     1      18.417  45.861  45.707  1.00  0.00     0.001 A 
HETATM   30  C   UNL     1      19.682  46.433  45.847  1.00  0.00     0.008 A 
ENDBRANCH   6  25
BRANCH   5  31
HETATM   31  C   UNL     1      20.434  49.474  47.728  1.00  0.00     0.255 C 
HETATM   32  N   UNL     1      19.644  49.543  48.846  1.00  0.00    -0.321 N 
HETATM   33  H   UNL     1      19.820  48.920  49.625  1.00  0.00     0.169 HD
HETATM   34  O   UNL     1      20.253  50.090  46.681  1.00  0.00    -0.268 OA
BRANCH  32  35
HETATM   35  C   UNL     1      18.606  50.482  49.083  1.00  0.00     0.068 A 
HETATM   36  C   UNL     1      17.306  50.139  48.657  1.00  0.00     0.095 A 
HETATM   37  C   UNL     1      16.239  51.010  48.914  1.00  0.00     0.039 A 
HETATM   38  C   UNL     1      16.456  52.217  49.578  1.00  0.00     0.003 A 
HETATM   39  C   UNL     1      17.737  52.563  49.991  1.00  0.00     0.002 A 
HETATM   40  C   UNL     1      18.805  51.699  49.746  1.00  0.00     0.032 A 
BRANCH  36  41
HETATM   41  O   UNL     1      17.189  48.928  48.014  1.00  0.00    -0.354 OA
HETATM   42  C   UNL     1      16.736  48.976  46.665  1.00  0.00     0.210 C 
ENDBRANCH  36  41
ENDBRANCH  32  35
ENDBRANCH   5  31
TORSDOF 9
ENDMDL
MODEL 7
REMARK VINA RESULT:      -9.0      2.646      4.628
REMARK  9 active torsions:
REMARK  status: ('A' for Active; 'I' for Inactive)
REMARK    1  A    between atoms: C_2  and  C_3 
REMARK    2  A    between atoms: C_6  and  N_7 
REMARK       I    between atoms: N_7  and  C_8 
REMARK    3  A    between atoms: C_8  and  C_9 
REMARK    4  A    between atoms: C_9  and  S_10 
REMARK    5  A    between atoms: S_10  and  C_11 
REMARK    6  A    between atoms: C_15  and  C_16 
REMARK       I    between atoms: C_16  and  N_17 
REMARK    7  A    between atoms: N_17  and  C_18 
REMARK    8  A    between atoms: C_19  and  O_20 
REMARK    9  A    between atoms: C_27  and  C_28 
ROOT
HETATM    1  C   UNL     1      24.628  45.254  49.250  1.00  0.00     0.087 C 
HETATM    2  N   UNL     1      24.438  44.179  48.392  1.00  0.00    -0.353 N 
HETATM    3  C   UNL     1      25.096  42.962  48.504  1.00  0.00     0.019 C 
HETATM    4  C   UNL     1      24.545  41.836  47.660  1.00  0.00     0.069 C 
HETATM    5  C   UNL     1      26.137  42.839  49.358  1.00  0.00     0.046 C 
HETATM    6  C   UNL     1      26.718  44.077  50.037  1.00  0.00     0.104 C 
HETATM    7  C   UNL     1      25.770  45.289  49.986  1.00  0.00     0.055 C 
HETATM    8  C   UNL     1      26.231  46.555  50.691  1.00  0.00     0.019 C 
HETATM    9  N   UNL     1      26.614  47.604  51.276  1.00  0.00    -0.096 N 
HETATM   10  H   UNL     1      23.550  44.132  47.900  1.00  0.00     0.166 HD
ENDROOT
BRANCH   1  11
HETATM   11  S   UNL     1      23.425  46.510  49.525  1.00  0.00    -0.102 SA
BRANCH  11  12
HETATM   12  C   UNL     1      22.395  46.591  48.048  1.00  0.00     0.184 C 
BRANCH  12  13
HETATM   13  C   UNL     1      21.540  47.835  47.820  1.00  0.00     0.231 C 
HETATM   14  N   UNL     1      21.785  48.917  48.640  1.00  0.00    -0.327 N 
HETATM   15  H   UNL     1      22.644  48.888  49.180  1.00  0.00     0.169 HD
HETATM   16  O   UNL     1      20.635  47.774  46.988  1.00  0.00    -0.272 OA
BRANCH  14  17
HETATM   17  C   UNL     1      20.872  49.940  48.988  1.00  0.00     0.034 A 
HETATM   18  C   UNL     1      20.774  51.159  48.315  1.00  0.00     0.030 A 
HETATM   19  C   UNL     1      19.711  52.035  48.577  1.00  0.00     0.009 A 
HETATM   20  C   UNL     1      18.731  51.707  49.519  1.00  0.00    -0.058 A 
HETATM   21  C   UNL     1      18.866  50.516  50.239  1.00  0.00     0.009 A 
HETATM   22  C   UNL     1      19.934  49.648  49.984  1.00  0.00     0.030 A 
BRANCH  20  23
HETATM   23  C   UNL     1      17.510  52.575  49.689  1.00  0.00     0.034 C 
HETATM   24  C   UNL     1      16.364  52.104  48.800  1.00  0.00     0.010 C 
ENDBRANCH  20  23
ENDBRANCH  14  17
ENDBRANCH  12  13
ENDBRANCH  11  12
ENDBRANCH   1  11
BRANCH   6  25
HETATM   25  C   UNL     1      27.212  43.822  51.460  1.00  0.00    -0.044 A 
HETATM   26  C   UNL     1      28.584  43.615  51.696  1.00  0.00     0.008 A 
HETATM   27  C   UNL     1      29.053  43.355  52.982  1.00  0.00     0.001 A 
HETATM   28  C   UNL     1      28.163  43.303  54.051  1.00  0.00     0.000 A 
HETATM   29  C   UNL     1      26.804  43.515  53.836  1.00  0.00     0.001 A 
HETATM   30  C   UNL     1      26.328  43.778  52.551  1.00  0.00     0.008 A 
ENDBRANCH   6  25
BRANCH   5  31
HETATM   31  C   UNL     1      26.461  41.461  49.840  1.00  0.00     0.255 C 
HETATM   32  N   UNL     1      27.628  40.921  49.367  1.00  0.00    -0.321 N 
HETATM   33  H   UNL     1      28.137  41.392  48.628  1.00  0.00     0.169 HD
HETATM   34  O   UNL     1      25.700  40.932  50.646  1.00  0.00    -0.268 OA
BRANCH  32  35
HETATM   35  C   UNL     1      28.280  39.763  49.866  1.00  0.00     0.068 A 
HETATM   36  C   UNL     1      28.189  38.582  49.102  1.00  0.00     0.095 A 
HETATM   37  C   UNL     1      28.858  37.426  49.527  1.00  0.00     0.039 A 
HETATM   38  C   UNL     1      29.605  37.435  50.705  1.00  0.00     0.003 A 
HETATM   39  C   UNL     1      29.691  38.595  51.465  1.00  0.00     0.002 A 
HETATM   40  C   UNL     1      29.034  39.753  51.046  1.00  0.00     0.032 A 
BRANCH  36  41
HETATM   41  O   UNL     1      27.432  38.670  47.956  1.00  0.00    -0.354 OA
HETATM   42  C   UNL     1      28.152  38.661  46.728  1.00  0.00     0.210 C 
ENDBRANCH  36  41
ENDBRANCH  32  35
ENDBRANCH   5  31
TORSDOF 9
ENDMDL
MODEL 8
REMARK VINA RESULT:      -8.8      2.746     11.429
REMARK  9 active torsions:
REMARK  status: ('A' for Active; 'I' for Inactive)
REMARK    1  A    between atoms: C_2  and  C_3 
REMARK    2  A    between atoms: C_6  and  N_7 
REMARK       I    between atoms: N_7  and  C_8 
REMARK    3  A    between atoms: C_8  and  C_9 
REMARK    4  A    between atoms: C_9  and  S_10 
REMARK    5  A    between atoms: S_10  and  C_11 
REMARK    6  A    between atoms: C_15  and  C_16 
REMARK       I    between atoms: C_16  and  N_17 
REMARK    7  A    between atoms: N_17  and  C_18 
REMARK    8  A    between atoms: C_19  and  O_20 
REMARK    9  A    between atoms: C_27  and  C_28 
ROOT
HETATM    1  C   UNL     1      22.662  45.105  48.583  1.00  0.00     0.087 C 
HETATM    2  N   UNL     1      21.355  44.763  48.263  1.00  0.00    -0.353 N 
HETATM    3  C   UNL     1      20.318  45.676  48.125  1.00  0.00     0.019 C 
HETATM    4  C   UNL     1      19.051  45.144  47.497  1.00  0.00     0.069 C 
HETATM    5  C   UNL     1      20.499  46.959  48.513  1.00  0.00     0.046 C 
HETATM    6  C   UNL     1      21.756  47.353  49.287  1.00  0.00     0.104 C 
HETATM    7  C   UNL     1      22.881  46.309  49.174  1.00  0.00     0.055 C 
HETATM    8  C   UNL     1      24.197  46.637  49.858  1.00  0.00     0.019 C 
HETATM    9  N   UNL     1      25.290  46.911  50.427  1.00  0.00    -0.096 N 
HETATM   10  H   UNL     1      21.214  43.892  47.760  1.00  0.00     0.166 HD
ENDROOT
BRANCH   1  11
HETATM   11  S   UNL     1      24.059  44.120  48.161  1.00  0.00    -0.102 SA
BRANCH  11  12
HETATM   12  C   UNL     1      24.496  43.163  49.624  1.00  0.00     0.184 C 
BRANCH  12  13
HETATM   13  C   UNL     1      25.946  43.179  50.102  1.00  0.00     0.231 C 
HETATM   14  N   UNL     1      26.192  42.667  51.359  1.00  0.00    -0.327 N 
HETATM   15  H   UNL     1      25.443  42.128  51.780  1.00  0.00     0.169 HD
HETATM   16  O   UNL     1      26.788  43.720  49.386  1.00  0.00    -0.272 OA
BRANCH  14  17
HETATM   17  C   UNL     1      27.267  43.002  52.214  1.00  0.00     0.034 A 
HETATM   18  C   UNL     1      27.151  43.846  53.320  1.00  0.00     0.030 A 
HETATM   19  C   UNL     1      28.201  43.964  54.241  1.00  0.00     0.009 A 
HETATM   20  C   UNL     1      29.386  43.243  54.070  1.00  0.00    -0.058 A 
HETATM   21  C   UNL     1      29.527  42.447  52.928  1.00  0.00     0.009 A 
HETATM   22  C   UNL     1      28.482  42.340  52.003  1.00  0.00     0.030 A 
BRANCH  20  23
HETATM   23  C   UNL     1      30.451  43.252  55.138  1.00  0.00     0.034 C 
HETATM   24  C   UNL     1      30.439  44.558  55.924  1.00  0.00     0.010 C 
ENDBRANCH  20  23
ENDBRANCH  14  17
ENDBRANCH  12  13
ENDBRANCH  11  12
ENDBRANCH   1  11
BRANCH   6  25
HETATM   25  C   UNL     1      22.267  48.754  48.956  1.00  0.00    -0.044 A 
HETATM   26  C   UNL     1      23.148  48.937  47.874  1.00  0.00     0.008 A 
HETATM   27  C   UNL     1      23.647  50.203  47.570  1.00  0.00     0.001 A 
HETATM   28  C   UNL     1      23.272  51.302  48.336  1.00  0.00     0.000 A 
HETATM   29  C   UNL     1      22.393  51.139  49.404  1.00  0.00     0.001 A 
HETATM   30  C   UNL     1      21.889  49.875  49.712  1.00  0.00     0.008 A 
ENDBRANCH   6  25
BRANCH   5  31
HETATM   31  C   UNL     1      19.613  47.989  47.888  1.00  0.00     0.255 C 
HETATM   32  N   UNL     1      18.704  48.582  48.724  1.00  0.00    -0.321 N 
HETATM   33  H   UNL     1      18.569  48.218  49.659  1.00  0.00     0.169 HD
HETATM   34  O   UNL     1      19.785  48.263  46.703  1.00  0.00    -0.268 OA
BRANCH  32  35
HETATM   35  C   UNL     1      17.946  49.750  48.446  1.00  0.00     0.068 A 
HETATM   36  C   UNL     1      16.629  49.578  47.974  1.00  0.00     0.095 A 
HETATM   37  C   UNL     1      15.824  50.699  47.735  1.00  0.00     0.039 A 
HETATM   38  C   UNL     1      16.321  51.985  47.951  1.00  0.00     0.003 A 
HETATM   39  C   UNL     1      17.621  52.160  48.408  1.00  0.00     0.002 A 
HETATM   40  C   UNL     1      18.428  51.048  48.656  1.00  0.00     0.032 A 
BRANCH  36  41
HETATM   41  O   UNL     1      16.227  48.274  47.793  1.00  0.00    -0.354 OA
HETATM   42  C   UNL     1      15.312  48.043  46.727  1.00  0.00     0.210 C 
ENDBRANCH  36  41
ENDBRANCH  32  35
ENDBRANCH   5  31
TORSDOF 9
ENDMDL
MODEL 9
REMARK VINA RESULT:      -8.6      3.120     10.654
REMARK  9 active torsions:
REMARK  status: ('A' for Active; 'I' for Inactive)
REMARK    1  A    between atoms: C_2  and  C_3 
REMARK    2  A    between atoms: C_6  and  N_7 
REMARK       I    between atoms: N_7  and  C_8 
REMARK    3  A    between atoms: C_8  and  C_9 
REMARK    4  A    between atoms: C_9  and  S_10 
REMARK    5  A    between atoms: S_10  and  C_11 
REMARK    6  A    between atoms: C_15  and  C_16 
REMARK       I    between atoms: C_16  and  N_17 
REMARK    7  A    between atoms: N_17  and  C_18 
REMARK    8  A    between atoms: C_19  and  O_20 
REMARK    9  A    between atoms: C_27  and  C_28 
ROOT
HETATM    1  C   UNL     1      23.342  44.358  47.964  1.00  0.00     0.087 C 
HETATM    2  N   UNL     1      23.810  45.466  48.657  1.00  0.00    -0.353 N 
HETATM    3  C   UNL     1      23.166  46.696  48.694  1.00  0.00     0.019 C 
HETATM    4  C   UNL     1      23.676  47.675  49.725  1.00  0.00     0.069 C 
HETATM    5  C   UNL     1      22.129  46.935  47.860  1.00  0.00     0.046 C 
HETATM    6  C   UNL     1      21.802  45.944  46.744  1.00  0.00     0.104 C 
HETATM    7  C   UNL     1      22.446  44.563  46.962  1.00  0.00     0.055 C 
HETATM    8  C   UNL     1      22.129  43.485  45.939  1.00  0.00     0.019 C 
HETATM    9  N   UNL     1      21.866  42.591  45.088  1.00  0.00    -0.096 N 
HETATM   10  H   UNL     1      24.425  45.293  49.446  1.00  0.00     0.166 HD
ENDROOT
BRANCH   1  11
HETATM   11  S   UNL     1      23.752  42.698  48.384  1.00  0.00    -0.102 SA
BRANCH  11  12
HETATM   12  C   UNL     1      23.719  42.581  50.183  1.00  0.00     0.184 C 
BRANCH  12  13
HETATM   13  C   UNL     1      24.613  43.517  50.993  1.00  0.00     0.231 C 
HETATM   14  N   UNL     1      25.971  43.284  50.937  1.00  0.00    -0.327 N 
HETATM   15  H   UNL     1      26.291  42.658  50.205  1.00  0.00     0.169 HD
HETATM   16  O   UNL     1      24.073  44.360  51.709  1.00  0.00    -0.272 OA
BRANCH  14  17
HETATM   17  C   UNL     1      26.931  43.628  51.917  1.00  0.00     0.034 A 
HETATM   18  C   UNL     1      26.916  44.824  52.638  1.00  0.00     0.030 A 
HETATM   19  C   UNL     1      27.768  45.006  53.735  1.00  0.00     0.009 A 
HETATM   20  C   UNL     1      28.653  43.996  54.128  1.00  0.00    -0.058 A 
HETATM   21  C   UNL     1      28.712  42.825  53.367  1.00  0.00     0.009 A 
HETATM   22  C   UNL     1      27.869  42.650  52.264  1.00  0.00     0.030 A 
BRANCH  20  23
HETATM   23  C   UNL     1      29.456  44.132  55.396  1.00  0.00     0.034 C 
HETATM   24  C   UNL     1      30.749  43.327  55.325  1.00  0.00     0.010 C 
ENDBRANCH  20  23
ENDBRANCH  14  17
ENDBRANCH  12  13
ENDBRANCH  11  12
ENDBRANCH   1  11
BRANCH   6  25
HETATM   25  C   UNL     1      20.307  45.816  46.455  1.00  0.00    -0.044 A 
HETATM   26  C   UNL     1      19.752  46.484  45.348  1.00  0.00     0.008 A 
HETATM   27  C   UNL     1      18.387  46.402  45.079  1.00  0.00     0.001 A 
HETATM   28  C   UNL     1      17.558  45.652  45.908  1.00  0.00     0.000 A 
HETATM   29  C   UNL     1      18.093  44.978  47.003  1.00  0.00     0.001 A 
HETATM   30  C   UNL     1      19.460  45.054  47.275  1.00  0.00     0.008 A 
ENDBRANCH   6  25
BRANCH   5  31
HETATM   31  C   UNL     1      21.158  47.996  48.269  1.00  0.00     0.255 C 
HETATM   32  N   UNL     1      21.166  49.138  47.511  1.00  0.00    -0.321 N 
HETATM   33  H   UNL     1      21.894  49.278  46.821  1.00  0.00     0.169 HD
HETATM   34  O   UNL     1      20.403  47.763  49.209  1.00  0.00    -0.268 OA
BRANCH  32  35
HETATM   35  C   UNL     1      20.183  50.162  47.527  1.00  0.00     0.068 A 
HETATM   36  C   UNL     1      20.390  51.252  48.397  1.00  0.00     0.095 A 
HETATM   37  C   UNL     1      19.474  52.313  48.411  1.00  0.00     0.039 A 
HETATM   38  C   UNL     1      18.355  52.292  47.578  1.00  0.00     0.003 A 
HETATM   39  C   UNL     1      18.143  51.216  46.726  1.00  0.00     0.002 A 
HETATM   40  C   UNL     1      19.053  50.158  46.699  1.00  0.00     0.032 A 
BRANCH  36  41
HETATM   41  O   UNL     1      21.521  51.185  49.178  1.00  0.00    -0.354 OA
HETATM   42  C   UNL     1      21.311  50.960  50.568  1.00  0.00     0.210 C 
ENDBRANCH  36  41
ENDBRANCH  32  35
ENDBRANCH   5  31
TORSDOF 9
ENDMDL
MODEL 10
REMARK VINA RESULT:      -8.5      3.911     12.739
REMARK  9 active torsions:
REMARK  status: ('A' for Active; 'I' for Inactive)
REMARK    1  A    between atoms: C_2  and  C_3 
REMARK    2  A    between atoms: C_6  and  N_7 
REMARK       I    between atoms: N_7  and  C_8 
REMARK    3  A    between atoms: C_8  and  C_9 
REMARK    4  A    between atoms: C_9  and  S_10 
REMARK    5  A    between atoms: S_10  and  C_11 
REMARK    6  A    between atoms: C_15  and  C_16 
REMARK       I    between atoms: C_16  and  N_17 
REMARK    7  A    between atoms: N_17  and  C_18 
REMARK    8  A    between atoms: C_19  and  O_20 
REMARK    9  A    between atoms: C_27  and  C_28 
ROOT
HETATM    1  C   UNL     1      19.266  47.261  47.940  1.00  0.00     0.087 C 
HETATM    2  N   UNL     1      18.942  46.935  46.630  1.00  0.00    -0.353 N 
HETATM    3  C   UNL     1      18.089  47.679  45.827  1.00  0.00     0.019 C 
HETATM    4  C   UNL     1      18.091  47.324  44.358  1.00  0.00     0.069 C 
HETATM    5  C   UNL     1      17.350  48.672  46.372  1.00  0.00     0.046 C 
HETATM    6  C   UNL     1      17.296  48.838  47.889  1.00  0.00     0.104 C 
HETATM    7  C   UNL     1      18.435  48.099  48.614  1.00  0.00     0.055 C 
HETATM    8  C   UNL     1      18.507  48.255  50.124  1.00  0.00     0.019 C 
HETATM    9  N   UNL     1      18.565  48.384  51.378  1.00  0.00    -0.096 N 
HETATM   10  H   UNL     1      19.607  46.364  46.118  1.00  0.00     0.166 HD
ENDROOT
BRANCH   1  11
HETATM   11  S   UNL     1      20.750  46.745  48.737  1.00  0.00    -0.102 SA
BRANCH  11  12
HETATM   12  C   UNL     1      21.939  48.089  48.568  1.00  0.00     0.184 C 
BRANCH  12  13
HETATM   13  C   UNL     1      23.233  48.026  49.375  1.00  0.00     0.231 C 
HETATM   14  N   UNL     1      23.773  46.775  49.589  1.00  0.00    -0.327 N 
HETATM   15  H   UNL     1      23.400  46.020  49.022  1.00  0.00     0.169 HD
HETATM   16  O   UNL     1      23.668  49.071  49.858  1.00  0.00    -0.272 OA
BRANCH  14  17
HETATM   17  C   UNL     1      24.611  46.385  50.659  1.00  0.00     0.034 A 
HETATM   18  C   UNL     1      25.533  47.232  51.277  1.00  0.00     0.030 A 
HETATM   19  C   UNL     1      26.175  46.846  52.461  1.00  0.00     0.009 A 
HETATM   20  C   UNL     1      25.908  45.605  53.047  1.00  0.00    -0.058 A 
HETATM   21  C   UNL     1      25.033  44.731  52.393  1.00  0.00     0.009 A 
HETATM   22  C   UNL     1      24.403  45.113  51.204  1.00  0.00     0.030 A 
BRANCH  20  23
HETATM   23  C   UNL     1      26.479  45.255  54.397  1.00  0.00     0.034 C 
HETATM   24  C   UNL     1      28.004  45.270  54.378  1.00  0.00     0.010 C 
ENDBRANCH  20  23
ENDBRANCH  14  17
ENDBRANCH  12  13
ENDBRANCH  11  12
ENDBRANCH   1  11
BRANCH   6  25
HETATM   25  C   UNL     1      17.204  50.294  48.345  1.00  0.00    -0.044 A 
HETATM   26  C   UNL     1      18.368  51.083  48.395  1.00  0.00     0.008 A 
HETATM   27  C   UNL     1      18.311  52.406  48.832  1.00  0.00     0.001 A 
HETATM   28  C   UNL     1      17.095  52.960  49.220  1.00  0.00     0.000 A 
HETATM   29  C   UNL     1      15.933  52.194  49.168  1.00  0.00     0.001 A 
HETATM   30  C   UNL     1      15.983  50.871  48.729  1.00  0.00     0.008 A 
ENDBRANCH   6  25
BRANCH   5  31
HETATM   31  C   UNL     1      16.880  49.753  45.452  1.00  0.00     0.255 C 
HETATM   32  N   UNL     1      17.836  50.642  45.036  1.00  0.00    -0.321 N 
HETATM   33  H   UNL     1      18.756  50.625  45.459  1.00  0.00     0.169 HD
HETATM   34  O   UNL     1      15.703  49.747  45.101  1.00  0.00    -0.268 OA
BRANCH  32  35
HETATM   35  C   UNL     1      17.707  51.579  43.977  1.00  0.00     0.068 A 
HETATM   36  C   UNL     1      17.080  52.807  44.265  1.00  0.00     0.095 A 
HETATM   37  C   UNL     1      16.974  53.785  43.266  1.00  0.00     0.039 A 
HETATM   38  C   UNL     1      17.476  53.546  41.987  1.00  0.00     0.003 A 
HETATM   39  C   UNL     1      18.087  52.332  41.696  1.00  0.00     0.002 A 
HETATM   40  C   UNL     1      18.203  51.355  42.686  1.00  0.00     0.032 A 
BRANCH  36  41
HETATM   41  O   UNL     1      16.618  52.954  45.554  1.00  0.00    -0.354 OA
HETATM   42  C   UNL     1      15.227  53.222  45.695  1.00  0.00     0.210 C 
ENDBRANCH  36  41
ENDBRANCH  32  35
ENDBRANCH   5  31
TORSDOF 9
ENDMDL
