MODEL 1
REMARK VINA RESULT:      -8.7      0.000      0.000
REMARK  5 active torsions:
REMARK  status: ('A' for Active; 'I' for Inactive)
REMARK    1  A    between atoms: C_3  and  N_4 
REMARK       I    between atoms: N_4  and  C_5 
REMARK    2  A    between atoms: C_5  and  C_6 
REMARK    3  A    between atoms: C_6  and  N_7 
REMARK    4  A    between atoms: C_6  and  C_16 
REMARK       I    between atoms: N_7  and  C_8 
REMARK    5  A    between atoms: C_8  and  C_9 
ROOT
HETATM    1  C   UNL     1      26.580  43.567  52.115  1.00  0.00     0.210 C 
ENDROOT
BRANCH   1   2
HETATM    2  C   UNL     1      27.136  43.661  53.574  1.00  0.00     0.249 C 
HETATM    3  N   UNL     1      28.363  44.295  53.675  1.00  0.00    -0.324 N 
HETATM    4  H   UNL     1      28.668  44.730  52.804  1.00  0.00     0.169 HD
HETATM    5  O   UNL     1      26.413  43.348  54.520  1.00  0.00    -0.270 OA
BRANCH   3   6
HETATM    6  C   UNL     1      29.013  44.755  54.847  1.00  0.00     0.046 A 
HETATM    7  C   UNL     1      28.620  45.894  55.582  1.00  0.00    -0.035 A 
HETATM    8  C   UNL     1      27.398  46.722  55.295  1.00  0.00     0.050 C 
HETATM    9  C   UNL     1      29.383  46.286  56.701  1.00  0.00     0.009 A 
HETATM   10  C   UNL     1      30.472  45.538  57.134  1.00  0.00     0.001 A 
HETATM   11  C   UNL     1      30.821  44.382  56.455  1.00  0.00     0.009 A 
HETATM   12  C   UNL     1      30.108  43.978  55.313  1.00  0.00    -0.035 A 
HETATM   13  C   UNL     1      30.569  42.722  54.614  1.00  0.00     0.050 C 
ENDBRANCH   3   6
ENDBRANCH   1   2
BRANCH   1  14
HETATM   14  N   UNL     1      27.279  42.594  51.280  1.00  0.00    -0.338 N 
HETATM   15  C   UNL     1      26.709  41.572  50.562  1.00  0.00     0.273 C 
HETATM   16  O   UNL     1      25.497  41.416  50.452  1.00  0.00    -0.266 OA
HETATM   17  H   UNL     1      28.294  42.562  51.321  1.00  0.00     0.164 HD
BRANCH  15  18
HETATM   18  C   UNL     1      27.696  40.673  49.947  1.00  0.00     0.145 A 
HETATM   19  N   UNL     1      28.538  39.923  50.691  1.00  0.00    -0.170 NA
HETATM   20  N   UNL     1      29.258  39.241  49.782  1.00  0.00    -0.289 N 
HETATM   21  H   UNL     1      29.969  38.597  50.114  1.00  0.00     0.188 HD
HETATM   22  C   UNL     1      28.916  39.521  48.494  1.00  0.00     0.112 A 
HETATM   23  C   UNL     1      27.904  40.447  48.563  1.00  0.00     0.058 A 
ENDBRANCH  15  18
ENDBRANCH   1  14
BRANCH   1  24
HETATM   24  C   UNL     1      26.362  44.944  51.480  1.00  0.00    -0.026 A 
HETATM   25  C   UNL     1      26.880  45.292  50.222  1.00  0.00     0.010 A 
HETATM   26  C   UNL     1      26.657  46.560  49.674  1.00  0.00     0.001 A 
HETATM   27  C   UNL     1      25.887  47.495  50.360  1.00  0.00     0.000 A 
HETATM   28  C   UNL     1      25.329  47.160  51.588  1.00  0.00     0.001 A 
HETATM   29  C   UNL     1      25.557  45.895  52.137  1.00  0.00     0.010 A 
ENDBRANCH   1  24
TORSDOF 5
ENDMDL
MODEL 2
REMARK VINA RESULT:      -8.5      1.122      2.052
REMARK  5 active torsions:
REMARK  status: ('A' for Active; 'I' for Inactive)
REMARK    1  A    between atoms: C_3  and  N_4 
REMARK       I    between atoms: N_4  and  C_5 
REMARK    2  A    between atoms: C_5  and  C_6 
REMARK    3  A    between atoms: C_6  and  N_7 
REMARK    4  A    between atoms: C_6  and  C_16 
REMARK       I    between atoms: N_7  and  C_8 
REMARK    5  A    between atoms: C_8  and  C_9 
ROOT
HETATM    1  C   UNL     1      26.035  43.499  52.352  1.00  0.00     0.210 C 
ENDROOT
BRANCH   1   2
HETATM    2  C   UNL     1      26.858  43.524  53.682  1.00  0.00     0.249 C 
HETATM    3  N   UNL     1      28.027  44.264  53.613  1.00  0.00    -0.324 N 
HETATM    4  H   UNL     1      28.118  44.799  52.749  1.00  0.00     0.169 HD
HETATM    5  O   UNL     1      26.364  43.062  54.711  1.00  0.00    -0.270 OA
BRANCH   3   6
HETATM    6  C   UNL     1      28.856  44.685  54.682  1.00  0.00     0.046 A 
HETATM    7  C   UNL     1      30.002  43.989  55.124  1.00  0.00    -0.035 A 
HETATM    8  C   UNL     1      30.571  42.765  54.462  1.00  0.00     0.050 C 
HETATM    9  C   UNL     1      30.714  44.477  56.239  1.00  0.00     0.009 A 
HETATM   10  C   UNL     1      30.351  45.661  56.869  1.00  0.00     0.001 A 
HETATM   11  C   UNL     1      29.266  46.383  56.397  1.00  0.00     0.009 A 
HETATM   12  C   UNL     1      28.508  45.911  55.312  1.00  0.00    -0.035 A 
HETATM   13  C   UNL     1      27.326  46.741  54.876  1.00  0.00     0.050 C 
ENDBRANCH   3   6
ENDBRANCH   1   2
BRANCH   1  14
HETATM   14  N   UNL     1      26.216  42.280  51.569  1.00  0.00    -0.338 N 
HETATM   15  C   UNL     1      27.409  41.679  51.253  1.00  0.00     0.273 C 
HETATM   16  O   UNL     1      28.492  42.052  51.694  1.00  0.00    -0.266 OA
HETATM   17  H   UNL     1      25.410  41.891  51.087  1.00  0.00     0.164 HD
BRANCH  15  18
HETATM   18  C   UNL     1      27.263  40.551  50.322  1.00  0.00     0.145 A 
HETATM   19  N   UNL     1      26.149  39.788  50.296  1.00  0.00    -0.170 NA
HETATM   20  N   UNL     1      26.390  38.891  49.323  1.00  0.00    -0.289 N 
HETATM   21  H   UNL     1      25.677  38.199  49.116  1.00  0.00     0.188 HD
HETATM   22  C   UNL     1      27.605  39.046  48.727  1.00  0.00     0.112 A 
HETATM   23  C   UNL     1      28.199  40.116  49.350  1.00  0.00     0.058 A 
ENDBRANCH  15  18
ENDBRANCH   1  14
BRANCH   1  24
HETATM   24  C   UNL     1      26.148  44.810  51.567  1.00  0.00    -0.026 A 
HETATM   25  C   UNL     1      26.907  44.928  50.391  1.00  0.00     0.010 A 
HETATM   26  C   UNL     1      26.984  46.143  49.700  1.00  0.00     0.001 A 
HETATM   27  C   UNL     1      26.281  47.254  50.155  1.00  0.00     0.000 A 
HETATM   28  C   UNL     1      25.490  47.151  51.294  1.00  0.00     0.001 A 
HETATM   29  C   UNL     1      25.418  45.939  51.986  1.00  0.00     0.010 A 
ENDBRANCH   1  24
TORSDOF 5
ENDMDL
MODEL 3
REMARK VINA RESULT:      -8.4      2.181      4.895
REMARK  5 active torsions:
REMARK  status: ('A' for Active; 'I' for Inactive)
REMARK    1  A    between atoms: C_3  and  N_4 
REMARK       I    between atoms: N_4  and  C_5 
REMARK    2  A    between atoms: C_5  and  C_6 
REMARK    3  A    between atoms: C_6  and  N_7 
REMARK    4  A    between atoms: C_6  and  C_16 
REMARK       I    between atoms: N_7  and  C_8 
REMARK    5  A    between atoms: C_8  and  C_9 
ROOT
HETATM    1  C   UNL     1      27.250  43.877  51.570  1.00  0.00     0.210 C 
ENDROOT
BRANCH   1   2
HETATM    2  C   UNL     1      27.440  43.923  53.122  1.00  0.00     0.249 C 
HETATM    3  N   UNL     1      28.550  44.640  53.538  1.00  0.00    -0.324 N 
HETATM    4  H   UNL     1      29.010  45.150  52.783  1.00  0.00     0.169 HD
HETATM    5  O   UNL     1      26.547  43.499  53.856  1.00  0.00    -0.270 OA
BRANCH   3   6
HETATM    6  C   UNL     1      28.865  45.075  54.849  1.00  0.00     0.046 A 
HETATM    7  C   UNL     1      28.196  46.116  55.527  1.00  0.00    -0.035 A 
HETATM    8  C   UNL     1      26.987  46.842  55.005  1.00  0.00     0.050 C 
HETATM    9  C   UNL     1      28.641  46.498  56.809  1.00  0.00     0.009 A 
HETATM   10  C   UNL     1      29.680  45.829  57.445  1.00  0.00     0.001 A 
HETATM   11  C   UNL     1      30.296  44.762  56.811  1.00  0.00     0.009 A 
HETATM   12  C   UNL     1      29.907  44.375  55.517  1.00  0.00    -0.035 A 
HETATM   13  C   UNL     1      30.646  43.221  54.885  1.00  0.00     0.050 C 
ENDBRANCH   3   6
ENDBRANCH   1   2
BRANCH   1  14
HETATM   14  N   UNL     1      26.287  44.852  51.066  1.00  0.00    -0.338 N 
HETATM   15  C   UNL     1      26.466  45.709  50.009  1.00  0.00     0.273 C 
HETATM   16  O   UNL     1      27.450  45.683  49.276  1.00  0.00    -0.266 OA
HETATM   17  H   UNL     1      25.447  45.029  51.611  1.00  0.00     0.164 HD
BRANCH  15  18
HETATM   18  C   UNL     1      25.368  46.673  49.849  1.00  0.00     0.145 A 
HETATM   19  N   UNL     1      24.075  46.308  49.985  1.00  0.00    -0.170 NA
HETATM   20  N   UNL     1      23.391  47.449  49.783  1.00  0.00    -0.289 N 
HETATM   21  H   UNL     1      22.377  47.421  49.839  1.00  0.00     0.188 HD
HETATM   22  C   UNL     1      24.186  48.523  49.524  1.00  0.00     0.112 A 
HETATM   23  C   UNL     1      25.478  48.057  49.560  1.00  0.00     0.058 A 
ENDBRANCH  15  18
ENDBRANCH   1  14
BRANCH   1  24
HETATM   24  C   UNL     1      27.080  42.450  51.042  1.00  0.00    -0.026 A 
HETATM   25  C   UNL     1      25.895  41.997  50.441  1.00  0.00     0.010 A 
HETATM   26  C   UNL     1      25.779  40.684  49.968  1.00  0.00     0.001 A 
HETATM   27  C   UNL     1      26.857  39.809  50.060  1.00  0.00     0.000 A 
HETATM   28  C   UNL     1      28.054  40.246  50.614  1.00  0.00     0.001 A 
HETATM   29  C   UNL     1      28.167  41.554  51.091  1.00  0.00     0.010 A 
ENDBRANCH   1  24
TORSDOF 5
ENDMDL
MODEL 4
REMARK VINA RESULT:      -8.3      2.082      5.140
REMARK  5 active torsions:
REMARK  status: ('A' for Active; 'I' for Inactive)
REMARK    1  A    between atoms: C_3  and  N_4 
REMARK       I    between atoms: N_4  and  C_5 
REMARK    2  A    between atoms: C_5  and  C_6 
REMARK    3  A    between atoms: C_6  and  N_7 
REMARK    4  A    between atoms: C_6  and  C_16 
REMARK       I    between atoms: N_7  and  C_8 
REMARK    5  A    between atoms: C_8  and  C_9 
ROOT
HETATM    1  C   UNL     1      27.378  43.513  51.347  1.00  0.00     0.210 C 
ENDROOT
BRANCH   1   2
HETATM    2  C   UNL     1      27.619  43.569  52.891  1.00  0.00     0.249 C 
HETATM    3  N   UNL     1      28.578  44.488  53.285  1.00  0.00    -0.324 N 
HETATM    4  H   UNL     1      28.894  45.093  52.527  1.00  0.00     0.169 HD
HETATM    5  O   UNL     1      26.860  42.960  53.646  1.00  0.00    -0.270 OA
BRANCH   3   6
HETATM    6  C   UNL     1      28.853  44.954  54.594  1.00  0.00     0.046 A 
HETATM    7  C   UNL     1      29.839  44.408  55.444  1.00  0.00    -0.035 A 
HETATM    8  C   UNL     1      30.811  43.331  55.050  1.00  0.00     0.050 C 
HETATM    9  C   UNL     1      29.979  44.920  56.751  1.00  0.00     0.009 A 
HETATM   10  C   UNL     1      29.213  45.991  57.195  1.00  0.00     0.001 A 
HETATM   11  C   UNL     1      28.289  46.574  56.341  1.00  0.00     0.009 A 
HETATM   12  C   UNL     1      28.094  46.068  55.045  1.00  0.00    -0.035 A 
HETATM   13  C   UNL     1      27.050  46.741  54.187  1.00  0.00     0.050 C 
ENDBRANCH   3   6
ENDBRANCH   1   2
BRANCH   1  14
HETATM   14  N   UNL     1      26.343  44.431  50.878  1.00  0.00    -0.338 N 
HETATM   15  C   UNL     1      26.494  45.429  49.949  1.00  0.00     0.273 C 
HETATM   16  O   UNL     1      27.524  45.606  49.306  1.00  0.00    -0.266 OA
HETATM   17  H   UNL     1      25.451  44.443  51.365  1.00  0.00     0.164 HD
BRANCH  15  18
HETATM   18  C   UNL     1      25.301  46.277  49.808  1.00  0.00     0.145 A 
HETATM   19  N   UNL     1      24.064  45.751  49.681  1.00  0.00    -0.170 NA
HETATM   20  N   UNL     1      23.259  46.826  49.593  1.00  0.00    -0.289 N 
HETATM   21  H   UNL     1      22.260  46.675  49.492  1.00  0.00     0.188 HD
HETATM   22  C   UNL     1      23.925  48.012  49.658  1.00  0.00     0.112 A 
HETATM   23  C   UNL     1      25.254  47.695  49.799  1.00  0.00     0.058 A 
ENDBRANCH  15  18
ENDBRANCH   1  14
BRANCH   1  24
HETATM   24  C   UNL     1      27.274  42.079  50.821  1.00  0.00    -0.026 A 
HETATM   25  C   UNL     1      28.308  41.139  50.962  1.00  0.00     0.010 A 
HETATM   26  C   UNL     1      28.174  39.837  50.469  1.00  0.00     0.001 A 
HETATM   27  C   UNL     1      26.992  39.439  49.852  1.00  0.00     0.000 A 
HETATM   28  C   UNL     1      25.939  40.338  49.737  1.00  0.00     0.001 A 
HETATM   29  C   UNL     1      26.075  41.640  50.224  1.00  0.00     0.010 A 
ENDBRANCH   1  24
TORSDOF 5
ENDMDL
MODEL 5
REMARK VINA RESULT:      -8.1      2.040      5.726
REMARK  5 active torsions:
REMARK  status: ('A' for Active; 'I' for Inactive)
REMARK    1  A    between atoms: C_3  and  N_4 
REMARK       I    between atoms: N_4  and  C_5 
REMARK    2  A    between atoms: C_5  and  C_6 
REMARK    3  A    between atoms: C_6  and  N_7 
REMARK    4  A    between atoms: C_6  and  C_16 
REMARK       I    between atoms: N_7  and  C_8 
REMARK    5  A    between atoms: C_8  and  C_9 
ROOT
HETATM    1  C   UNL     1      27.936  43.174  51.483  1.00  0.00     0.210 C 
ENDROOT
BRANCH   1   2
HETATM    2  C   UNL     1      26.567  43.926  51.404  1.00  0.00     0.249 C 
HETATM    3  N   UNL     1      26.450  44.783  50.323  1.00  0.00    -0.324 N 
HETATM    4  H   UNL     1      27.218  44.703  49.657  1.00  0.00     0.169 HD
HETATM    5  O   UNL     1      25.651  43.600  52.160  1.00  0.00    -0.270 OA
BRANCH   3   6
HETATM    6  C   UNL     1      25.279  45.412  49.832  1.00  0.00     0.046 A 
HETATM    7  C   UNL     1      24.304  44.773  49.037  1.00  0.00    -0.035 A 
HETATM    8  C   UNL     1      24.306  43.311  48.686  1.00  0.00     0.050 C 
HETATM    9  C   UNL     1      23.209  45.521  48.559  1.00  0.00     0.009 A 
HETATM   10  C   UNL     1      23.036  46.856  48.907  1.00  0.00     0.001 A 
HETATM   11  C   UNL     1      23.957  47.470  49.742  1.00  0.00     0.009 A 
HETATM   12  C   UNL     1      25.081  46.768  50.209  1.00  0.00    -0.035 A 
HETATM   13  C   UNL     1      26.050  47.517  51.090  1.00  0.00     0.050 C 
ENDBRANCH   3   6
ENDBRANCH   1   2
BRANCH   1  14
HETATM   14  N   UNL     1      27.863  41.773  51.077  1.00  0.00    -0.338 N 
HETATM   15  C   UNL     1      27.602  41.297  49.817  1.00  0.00     0.273 C 
HETATM   16  O   UNL     1      27.497  42.018  48.830  1.00  0.00    -0.266 OA
HETATM   17  H   UNL     1      27.871  41.059  51.801  1.00  0.00     0.164 HD
BRANCH  15  18
HETATM   18  C   UNL     1      27.445  39.836  49.767  1.00  0.00     0.145 A 
HETATM   19  N   UNL     1      26.289  39.232  50.116  1.00  0.00    -0.170 NA
HETATM   20  N   UNL     1      26.534  37.923  49.926  1.00  0.00    -0.289 N 
HETATM   21  H   UNL     1      25.793  37.258  50.125  1.00  0.00     0.188 HD
HETATM   22  C   UNL     1      27.792  37.664  49.472  1.00  0.00     0.112 A 
HETATM   23  C   UNL     1      28.412  38.884  49.356  1.00  0.00     0.058 A 
ENDBRANCH  15  18
ENDBRANCH   1  14
BRANCH   1  24
HETATM   24  C   UNL     1      28.678  43.442  52.796  1.00  0.00    -0.026 A 
HETATM   25  C   UNL     1      29.853  42.763  53.158  1.00  0.00     0.010 A 
HETATM   26  C   UNL     1      30.503  43.038  54.366  1.00  0.00     0.001 A 
HETATM   27  C   UNL     1      30.009  44.018  55.221  1.00  0.00     0.000 A 
HETATM   28  C   UNL     1      28.872  44.733  54.865  1.00  0.00     0.001 A 
HETATM   29  C   UNL     1      28.219  44.454  53.662  1.00  0.00     0.010 A 
ENDBRANCH   1  24
TORSDOF 5
ENDMDL
MODEL 6
REMARK VINA RESULT:      -8.0      2.774      6.722
REMARK  5 active torsions:
REMARK  status: ('A' for Active; 'I' for Inactive)
REMARK    1  A    between atoms: C_3  and  N_4 
REMARK       I    between atoms: N_4  and  C_5 
REMARK    2  A    between atoms: C_5  and  C_6 
REMARK    3  A    between atoms: C_6  and  N_7 
REMARK    4  A    between atoms: C_6  and  C_16 
REMARK       I    between atoms: N_7  and  C_8 
REMARK    5  A    between atoms: C_8  and  C_9 
ROOT
HETATM    1  C   UNL     1      26.219  45.237  52.385  1.00  0.00     0.210 C 
ENDROOT
BRANCH   1   2
HETATM    2  C   UNL     1      26.977  44.129  51.582  1.00  0.00     0.249 C 
HETATM    3  N   UNL     1      26.554  42.839  51.854  1.00  0.00    -0.324 N 
HETATM    4  H   UNL     1      25.718  42.801  52.437  1.00  0.00     0.169 HD
HETATM    5  O   UNL     1      27.740  44.454  50.671  1.00  0.00    -0.270 OA
BRANCH   3   6
HETATM    6  C   UNL     1      26.852  41.654  51.136  1.00  0.00     0.046 A 
HETATM    7  C   UNL     1      27.981  40.840  51.375  1.00  0.00    -0.035 A 
HETATM    8  C   UNL     1      28.969  41.047  52.489  1.00  0.00     0.050 C 
HETATM    9  C   UNL     1      28.202  39.715  50.554  1.00  0.00     0.009 A 
HETATM   10  C   UNL     1      27.300  39.356  49.559  1.00  0.00     0.001 A 
HETATM   11  C   UNL     1      26.156  40.114  49.365  1.00  0.00     0.009 A 
HETATM   12  C   UNL     1      25.919  41.263  50.138  1.00  0.00    -0.035 A 
HETATM   13  C   UNL     1      24.664  42.050  49.846  1.00  0.00     0.050 C 
ENDBRANCH   3   6
ENDBRANCH   1   2
BRANCH   1  14
HETATM   14  N   UNL     1      25.702  46.319  51.552  1.00  0.00    -0.338 N 
HETATM   15  C   UNL     1      24.649  46.246  50.675  1.00  0.00     0.273 C 
HETATM   16  O   UNL     1      23.929  45.259  50.562  1.00  0.00    -0.266 OA
HETATM   17  H   UNL     1      26.236  47.182  51.495  1.00  0.00     0.164 HD
BRANCH  15  18
HETATM   18  C   UNL     1      24.474  47.466  49.873  1.00  0.00     0.145 A 
HETATM   19  N   UNL     1      25.476  48.355  49.702  1.00  0.00    -0.170 NA
HETATM   20  N   UNL     1      24.939  49.304  48.913  1.00  0.00    -0.289 N 
HETATM   21  H   UNL     1      25.519  50.092  48.643  1.00  0.00     0.188 HD
HETATM   22  C   UNL     1      23.643  49.062  48.574  1.00  0.00     0.112 A 
HETATM   23  C   UNL     1      23.308  47.875  49.179  1.00  0.00     0.058 A 
ENDBRANCH  15  18
ENDBRANCH   1  14
BRANCH   1  24
HETATM   24  C   UNL     1      26.980  45.677  53.639  1.00  0.00    -0.026 A 
HETATM   25  C   UNL     1      27.942  44.870  54.268  1.00  0.00     0.010 A 
HETATM   26  C   UNL     1      28.618  45.309  55.412  1.00  0.00     0.001 A 
HETATM   27  C   UNL     1      28.367  46.575  55.932  1.00  0.00     0.000 A 
HETATM   28  C   UNL     1      27.449  47.408  55.304  1.00  0.00     0.001 A 
HETATM   29  C   UNL     1      26.771  46.967  54.165  1.00  0.00     0.010 A 
ENDBRANCH   1  24
TORSDOF 5
ENDMDL
MODEL 7
REMARK VINA RESULT:      -7.8      6.426      9.756
REMARK  5 active torsions:
REMARK  status: ('A' for Active; 'I' for Inactive)
REMARK    1  A    between atoms: C_3  and  N_4 
REMARK       I    between atoms: N_4  and  C_5 
REMARK    2  A    between atoms: C_5  and  C_6 
REMARK    3  A    between atoms: C_6  and  N_7 
REMARK    4  A    between atoms: C_6  and  C_16 
REMARK       I    between atoms: N_7  and  C_8 
REMARK    5  A    between atoms: C_8  and  C_9 
ROOT
HETATM    1  C   UNL     1      22.615  46.669  48.882  1.00  0.00     0.210 C 
ENDROOT
BRANCH   1   2
HETATM    2  C   UNL     1      21.340  47.556  48.697  1.00  0.00     0.249 C 
HETATM    3  N   UNL     1      21.261  48.628  49.570  1.00  0.00    -0.324 N 
HETATM    4  H   UNL     1      22.109  48.767  50.120  1.00  0.00     0.169 HD
HETATM    5  O   UNL     1      20.608  47.371  47.724  1.00  0.00    -0.270 OA
BRANCH   3   6
HETATM    6  C   UNL     1      20.385  49.740  49.508  1.00  0.00     0.046 A 
HETATM    7  C   UNL     1      19.135  49.808  50.160  1.00  0.00    -0.035 A 
HETATM    8  C   UNL     1      18.599  48.763  51.099  1.00  0.00     0.050 C 
HETATM    9  C   UNL     1      18.325  50.946  49.975  1.00  0.00     0.009 A 
HETATM   10  C   UNL     1      18.758  52.029  49.218  1.00  0.00     0.001 A 
HETATM   11  C   UNL     1      20.013  51.994  48.630  1.00  0.00     0.009 A 
HETATM   12  C   UNL     1      20.835  50.863  48.761  1.00  0.00    -0.035 A 
HETATM   13  C   UNL     1      22.174  50.893  48.067  1.00  0.00     0.050 C 
ENDBRANCH   3   6
ENDBRANCH   1   2
BRANCH   1  14
HETATM   14  N   UNL     1      23.870  47.403  48.739  1.00  0.00    -0.338 N 
HETATM   15  C   UNL     1      24.717  47.781  49.749  1.00  0.00     0.273 C 
HETATM   16  O   UNL     1      24.567  47.446  50.920  1.00  0.00    -0.266 OA
HETATM   17  H   UNL     1      24.096  47.800  47.831  1.00  0.00     0.164 HD
BRANCH  15  18
HETATM   18  C   UNL     1      25.819  48.641  49.293  1.00  0.00     0.145 A 
HETATM   19  N   UNL     1      25.602  49.722  48.512  1.00  0.00    -0.170 NA
HETATM   20  N   UNL     1      26.829  50.242  48.327  1.00  0.00    -0.289 N 
HETATM   21  H   UNL     1      26.918  51.080  47.761  1.00  0.00     0.188 HD
HETATM   22  C   UNL     1      27.817  49.544  48.952  1.00  0.00     0.112 A 
HETATM   23  C   UNL     1      27.197  48.498  49.591  1.00  0.00     0.058 A 
ENDBRANCH  15  18
ENDBRANCH   1  14
BRANCH   1  24
HETATM   24  C   UNL     1      22.531  45.351  48.107  1.00  0.00    -0.026 A 
HETATM   25  C   UNL     1      22.503  45.293  46.704  1.00  0.00     0.010 A 
HETATM   26  C   UNL     1      22.428  44.068  46.032  1.00  0.00     0.001 A 
HETATM   27  C   UNL     1      22.409  42.875  46.748  1.00  0.00     0.000 A 
HETATM   28  C   UNL     1      22.477  42.904  48.136  1.00  0.00     0.001 A 
HETATM   29  C   UNL     1      22.547  44.128  48.807  1.00  0.00     0.010 A 
ENDBRANCH   1  24
TORSDOF 5
ENDMDL
MODEL 8
REMARK VINA RESULT:      -7.8      7.300     11.118
REMARK  5 active torsions:
REMARK  status: ('A' for Active; 'I' for Inactive)
REMARK    1  A    between atoms: C_3  and  N_4 
REMARK       I    between atoms: N_4  and  C_5 
REMARK    2  A    between atoms: C_5  and  C_6 
REMARK    3  A    between atoms: C_6  and  N_7 
REMARK    4  A    between atoms: C_6  and  C_16 
REMARK       I    between atoms: N_7  and  C_8 
REMARK    5  A    between atoms: C_8  and  C_9 
ROOT
HETATM    1  C   UNL     1      21.612  48.890  47.926  1.00  0.00     0.210 C 
ENDROOT
BRANCH   1   2
HETATM    2  C   UNL     1      20.966  47.476  47.760  1.00  0.00     0.249 C 
HETATM    3  N   UNL     1      19.975  47.413  46.794  1.00  0.00    -0.324 N 
HETATM    4  H   UNL     1      19.900  48.263  46.235  1.00  0.00     0.169 HD
HETATM    5  O   UNL     1      21.466  46.508  48.334  1.00  0.00    -0.270 OA
BRANCH   3   6
HETATM    6  C   UNL     1      19.375  46.258  46.235  1.00  0.00     0.046 A 
HETATM    7  C   UNL     1      19.926  45.509  45.173  1.00  0.00    -0.035 A 
HETATM    8  C   UNL     1      21.273  45.759  44.554  1.00  0.00     0.050 C 
HETATM    9  C   UNL     1      19.205  44.410  44.662  1.00  0.00     0.009 A 
HETATM   10  C   UNL     1      17.998  44.011  45.223  1.00  0.00     0.001 A 
HETATM   11  C   UNL     1      17.486  44.703  46.309  1.00  0.00     0.009 A 
HETATM   12  C   UNL     1      18.156  45.826  46.824  1.00  0.00    -0.035 A 
HETATM   13  C   UNL     1      17.518  46.541  47.989  1.00  0.00     0.050 C 
ENDBRANCH   3   6
ENDBRANCH   1   2
BRANCH   1  14
HETATM   14  N   UNL     1      22.972  48.858  48.459  1.00  0.00    -0.338 N 
HETATM   15  C   UNL     1      24.029  49.633  48.054  1.00  0.00     0.273 C 
HETATM   16  O   UNL     1      23.927  50.547  47.241  1.00  0.00    -0.266 OA
HETATM   17  H   UNL     1      23.222  48.109  49.099  1.00  0.00     0.164 HD
BRANCH  15  18
HETATM   18  C   UNL     1      25.303  49.253  48.682  1.00  0.00     0.145 A 
HETATM   19  N   UNL     1      25.360  48.360  49.694  1.00  0.00    -0.170 NA
HETATM   20  N   UNL     1      26.672  48.272  49.978  1.00  0.00    -0.289 N 
HETATM   21  H   UNL     1      26.965  47.645  50.720  1.00  0.00     0.188 HD
HETATM   22  C   UNL     1      27.454  49.066  49.195  1.00  0.00     0.112 A 
HETATM   23  C   UNL     1      26.598  49.718  48.341  1.00  0.00     0.058 A 
ENDBRANCH  15  18
ENDBRANCH   1  14
BRANCH   1  24
HETATM   24  C   UNL     1      20.667  49.893  48.593  1.00  0.00    -0.026 A 
HETATM   25  C   UNL     1      20.469  51.195  48.104  1.00  0.00     0.010 A 
HETATM   26  C   UNL     1      19.594  52.082  48.741  1.00  0.00     0.001 A 
HETATM   27  C   UNL     1      18.877  51.675  49.862  1.00  0.00     0.000 A 
HETATM   28  C   UNL     1      19.024  50.379  50.341  1.00  0.00     0.001 A 
HETATM   29  C   UNL     1      19.902  49.496  49.708  1.00  0.00     0.010 A 
ENDBRANCH   1  24
TORSDOF 5
ENDMDL
MODEL 9
REMARK VINA RESULT:      -7.7      1.978      2.799
REMARK  5 active torsions:
REMARK  status: ('A' for Active; 'I' for Inactive)
REMARK    1  A    between atoms: C_3  and  N_4 
REMARK       I    between atoms: N_4  and  C_5 
REMARK    2  A    between atoms: C_5  and  C_6 
REMARK    3  A    between atoms: C_6  and  N_7 
REMARK    4  A    between atoms: C_6  and  C_16 
REMARK       I    between atoms: N_7  and  C_8 
REMARK    5  A    between atoms: C_8  and  C_9 
ROOT
HETATM    1  C   UNL     1      26.529  42.529  51.420  1.00  0.00     0.210 C 
ENDROOT
BRANCH   1   2
HETATM    2  C   UNL     1      27.464  43.606  52.063  1.00  0.00     0.249 C 
HETATM    3  N   UNL     1      27.360  43.700  53.441  1.00  0.00    -0.324 N 
HETATM    4  H   UNL     1      26.791  42.963  53.856  1.00  0.00     0.169 HD
HETATM    5  O   UNL     1      28.322  44.155  51.371  1.00  0.00    -0.270 OA
BRANCH   3   6
HETATM    6  C   UNL     1      28.222  44.382  54.334  1.00  0.00     0.046 A 
HETATM    7  C   UNL     1      29.502  43.925  54.714  1.00  0.00    -0.035 A 
HETATM    8  C   UNL     1      30.183  42.710  54.147  1.00  0.00     0.050 C 
HETATM    9  C   UNL     1      30.244  44.664  55.659  1.00  0.00     0.009 A 
HETATM   10  C   UNL     1      29.769  45.865  56.174  1.00  0.00     0.001 A 
HETATM   11  C   UNL     1      28.541  46.352  55.754  1.00  0.00     0.009 A 
HETATM   12  C   UNL     1      27.756  45.626  54.842  1.00  0.00    -0.035 A 
HETATM   13  C   UNL     1      26.419  46.211  54.456  1.00  0.00     0.050 C 
ENDBRANCH   3   6
ENDBRANCH   1   2
BRANCH   1  14
HETATM   14  N   UNL     1      27.245  41.387  50.858  1.00  0.00    -0.338 N 
HETATM   15  C   UNL     1      28.123  40.565  51.520  1.00  0.00     0.273 C 
HETATM   16  O   UNL     1      28.336  40.632  52.726  1.00  0.00    -0.266 OA
HETATM   17  H   UNL     1      27.214  41.244  49.853  1.00  0.00     0.164 HD
BRANCH  15  18
HETATM   18  C   UNL     1      28.795  39.601  50.636  1.00  0.00     0.145 A 
HETATM   19  N   UNL     1      29.586  38.620  51.122  1.00  0.00    -0.170 NA
HETATM   20  N   UNL     1      29.994  37.956  50.026  1.00  0.00    -0.289 N 
HETATM   21  H   UNL     1      30.610  37.158  50.146  1.00  0.00     0.188 HD
HETATM   22  C   UNL     1      29.500  38.465  48.864  1.00  0.00     0.112 A 
HETATM   23  C   UNL     1      28.715  39.535  49.222  1.00  0.00     0.058 A 
ENDBRANCH  15  18
ENDBRANCH   1  14
BRANCH   1  24
HETATM   24  C   UNL     1      25.459  43.146  50.515  1.00  0.00    -0.026 A 
HETATM   25  C   UNL     1      25.128  42.614  49.257  1.00  0.00     0.010 A 
HETATM   26  C   UNL     1      24.141  43.206  48.460  1.00  0.00     0.001 A 
HETATM   27  C   UNL     1      23.447  44.321  48.916  1.00  0.00     0.000 A 
HETATM   28  C   UNL     1      23.727  44.841  50.174  1.00  0.00     0.001 A 
HETATM   29  C   UNL     1      24.716  44.254  50.968  1.00  0.00     0.010 A 
ENDBRANCH   1  24
TORSDOF 5
ENDMDL
MODEL 10
REMARK VINA RESULT:      -7.5      1.755      2.556
REMARK  5 active torsions:
REMARK  status: ('A' for Active; 'I' for Inactive)
REMARK    1  A    between atoms: C_3  and  N_4 
REMARK       I    between atoms: N_4  and  C_5 
REMARK    2  A    between atoms: C_5  and  C_6 
REMARK    3  A    between atoms: C_6  and  N_7 
REMARK    4  A    between atoms: C_6  and  C_16 
REMARK       I    between atoms: N_7  and  C_8 
REMARK    5  A    between atoms: C_8  and  C_9 
ROOT
HETATM    1  C   UNL     1      26.152  43.602  51.195  1.00  0.00     0.210 C 
ENDROOT
BRANCH   1   2
HETATM    2  C   UNL     1      27.439  44.138  51.904  1.00  0.00     0.249 C 
HETATM    3  N   UNL     1      27.454  43.949  53.276  1.00  0.00    -0.324 N 
HETATM    4  H   UNL     1      26.687  43.367  53.613  1.00  0.00     0.169 HD
HETATM    5  O   UNL     1      28.394  44.515  51.224  1.00  0.00    -0.270 OA
BRANCH   3   6
HETATM    6  C   UNL     1      28.549  44.090  54.163  1.00  0.00     0.046 A 
HETATM    7  C   UNL     1      29.638  43.195  54.236  1.00  0.00    -0.035 A 
HETATM    8  C   UNL     1      29.851  42.026  53.315  1.00  0.00     0.050 C 
HETATM    9  C   UNL     1      30.641  43.411  55.203  1.00  0.00     0.009 A 
HETATM   10  C   UNL     1      30.614  44.521  56.040  1.00  0.00     0.001 A 
HETATM   11  C   UNL     1      29.581  45.438  55.927  1.00  0.00     0.009 A 
HETATM   12  C   UNL     1      28.543  45.239  55.001  1.00  0.00    -0.035 A 
HETATM   13  C   UNL     1      27.442  46.270  54.960  1.00  0.00     0.050 C 
ENDBRANCH   3   6
ENDBRANCH   1   2
BRANCH   1  14
HETATM   14  N   UNL     1      26.397  42.468  50.308  1.00  0.00    -0.338 N 
HETATM   15  C   UNL     1      26.905  41.244  50.663  1.00  0.00     0.273 C 
HETATM   16  O   UNL     1      27.123  40.913  51.825  1.00  0.00    -0.266 OA
HETATM   17  H   UNL     1      26.319  42.614  49.305  1.00  0.00     0.164 HD
BRANCH  15  18
HETATM   18  C   UNL     1      27.177  40.370  49.513  1.00  0.00     0.145 A 
HETATM   19  N   UNL     1      26.609  39.150  49.396  1.00  0.00    -0.170 NA
HETATM   20  N   UNL     1      27.085  38.679  48.229  1.00  0.00    -0.289 N 
HETATM   21  H   UNL     1      26.788  37.758  47.923  1.00  0.00     0.188 HD
HETATM   22  C   UNL     1      27.929  39.541  47.597  1.00  0.00     0.112 A 
HETATM   23  C   UNL     1      28.011  40.651  48.402  1.00  0.00     0.058 A 
ENDBRANCH  15  18
ENDBRANCH   1  14
BRANCH   1  24
HETATM   24  C   UNL     1      25.295  44.726  50.606  1.00  0.00    -0.026 A 
HETATM   25  C   UNL     1      25.460  46.075  50.961  1.00  0.00     0.010 A 
HETATM   26  C   UNL     1      24.658  47.074  50.399  1.00  0.00     0.001 A 
HETATM   27  C   UNL     1      23.695  46.748  49.449  1.00  0.00     0.000 A 
HETATM   28  C   UNL     1      23.540  45.425  49.051  1.00  0.00     0.001 A 
HETATM   29  C   UNL     1      24.337  44.427  49.616  1.00  0.00     0.010 A 
ENDBRANCH   1  24
TORSDOF 5
ENDMDL
