MODEL 1
REMARK VINA RESULT:      -8.8      0.000      0.000
REMARK  5 active torsions:
REMARK  status: ('A' for Active; 'I' for Inactive)
REMARK    1  A    between atoms: C_2  and  C_3 
REMARK    2  A    between atoms: C_6  and  C_7 
REMARK    3  A    between atoms: C_7  and  C_8 
REMARK       I    between atoms: C_8  and  N_9 
REMARK    4  A    between atoms: N_9  and  C_10 
REMARK    5  A    between atoms: C_12  and  C_13 
ROOT
HETATM    1  C   UNL     1      25.841  46.520  52.587  1.00  0.00     0.226 C 
HETATM    2  N   UNL     1      25.954  46.467  51.208  1.00  0.00    -0.327 N 
HETATM    3  O   UNL     1      25.623  47.532  53.251  1.00  0.00    -0.273 OA
HETATM    4  H   UNL     1      26.265  45.588  50.812  1.00  0.00     0.169 HD
ENDROOT
BRANCH   2   5
HETATM    5  C   UNL     1      25.783  47.530  50.294  1.00  0.00     0.035 A 
HETATM    6  C   UNL     1      24.535  47.991  49.860  1.00  0.00     0.042 A 
HETATM    7  C   UNL     1      24.422  49.042  48.930  1.00  0.00    -0.021 A 
HETATM    8  C   UNL     1      25.598  49.630  48.445  1.00  0.00     0.012 A 
HETATM    9  C   UNL     1      26.848  49.174  48.866  1.00  0.00     0.003 A 
HETATM   10  C   UNL     1      26.939  48.126  49.781  1.00  0.00     0.029 A 
BRANCH   7  11
HETATM   11  C   UNL     1      23.120  49.507  48.461  1.00  0.00     0.010 A 
HETATM   12  C   UNL     1      22.011  48.795  47.938  1.00  0.00     0.152 A 
HETATM   13  N   UNL     1      20.983  49.586  47.621  1.00  0.00    -0.187 NA
HETATM   14  N   UNL     1      21.423  50.812  47.941  1.00  0.00    -0.289 N 
HETATM   15  H   UNL     1      20.804  51.601  47.792  1.00  0.00     0.188 HD
HETATM   16  C   UNL     1      22.692  50.819  48.443  1.00  0.00     0.123 A 
ENDBRANCH   7  11
ENDBRANCH   2   5
BRANCH   1  17
HETATM   17  C   UNL     1      25.915  45.168  53.283  1.00  0.00     0.141 C 
BRANCH  17  18
HETATM   18  C   UNL     1      27.260  44.762  53.839  1.00  0.00    -0.049 A 
HETATM   19  C   UNL     1      27.925  45.560  54.778  1.00  0.00     0.008 A 
HETATM   20  C   UNL     1      29.143  45.147  55.329  1.00  0.00     0.007 A 
HETATM   21  C   UNL     1      29.724  43.929  54.957  1.00  0.00    -0.059 A 
HETATM   22  C   UNL     1      29.045  43.127  54.028  1.00  0.00     0.007 A 
HETATM   23  C   UNL     1      27.829  43.538  53.474  1.00  0.00     0.008 A 
BRANCH  21  24
HETATM   24  C   UNL     1      30.999  43.396  55.571  1.00  0.00     0.034 C 
HETATM   25  C   UNL     1      31.253  43.768  57.027  1.00  0.00     0.010 C 
ENDBRANCH  21  24
ENDBRANCH  17  18
ENDBRANCH   1  17
TORSDOF 5
ENDMDL
MODEL 2
REMARK VINA RESULT:      -8.4      2.610      3.497
REMARK  5 active torsions:
REMARK  status: ('A' for Active; 'I' for Inactive)
REMARK    1  A    between atoms: C_2  and  C_3 
REMARK    2  A    between atoms: C_6  and  C_7 
REMARK    3  A    between atoms: C_7  and  C_8 
REMARK       I    between atoms: C_8  and  N_9 
REMARK    4  A    between atoms: N_9  and  C_10 
REMARK    5  A    between atoms: C_12  and  C_13 
ROOT
HETATM    1  C   UNL     1      26.850  43.220  50.933  1.00  0.00     0.226 C 
HETATM    2  N   UNL     1      25.883  44.120  51.346  1.00  0.00    -0.327 N 
HETATM    3  O   UNL     1      27.357  43.175  49.813  1.00  0.00    -0.273 OA
HETATM    4  H   UNL     1      25.466  43.951  52.255  1.00  0.00     0.169 HD
ENDROOT
BRANCH   2   5
HETATM    5  C   UNL     1      25.336  45.189  50.605  1.00  0.00     0.035 A 
HETATM    6  C   UNL     1      26.064  46.318  50.210  1.00  0.00     0.042 A 
HETATM    7  C   UNL     1      25.463  47.366  49.489  1.00  0.00    -0.021 A 
HETATM    8  C   UNL     1      24.105  47.256  49.162  1.00  0.00     0.012 A 
HETATM    9  C   UNL     1      23.366  46.139  49.555  1.00  0.00     0.003 A 
HETATM   10  C   UNL     1      23.978  45.114  50.278  1.00  0.00     0.029 A 
BRANCH   7  11
HETATM   11  C   UNL     1      26.219  48.552  49.097  1.00  0.00     0.010 A 
HETATM   12  C   UNL     1      25.832  49.700  48.361  1.00  0.00     0.152 A 
HETATM   13  N   UNL     1      26.821  50.585  48.211  1.00  0.00    -0.187 NA
HETATM   14  N   UNL     1      27.850  50.012  48.852  1.00  0.00    -0.289 N 
HETATM   15  H   UNL     1      28.735  50.506  48.882  1.00  0.00     0.188 HD
HETATM   16  C   UNL     1      27.544  48.798  49.395  1.00  0.00     0.123 A 
ENDBRANCH   7  11
ENDBRANCH   2   5
BRANCH   1  17
HETATM   17  C   UNL     1      27.355  42.284  52.022  1.00  0.00     0.141 C 
BRANCH  17  18
HETATM   18  C   UNL     1      28.313  42.870  53.032  1.00  0.00    -0.049 A 
HETATM   19  C   UNL     1      27.883  43.807  53.980  1.00  0.00     0.008 A 
HETATM   20  C   UNL     1      28.766  44.300  54.946  1.00  0.00     0.007 A 
HETATM   21  C   UNL     1      30.098  43.869  54.990  1.00  0.00    -0.059 A 
HETATM   22  C   UNL     1      30.518  42.920  54.048  1.00  0.00     0.007 A 
HETATM   23  C   UNL     1      29.639  42.427  53.079  1.00  0.00     0.008 A 
BRANCH  21  24
HETATM   24  C   UNL     1      31.078  44.311  56.054  1.00  0.00     0.034 C 
HETATM   25  C   UNL     1      31.566  43.231  57.011  1.00  0.00     0.010 C 
ENDBRANCH  21  24
ENDBRANCH  17  18
ENDBRANCH   1  17
TORSDOF 5
ENDMDL
MODEL 3
REMARK VINA RESULT:      -8.3      2.604      3.713
REMARK  5 active torsions:
REMARK  status: ('A' for Active; 'I' for Inactive)
REMARK    1  A    between atoms: C_2  and  C_3 
REMARK    2  A    between atoms: C_6  and  C_7 
REMARK    3  A    between atoms: C_7  and  C_8 
REMARK       I    between atoms: C_8  and  N_9 
REMARK    4  A    between atoms: N_9  and  C_10 
REMARK    5  A    between atoms: C_12  and  C_13 
ROOT
HETATM    1  C   UNL     1      27.295  42.992  51.982  1.00  0.00     0.226 C 
HETATM    2  N   UNL     1      25.913  43.006  52.063  1.00  0.00    -0.327 N 
HETATM    3  O   UNL     1      27.965  43.479  51.073  1.00  0.00    -0.273 OA
HETATM    4  H   UNL     1      25.497  42.451  52.802  1.00  0.00     0.169 HD
ENDROOT
BRANCH   2   5
HETATM    5  C   UNL     1      25.010  43.623  51.171  1.00  0.00     0.035 A 
HETATM    6  C   UNL     1      25.049  44.982  50.839  1.00  0.00     0.042 A 
HETATM    7  C   UNL     1      24.110  45.552  49.959  1.00  0.00    -0.021 A 
HETATM    8  C   UNL     1      23.124  44.721  49.410  1.00  0.00     0.012 A 
HETATM    9  C   UNL     1      23.070  43.366  49.739  1.00  0.00     0.003 A 
HETATM   10  C   UNL     1      24.005  42.822  50.620  1.00  0.00     0.029 A 
BRANCH   7  11
HETATM   11  C   UNL     1      24.139  46.974  49.630  1.00  0.00     0.010 A 
HETATM   12  C   UNL     1      25.200  47.914  49.662  1.00  0.00     0.152 A 
HETATM   13  N   UNL     1      24.828  49.138  49.278  1.00  0.00    -0.187 NA
HETATM   14  N   UNL     1      23.526  48.991  48.993  1.00  0.00    -0.289 N 
HETATM   15  H   UNL     1      23.009  49.802  48.668  1.00  0.00     0.188 HD
HETATM   16  C   UNL     1      23.067  47.722  49.189  1.00  0.00     0.123 A 
ENDBRANCH   7  11
ENDBRANCH   2   5
BRANCH   1  17
HETATM   17  C   UNL     1      27.997  42.386  53.189  1.00  0.00     0.141 C 
BRANCH  17  18
HETATM   18  C   UNL     1      28.663  43.348  54.144  1.00  0.00    -0.049 A 
HETATM   19  C   UNL     1      28.016  44.518  54.561  1.00  0.00     0.008 A 
HETATM   20  C   UNL     1      28.620  45.374  55.489  1.00  0.00     0.007 A 
HETATM   21  C   UNL     1      29.881  45.081  56.022  1.00  0.00    -0.059 A 
HETATM   22  C   UNL     1      30.517  43.900  55.612  1.00  0.00     0.007 A 
HETATM   23  C   UNL     1      29.918  43.045  54.683  1.00  0.00     0.008 A 
BRANCH  21  24
HETATM   24  C   UNL     1      30.551  45.929  57.080  1.00  0.00     0.034 C 
HETATM   25  C   UNL     1      30.528  45.377  58.501  1.00  0.00     0.010 C 
ENDBRANCH  21  24
ENDBRANCH  17  18
ENDBRANCH   1  17
TORSDOF 5
ENDMDL
MODEL 4
REMARK VINA RESULT:      -8.2      1.960      3.003
REMARK  5 active torsions:
REMARK  status: ('A' for Active; 'I' for Inactive)
REMARK    1  A    between atoms: C_2  and  C_3 
REMARK    2  A    between atoms: C_6  and  C_7 
REMARK    3  A    between atoms: C_7  and  C_8 
REMARK       I    between atoms: C_8  and  N_9 
REMARK    4  A    between atoms: N_9  and  C_10 
REMARK    5  A    between atoms: C_12  and  C_13 
ROOT
HETATM    1  C   UNL     1      24.572  46.832  50.717  1.00  0.00     0.226 C 
HETATM    2  N   UNL     1      23.851  47.214  49.598  1.00  0.00    -0.327 N 
HETATM    3  O   UNL     1      25.091  47.594  51.530  1.00  0.00    -0.273 OA
HETATM    4  H   UNL     1      23.596  46.477  48.950  1.00  0.00     0.169 HD
ENDROOT
BRANCH   2   5
HETATM    5  C   UNL     1      23.517  48.527  49.203  1.00  0.00     0.035 A 
HETATM    6  C   UNL     1      22.262  49.110  49.416  1.00  0.00     0.042 A 
HETATM    7  C   UNL     1      21.976  50.418  48.982  1.00  0.00    -0.021 A 
HETATM    8  C   UNL     1      22.984  51.138  48.329  1.00  0.00     0.012 A 
HETATM    9  C   UNL     1      24.236  50.566  48.104  1.00  0.00     0.003 A 
HETATM   10  C   UNL     1      24.499  49.264  48.534  1.00  0.00     0.029 A 
BRANCH   7  11
HETATM   11  C   UNL     1      20.660  51.017  49.187  1.00  0.00     0.010 A 
HETATM   12  C   UNL     1      19.974  52.026  48.464  1.00  0.00     0.152 A 
HETATM   13  N   UNL     1      18.769  52.303  48.966  1.00  0.00    -0.187 NA
HETATM   14  N   UNL     1      18.669  51.472  50.014  1.00  0.00    -0.289 N 
HETATM   15  H   UNL     1      17.819  51.492  50.567  1.00  0.00     0.188 HD
HETATM   16  C   UNL     1      19.771  50.687  50.190  1.00  0.00     0.123 A 
ENDBRANCH   7  11
ENDBRANCH   2   5
BRANCH   1  17
HETATM   17  C   UNL     1      24.621  45.330  50.959  1.00  0.00     0.141 C 
BRANCH  17  18
HETATM   18  C   UNL     1      25.779  44.810  51.778  1.00  0.00    -0.049 A 
HETATM   19  C   UNL     1      26.969  44.396  51.167  1.00  0.00     0.008 A 
HETATM   20  C   UNL     1      28.055  43.968  51.939  1.00  0.00     0.007 A 
HETATM   21  C   UNL     1      27.978  43.946  53.337  1.00  0.00    -0.059 A 
HETATM   22  C   UNL     1      26.789  44.377  53.943  1.00  0.00     0.007 A 
HETATM   23  C   UNL     1      25.701  44.801  53.174  1.00  0.00     0.008 A 
BRANCH  21  24
HETATM   24  C   UNL     1      29.142  43.564  54.224  1.00  0.00     0.034 C 
HETATM   25  C   UNL     1      30.307  42.858  53.543  1.00  0.00     0.010 C 
ENDBRANCH  21  24
ENDBRANCH  17  18
ENDBRANCH   1  17
TORSDOF 5
ENDMDL
MODEL 5
REMARK VINA RESULT:      -8.2      2.517      9.401
REMARK  5 active torsions:
REMARK  status: ('A' for Active; 'I' for Inactive)
REMARK    1  A    between atoms: C_2  and  C_3 
REMARK    2  A    between atoms: C_6  and  C_7 
REMARK    3  A    between atoms: C_7  and  C_8 
REMARK       I    between atoms: C_8  and  N_9 
REMARK    4  A    between atoms: N_9  and  C_10 
REMARK    5  A    between atoms: C_12  and  C_13 
ROOT
HETATM    1  C   UNL     1      24.635  47.566  50.007  1.00  0.00     0.226 C 
HETATM    2  N   UNL     1      24.528  46.590  50.984  1.00  0.00    -0.327 N 
HETATM    3  O   UNL     1      25.559  48.369  49.893  1.00  0.00    -0.273 OA
HETATM    4  H   UNL     1      23.647  46.090  51.030  1.00  0.00     0.169 HD
ENDROOT
BRANCH   2   5
HETATM    5  C   UNL     1      25.468  46.280  51.990  1.00  0.00     0.035 A 
HETATM    6  C   UNL     1      26.391  45.232  51.899  1.00  0.00     0.042 A 
HETATM    7  C   UNL     1      27.293  44.954  52.942  1.00  0.00    -0.021 A 
HETATM    8  C   UNL     1      27.254  45.759  54.088  1.00  0.00     0.012 A 
HETATM    9  C   UNL     1      26.334  46.803  54.194  1.00  0.00     0.003 A 
HETATM   10  C   UNL     1      25.442  47.058  53.152  1.00  0.00     0.029 A 
BRANCH   7  11
HETATM   11  C   UNL     1      28.241  43.846  52.854  1.00  0.00     0.010 A 
HETATM   12  C   UNL     1      29.396  43.548  53.620  1.00  0.00     0.152 A 
HETATM   13  N   UNL     1      30.007  42.426  53.232  1.00  0.00    -0.187 NA
HETATM   14  N   UNL     1      29.246  41.994  52.216  1.00  0.00    -0.289 N 
HETATM   15  H   UNL     1      29.510  41.134  51.747  1.00  0.00     0.188 HD
HETATM   16  C   UNL     1      28.183  42.806  51.949  1.00  0.00     0.123 A 
ENDBRANCH   7  11
ENDBRANCH   2   5
BRANCH   1  17
HETATM   17  C   UNL     1      23.529  47.542  48.961  1.00  0.00     0.141 C 
BRANCH  17  18
HETATM   18  C   UNL     1      22.593  48.727  48.932  1.00  0.00    -0.049 A 
HETATM   19  C   UNL     1      23.071  50.021  48.688  1.00  0.00     0.008 A 
HETATM   20  C   UNL     1      22.189  51.103  48.607  1.00  0.00     0.007 A 
HETATM   21  C   UNL     1      20.810  50.920  48.767  1.00  0.00    -0.059 A 
HETATM   22  C   UNL     1      20.336  49.620  48.996  1.00  0.00     0.007 A 
HETATM   23  C   UNL     1      21.216  48.537  49.080  1.00  0.00     0.008 A 
BRANCH  21  24
HETATM   24  C   UNL     1      19.802  52.038  48.618  1.00  0.00     0.034 C 
HETATM   25  C   UNL     1      18.646  52.040  49.611  1.00  0.00     0.010 C 
ENDBRANCH  21  24
ENDBRANCH  17  18
ENDBRANCH   1  17
TORSDOF 5
ENDMDL
MODEL 6
REMARK VINA RESULT:      -8.1      1.635      2.377
REMARK  5 active torsions:
REMARK  status: ('A' for Active; 'I' for Inactive)
REMARK    1  A    between atoms: C_2  and  C_3 
REMARK    2  A    between atoms: C_6  and  C_7 
REMARK    3  A    between atoms: C_7  and  C_8 
REMARK       I    between atoms: C_8  and  N_9 
REMARK    4  A    between atoms: N_9  and  C_10 
REMARK    5  A    between atoms: C_12  and  C_13 
ROOT
HETATM    1  C   UNL     1      26.176  46.637  53.860  1.00  0.00     0.226 C 
HETATM    2  N   UNL     1      26.314  46.832  52.496  1.00  0.00    -0.327 N 
HETATM    3  O   UNL     1      25.251  46.044  54.410  1.00  0.00    -0.273 OA
HETATM    4  H   UNL     1      27.059  47.453  52.200  1.00  0.00     0.169 HD
ENDROOT
BRANCH   2   5
HETATM    5  C   UNL     1      25.472  46.346  51.473  1.00  0.00     0.035 A 
HETATM    6  C   UNL     1      24.696  47.166  50.646  1.00  0.00     0.042 A 
HETATM    7  C   UNL     1      23.856  46.626  49.654  1.00  0.00    -0.021 A 
HETATM    8  C   UNL     1      23.815  45.234  49.502  1.00  0.00     0.012 A 
HETATM    9  C   UNL     1      24.579  44.405  50.325  1.00  0.00     0.003 A 
HETATM   10  C   UNL     1      25.398  44.959  51.309  1.00  0.00     0.029 A 
BRANCH   7  11
HETATM   11  C   UNL     1      23.031  47.483  48.806  1.00  0.00     0.010 A 
HETATM   12  C   UNL     1      22.088  47.161  47.797  1.00  0.00     0.152 A 
HETATM   13  N   UNL     1      21.526  48.238  47.243  1.00  0.00    -0.187 NA
HETATM   14  N   UNL     1      22.103  49.259  47.894  1.00  0.00    -0.289 N 
HETATM   15  H   UNL     1      21.830  50.205  47.647  1.00  0.00     0.188 HD
HETATM   16  C   UNL     1      23.009  48.862  48.833  1.00  0.00     0.123 A 
ENDBRANCH   7  11
ENDBRANCH   2   5
BRANCH   1  17
HETATM   17  C   UNL     1      27.342  47.147  54.695  1.00  0.00     0.141 C 
BRANCH  17  18
HETATM   18  C   UNL     1      28.398  46.137  55.079  1.00  0.00    -0.049 A 
HETATM   19  C   UNL     1      29.229  46.343  56.187  1.00  0.00     0.008 A 
HETATM   20  C   UNL     1      30.165  45.374  56.566  1.00  0.00     0.007 A 
HETATM   21  C   UNL     1      30.293  44.179  55.848  1.00  0.00    -0.059 A 
HETATM   22  C   UNL     1      29.448  43.972  54.748  1.00  0.00     0.007 A 
HETATM   23  C   UNL     1      28.514  44.939  54.366  1.00  0.00     0.008 A 
BRANCH  21  24
HETATM   24  C   UNL     1      31.234  43.066  56.252  1.00  0.00     0.034 C 
HETATM   25  C   UNL     1      32.179  43.369  57.409  1.00  0.00     0.010 C 
ENDBRANCH  21  24
ENDBRANCH  17  18
ENDBRANCH   1  17
TORSDOF 5
ENDMDL
MODEL 7
REMARK VINA RESULT:      -8.1      5.146      7.589
REMARK  5 active torsions:
REMARK  status: ('A' for Active; 'I' for Inactive)
REMARK    1  A    between atoms: C_2  and  C_3 
REMARK    2  A    between atoms: C_6  and  C_7 
REMARK    3  A    between atoms: C_7  and  C_8 
REMARK       I    between atoms: C_8  and  N_9 
REMARK    4  A    between atoms: N_9  and  C_10 
REMARK    5  A    between atoms: C_12  and  C_13 
ROOT
HETATM    1  C   UNL     1      27.038  44.047  51.867  1.00  0.00     0.226 C 
HETATM    2  N   UNL     1      26.284  42.885  51.886  1.00  0.00    -0.327 N 
HETATM    3  O   UNL     1      27.676  44.473  50.906  1.00  0.00    -0.273 OA
HETATM    4  H   UNL     1      25.923  42.594  52.787  1.00  0.00     0.169 HD
ENDROOT
BRANCH   2   5
HETATM    5  C   UNL     1      26.045  42.003  50.810  1.00  0.00     0.035 A 
HETATM    6  C   UNL     1      26.909  40.963  50.448  1.00  0.00     0.042 A 
HETATM    7  C   UNL     1      26.631  40.125  49.352  1.00  0.00    -0.021 A 
HETATM    8  C   UNL     1      25.456  40.349  48.623  1.00  0.00     0.012 A 
HETATM    9  C   UNL     1      24.590  41.387  48.970  1.00  0.00     0.003 A 
HETATM   10  C   UNL     1      24.887  42.213  50.055  1.00  0.00     0.029 A 
BRANCH   7  11
HETATM   11  C   UNL     1      27.544  39.054  48.962  1.00  0.00     0.010 A 
HETATM   12  C   UNL     1      28.943  39.062  48.734  1.00  0.00     0.152 A 
HETATM   13  N   UNL     1      29.426  37.865  48.392  1.00  0.00    -0.187 NA
HETATM   14  N   UNL     1      28.339  37.078  48.401  1.00  0.00    -0.289 N 
HETATM   15  H   UNL     1      28.453  36.096  48.172  1.00  0.00     0.188 HD
HETATM   16  C   UNL     1      27.193  37.739  48.731  1.00  0.00     0.123 A 
ENDBRANCH   7  11
ENDBRANCH   2   5
BRANCH   1  17
HETATM   17  C   UNL     1      26.967  44.871  53.145  1.00  0.00     0.141 C 
BRANCH  17  18
HETATM   18  C   UNL     1      28.146  44.774  54.084  1.00  0.00    -0.049 A 
HETATM   19  C   UNL     1      28.446  45.809  54.979  1.00  0.00     0.008 A 
HETATM   20  C   UNL     1      29.506  45.684  55.883  1.00  0.00     0.007 A 
HETATM   21  C   UNL     1      30.290  44.525  55.916  1.00  0.00    -0.059 A 
HETATM   22  C   UNL     1      29.975  43.486  55.028  1.00  0.00     0.007 A 
HETATM   23  C   UNL     1      28.918  43.609  54.122  1.00  0.00     0.008 A 
BRANCH  21  24
HETATM   24  C   UNL     1      31.401  44.303  56.918  1.00  0.00     0.034 C 
HETATM   25  C   UNL     1      31.859  42.863  57.110  1.00  0.00     0.010 C 
ENDBRANCH  21  24
ENDBRANCH  17  18
ENDBRANCH   1  17
TORSDOF 5
ENDMDL
MODEL 8
REMARK VINA RESULT:      -8.0      5.114      8.739
REMARK  5 active torsions:
REMARK  status: ('A' for Active; 'I' for Inactive)
REMARK    1  A    between atoms: C_2  and  C_3 
REMARK    2  A    between atoms: C_6  and  C_7 
REMARK    3  A    between atoms: C_7  and  C_8 
REMARK       I    between atoms: C_8  and  N_9 
REMARK    4  A    between atoms: N_9  and  C_10 
REMARK    5  A    between atoms: C_12  and  C_13 
ROOT
HETATM    1  C   UNL     1      26.728  43.894  51.643  1.00  0.00     0.226 C 
HETATM    2  N   UNL     1      26.603  44.002  53.018  1.00  0.00    -0.327 N 
HETATM    3  O   UNL     1      27.530  44.511  50.945  1.00  0.00    -0.273 OA
HETATM    4  H   UNL     1      25.811  43.531  53.440  1.00  0.00     0.169 HD
ENDROOT
BRANCH   2   5
HETATM    5  C   UNL     1      27.397  44.776  53.891  1.00  0.00     0.035 A 
HETATM    6  C   UNL     1      28.448  44.257  54.657  1.00  0.00     0.042 A 
HETATM    7  C   UNL     1      29.195  45.072  55.529  1.00  0.00    -0.021 A 
HETATM    8  C   UNL     1      28.868  46.431  55.613  1.00  0.00     0.012 A 
HETATM    9  C   UNL     1      27.819  46.959  54.859  1.00  0.00     0.003 A 
HETATM   10  C   UNL     1      27.084  46.134  54.008  1.00  0.00     0.029 A 
BRANCH   7  11
HETATM   11  C   UNL     1      30.276  44.524  56.343  1.00  0.00     0.010 A 
HETATM   12  C   UNL     1      30.810  44.948  57.587  1.00  0.00     0.152 A 
HETATM   13  N   UNL     1      31.807  44.173  58.020  1.00  0.00    -0.187 NA
HETATM   14  N   UNL     1      31.919  43.244  57.060  1.00  0.00    -0.289 N 
HETATM   15  H   UNL     1      32.623  42.522  57.166  1.00  0.00     0.188 HD
HETATM   16  C   UNL     1      31.032  43.411  56.037  1.00  0.00     0.123 A 
ENDBRANCH   7  11
ENDBRANCH   2   5
BRANCH   1  17
HETATM   17  C   UNL     1      25.828  42.846  51.004  1.00  0.00     0.141 C 
BRANCH  17  18
HETATM   18  C   UNL     1      26.482  41.549  50.588  1.00  0.00    -0.049 A 
HETATM   19  C   UNL     1      25.864  40.688  49.674  1.00  0.00     0.008 A 
HETATM   20  C   UNL     1      26.504  39.517  49.253  1.00  0.00     0.007 A 
HETATM   21  C   UNL     1      27.775  39.180  49.735  1.00  0.00    -0.059 A 
HETATM   22  C   UNL     1      28.395  40.055  50.639  1.00  0.00     0.007 A 
HETATM   23  C   UNL     1      27.757  41.224  51.063  1.00  0.00     0.008 A 
BRANCH  21  24
HETATM   24  C   UNL     1      28.546  37.968  49.262  1.00  0.00     0.034 C 
HETATM   25  C   UNL     1      30.065  38.055  49.357  1.00  0.00     0.010 C 
ENDBRANCH  21  24
ENDBRANCH  17  18
ENDBRANCH   1  17
TORSDOF 5
ENDMDL
MODEL 9
REMARK VINA RESULT:      -8.0      2.947      9.340
REMARK  5 active torsions:
REMARK  status: ('A' for Active; 'I' for Inactive)
REMARK    1  A    between atoms: C_2  and  C_3 
REMARK    2  A    between atoms: C_6  and  C_7 
REMARK    3  A    between atoms: C_7  and  C_8 
REMARK       I    between atoms: C_8  and  N_9 
REMARK    4  A    between atoms: N_9  and  C_10 
REMARK    5  A    between atoms: C_12  and  C_13 
ROOT
HETATM    1  C   UNL     1      23.552  48.148  49.283  1.00  0.00     0.226 C 
HETATM    2  N   UNL     1      23.653  46.841  49.731  1.00  0.00    -0.327 N 
HETATM    3  O   UNL     1      24.337  49.058  49.542  1.00  0.00    -0.273 OA
HETATM    4  H   UNL     1      22.862  46.236  49.544  1.00  0.00     0.169 HD
ENDROOT
BRANCH   2   5
HETATM    5  C   UNL     1      24.689  46.281  50.509  1.00  0.00     0.035 A 
HETATM    6  C   UNL     1      25.086  46.782  51.754  1.00  0.00     0.042 A 
HETATM    7  C   UNL     1      26.141  46.197  52.480  1.00  0.00    -0.021 A 
HETATM    8  C   UNL     1      26.791  45.085  51.928  1.00  0.00     0.012 A 
HETATM    9  C   UNL     1      26.409  44.581  50.685  1.00  0.00     0.003 A 
HETATM   10  C   UNL     1      25.367  45.180  49.977  1.00  0.00     0.029 A 
BRANCH   7  11
HETATM   11  C   UNL     1      26.568  46.733  53.769  1.00  0.00     0.010 A 
HETATM   12  C   UNL     1      26.102  47.846  54.513  1.00  0.00     0.152 A 
HETATM   13  N   UNL     1      26.753  48.016  55.666  1.00  0.00    -0.187 NA
HETATM   14  N   UNL     1      27.641  47.010  55.672  1.00  0.00    -0.289 N 
HETATM   15  H   UNL     1      28.264  46.921  56.468  1.00  0.00     0.188 HD
HETATM   16  C   UNL     1      27.573  46.220  54.563  1.00  0.00     0.123 A 
ENDBRANCH   7  11
ENDBRANCH   2   5
BRANCH   1  17
HETATM   17  C   UNL     1      22.400  48.402  48.320  1.00  0.00     0.141 C 
BRANCH  17  18
HETATM   18  C   UNL     1      21.388  49.445  48.731  1.00  0.00    -0.049 A 
HETATM   19  C   UNL     1      21.444  50.748  48.220  1.00  0.00     0.008 A 
HETATM   20  C   UNL     1      20.469  51.691  48.564  1.00  0.00     0.007 A 
HETATM   21  C   UNL     1      19.416  51.355  49.423  1.00  0.00    -0.059 A 
HETATM   22  C   UNL     1      19.357  50.044  49.918  1.00  0.00     0.007 A 
HETATM   23  C   UNL     1      20.331  49.101  49.579  1.00  0.00     0.008 A 
BRANCH  21  24
HETATM   24  C   UNL     1      18.294  52.307  49.771  1.00  0.00     0.034 C 
HETATM   25  C   UNL     1      16.885  51.727  49.751  1.00  0.00     0.010 C 
ENDBRANCH  21  24
ENDBRANCH  17  18
ENDBRANCH   1  17
TORSDOF 5
ENDMDL
MODEL 10
REMARK VINA RESULT:      -7.9      3.553      5.518
REMARK  5 active torsions:
REMARK  status: ('A' for Active; 'I' for Inactive)
REMARK    1  A    between atoms: C_2  and  C_3 
REMARK    2  A    between atoms: C_6  and  C_7 
REMARK    3  A    between atoms: C_7  and  C_8 
REMARK       I    between atoms: C_8  and  N_9 
REMARK    4  A    between atoms: N_9  and  C_10 
REMARK    5  A    between atoms: C_12  and  C_13 
ROOT
HETATM    1  C   UNL     1      26.060  46.233  54.029  1.00  0.00     0.226 C 
HETATM    2  N   UNL     1      26.253  46.350  52.662  1.00  0.00    -0.327 N 
HETATM    3  O   UNL     1      25.254  45.485  54.578  1.00  0.00    -0.273 OA
HETATM    4  H   UNL     1      26.858  47.102  52.352  1.00  0.00     0.169 HD
ENDROOT
BRANCH   2   5
HETATM    5  C   UNL     1      25.622  45.605  51.643  1.00  0.00     0.035 A 
HETATM    6  C   UNL     1      25.853  44.243  51.416  1.00  0.00     0.042 A 
HETATM    7  C   UNL     1      25.211  43.553  50.370  1.00  0.00    -0.021 A 
HETATM    8  C   UNL     1      24.321  44.261  49.553  1.00  0.00     0.012 A 
HETATM    9  C   UNL     1      24.088  45.621  49.765  1.00  0.00     0.003 A 
HETATM   10  C   UNL     1      24.740  46.290  50.801  1.00  0.00     0.029 A 
BRANCH   7  11
HETATM   11  C   UNL     1      25.470  42.137  50.122  1.00  0.00     0.010 A 
HETATM   12  C   UNL     1      26.297  41.210  50.803  1.00  0.00     0.152 A 
HETATM   13  N   UNL     1      26.264  39.987  50.268  1.00  0.00    -0.187 NA
HETATM   14  N   UNL     1      25.413  40.120  49.241  1.00  0.00    -0.289 N 
HETATM   15  H   UNL     1      25.216  39.305  48.669  1.00  0.00     0.188 HD
HETATM   16  C   UNL     1      24.914  41.382  49.109  1.00  0.00     0.123 A 
ENDBRANCH   7  11
ENDBRANCH   2   5
BRANCH   1  17
HETATM   17  C   UNL     1      27.015  47.062  54.877  1.00  0.00     0.141 C 
BRANCH  17  18
HETATM   18  C   UNL     1      28.089  46.308  55.626  1.00  0.00    -0.049 A 
HETATM   19  C   UNL     1      28.897  45.366  54.978  1.00  0.00     0.008 A 
HETATM   20  C   UNL     1      29.926  44.715  55.667  1.00  0.00     0.007 A 
HETATM   21  C   UNL     1      30.172  44.991  57.018  1.00  0.00    -0.059 A 
HETATM   22  C   UNL     1      29.369  45.947  57.657  1.00  0.00     0.007 A 
HETATM   23  C   UNL     1      28.339  46.596  56.971  1.00  0.00     0.008 A 
BRANCH  21  24
HETATM   24  C   UNL     1      31.314  44.374  57.795  1.00  0.00     0.034 C 
HETATM   25  C   UNL     1      31.965  43.143  57.175  1.00  0.00     0.010 C 
ENDBRANCH  21  24
ENDBRANCH  17  18
ENDBRANCH   1  17
TORSDOF 5
ENDMDL
