MODEL 1
REMARK VINA RESULT:      -9.5      0.000      0.000
REMARK  6 active torsions:
REMARK  status: ('A' for Active; 'I' for Inactive)
REMARK    1  A    between atoms: C_5  and  C_6 
REMARK    2  A    between atoms: C_6  and  N_7 
REMARK    3  A    between atoms: C_6  and  C_11 
REMARK       I    between atoms: N_7  and  C_8 
REMARK    4  A    between atoms: C_11  and  C_12 
REMARK       I    between atoms: C_12  and  N_13 
REMARK    5  A    between atoms: N_13  and  C_14 
REMARK    6  A    between atoms: C_16  and  C_17 
ROOT
HETATM    1  C   UNL     1      25.899  44.782  53.192  1.00  0.00     0.224 C 
HETATM    2  N   UNL     1      27.223  44.897  52.808  1.00  0.00    -0.327 N 
HETATM    3  O   UNL     1      25.467  44.136  54.142  1.00  0.00    -0.273 OA
HETATM    4  H   UNL     1      27.410  45.516  52.026  1.00  0.00     0.169 HD
ENDROOT
BRANCH   1   5
HETATM    5  C   UNL     1      24.955  45.502  52.253  1.00  0.00     0.133 C 
BRANCH   5   6
HETATM    6  C   UNL     1      25.485  45.481  50.815  1.00  0.00     0.126 C 
BRANCH   6   7
HETATM    7  C   UNL     1      25.173  46.797  50.118  1.00  0.00    -0.035 A 
HETATM    8  C   UNL     1      26.175  47.728  49.806  1.00  0.00     0.010 A 
HETATM    9  C   UNL     1      25.869  48.904  49.116  1.00  0.00     0.007 A 
HETATM   10  C   UNL     1      24.556  49.175  48.719  1.00  0.00    -0.062 A 
HETATM   11  C   UNL     1      24.245  50.413  47.932  1.00  0.00     0.048 C 
HETATM   12  C   UNL     1      23.555  48.243  49.010  1.00  0.00     0.007 A 
HETATM   13  C   UNL     1      23.859  47.070  49.706  1.00  0.00     0.010 A 
ENDBRANCH   6   7
BRANCH   6  14
HETATM   14  N   UNL     1      25.091  44.334  49.995  1.00  0.00    -0.352 N 
HETATM   15  C   UNL     1      25.938  43.424  49.411  1.00  0.00     0.214 C 
HETATM   16  C   UNL     1      25.216  42.328  48.674  1.00  0.00     0.117 C 
HETATM   17  O   UNL     1      27.162  43.468  49.477  1.00  0.00    -0.274 OA
HETATM   18  H   UNL     1      24.099  44.139  49.968  1.00  0.00     0.163 HD
ENDBRANCH   6  14
ENDBRANCH   5   6
ENDBRANCH   1   5
BRANCH   2  19
HETATM   19  C   UNL     1      28.355  44.313  53.411  1.00  0.00     0.035 A 
HETATM   20  C   UNL     1      28.859  44.687  54.660  1.00  0.00     0.042 A 
HETATM   21  C   UNL     1      29.999  44.065  55.199  1.00  0.00    -0.021 A 
HETATM   22  C   UNL     1      30.617  43.040  54.471  1.00  0.00     0.012 A 
HETATM   23  C   UNL     1      30.120  42.658  53.225  1.00  0.00     0.003 A 
HETATM   24  C   UNL     1      29.001  43.299  52.695  1.00  0.00     0.029 A 
BRANCH  21  25
HETATM   25  C   UNL     1      30.519  44.490  56.489  1.00  0.00     0.010 A 
HETATM   26  C   UNL     1      31.425  43.859  57.377  1.00  0.00     0.152 A 
HETATM   27  N   UNL     1      31.639  44.567  58.490  1.00  0.00    -0.187 NA
HETATM   28  N   UNL     1      30.863  45.649  58.326  1.00  0.00    -0.289 N 
HETATM   29  H   UNL     1      30.848  46.345  59.065  1.00  0.00     0.188 HD
HETATM   30  C   UNL     1      30.174  45.652  57.149  1.00  0.00     0.123 A 
ENDBRANCH  21  25
ENDBRANCH   2  19
TORSDOF 6
ENDMDL
MODEL 2
REMARK VINA RESULT:      -9.3      2.632      8.872
REMARK  6 active torsions:
REMARK  status: ('A' for Active; 'I' for Inactive)
REMARK    1  A    between atoms: C_5  and  C_6 
REMARK    2  A    between atoms: C_6  and  N_7 
REMARK    3  A    between atoms: C_6  and  C_11 
REMARK       I    between atoms: N_7  and  C_8 
REMARK    4  A    between atoms: C_11  and  C_12 
REMARK       I    between atoms: C_12  and  N_13 
REMARK    5  A    between atoms: N_13  and  C_14 
REMARK    6  A    between atoms: C_16  and  C_17 
ROOT
HETATM    1  C   UNL     1      26.273  44.722  52.941  1.00  0.00     0.224 C 
HETATM    2  N   UNL     1      25.248  45.590  52.609  1.00  0.00    -0.327 N 
HETATM    3  O   UNL     1      26.838  43.936  52.186  1.00  0.00    -0.273 OA
HETATM    4  H   UNL     1      24.930  46.210  53.347  1.00  0.00     0.169 HD
ENDROOT
BRANCH   1   5
HETATM    5  C   UNL     1      26.621  44.766  54.414  1.00  0.00     0.133 C 
BRANCH   5   6
HETATM    6  C   UNL     1      27.703  45.814  54.693  1.00  0.00     0.126 C 
BRANCH   6   7
HETATM    7  C   UNL     1      28.932  45.155  55.302  1.00  0.00    -0.035 A 
HETATM    8  C   UNL     1      29.568  45.677  56.438  1.00  0.00     0.010 A 
HETATM    9  C   UNL     1      30.663  45.021  57.009  1.00  0.00     0.007 A 
HETATM   10  C   UNL     1      31.143  43.828  56.461  1.00  0.00    -0.062 A 
HETATM   11  C   UNL     1      32.284  43.103  57.112  1.00  0.00     0.048 C 
HETATM   12  C   UNL     1      30.503  43.292  55.340  1.00  0.00     0.007 A 
HETATM   13  C   UNL     1      29.413  43.951  54.763  1.00  0.00     0.010 A 
ENDBRANCH   6   7
BRANCH   6  14
HETATM   14  N   UNL     1      27.286  46.987  55.465  1.00  0.00    -0.352 N 
HETATM   15  C   UNL     1      26.404  47.957  55.055  1.00  0.00     0.214 C 
HETATM   16  C   UNL     1      26.145  49.005  56.104  1.00  0.00     0.117 C 
HETATM   17  O   UNL     1      25.858  47.985  53.957  1.00  0.00    -0.274 OA
HETATM   18  H   UNL     1      27.591  47.003  56.429  1.00  0.00     0.163 HD
ENDBRANCH   6  14
ENDBRANCH   5   6
ENDBRANCH   1   5
BRANCH   2  19
HETATM   19  C   UNL     1      24.635  45.768  51.353  1.00  0.00     0.035 A 
HETATM   20  C   UNL     1      24.592  46.986  50.668  1.00  0.00     0.042 A 
HETATM   21  C   UNL     1      23.956  47.093  49.418  1.00  0.00    -0.021 A 
HETATM   22  C   UNL     1      23.378  45.949  48.853  1.00  0.00     0.012 A 
HETATM   23  C   UNL     1      23.418  44.729  49.529  1.00  0.00     0.003 A 
HETATM   24  C   UNL     1      24.035  44.643  50.776  1.00  0.00     0.029 A 
BRANCH  21  25
HETATM   25  C   UNL     1      23.902  48.378  48.736  1.00  0.00     0.010 A 
HETATM   26  C   UNL     1      24.912  49.342  48.495  1.00  0.00     0.152 A 
HETATM   27  N   UNL     1      24.457  50.418  47.846  1.00  0.00    -0.187 NA
HETATM   28  N   UNL     1      23.153  50.154  47.679  1.00  0.00    -0.289 N 
HETATM   29  H   UNL     1      22.579  50.847  47.209  1.00  0.00     0.188 HD
HETATM   30  C   UNL     1      22.770  48.949  48.192  1.00  0.00     0.123 A 
ENDBRANCH  21  25
ENDBRANCH   2  19
TORSDOF 6
ENDMDL
MODEL 3
REMARK VINA RESULT:      -9.1      1.847      3.684
REMARK  6 active torsions:
REMARK  status: ('A' for Active; 'I' for Inactive)
REMARK    1  A    between atoms: C_5  and  C_6 
REMARK    2  A    between atoms: C_6  and  N_7 
REMARK    3  A    between atoms: C_6  and  C_11 
REMARK       I    between atoms: N_7  and  C_8 
REMARK    4  A    between atoms: C_11  and  C_12 
REMARK       I    between atoms: C_12  and  N_13 
REMARK    5  A    between atoms: N_13  and  C_14 
REMARK    6  A    between atoms: C_16  and  C_17 
ROOT
HETATM    1  C   UNL     1      26.632  46.350  53.180  1.00  0.00     0.224 C 
HETATM    2  N   UNL     1      26.996  45.016  53.148  1.00  0.00    -0.327 N 
HETATM    3  O   UNL     1      27.290  47.277  53.644  1.00  0.00    -0.273 OA
HETATM    4  H   UNL     1      26.353  44.388  52.679  1.00  0.00     0.169 HD
ENDROOT
BRANCH   1   5
HETATM    5  C   UNL     1      25.242  46.589  52.629  1.00  0.00     0.133 C 
BRANCH   5   6
HETATM    6  C   UNL     1      25.249  46.589  51.097  1.00  0.00     0.126 C 
BRANCH   6   7
HETATM    7  C   UNL     1      25.086  45.172  50.568  1.00  0.00    -0.035 A 
HETATM    8  C   UNL     1      23.916  44.428  50.786  1.00  0.00     0.010 A 
HETATM    9  C   UNL     1      23.771  43.149  50.242  1.00  0.00     0.007 A 
HETATM   10  C   UNL     1      24.788  42.585  49.465  1.00  0.00    -0.062 A 
HETATM   11  C   UNL     1      24.601  41.235  48.841  1.00  0.00     0.048 C 
HETATM   12  C   UNL     1      25.948  43.328  49.228  1.00  0.00     0.007 A 
HETATM   13  C   UNL     1      26.098  44.605  49.777  1.00  0.00     0.010 A 
ENDBRANCH   6   7
BRANCH   6  14
HETATM   14  N   UNL     1      26.373  47.274  50.454  1.00  0.00    -0.352 N 
HETATM   15  C   UNL     1      26.291  48.376  49.637  1.00  0.00     0.214 C 
HETATM   16  C   UNL     1      27.635  48.874  49.177  1.00  0.00     0.117 C 
HETATM   17  O   UNL     1      25.245  48.926  49.310  1.00  0.00    -0.274 OA
HETATM   18  H   UNL     1      27.291  46.971  50.746  1.00  0.00     0.163 HD
ENDBRANCH   6  14
ENDBRANCH   5   6
ENDBRANCH   1   5
BRANCH   2  19
HETATM   19  C   UNL     1      28.185  44.430  53.627  1.00  0.00     0.035 A 
HETATM   20  C   UNL     1      28.766  44.733  54.861  1.00  0.00     0.042 A 
HETATM   21  C   UNL     1      29.960  44.113  55.273  1.00  0.00    -0.021 A 
HETATM   22  C   UNL     1      30.554  43.164  54.431  1.00  0.00     0.012 A 
HETATM   23  C   UNL     1      29.980  42.855  53.198  1.00  0.00     0.003 A 
HETATM   24  C   UNL     1      28.807  43.492  52.796  1.00  0.00     0.029 A 
BRANCH  21  25
HETATM   25  C   UNL     1      30.559  44.464  56.552  1.00  0.00     0.010 A 
HETATM   26  C   UNL     1      31.552  43.809  57.321  1.00  0.00     0.152 A 
HETATM   27  N   UNL     1      31.822  44.441  58.467  1.00  0.00    -0.187 NA
HETATM   28  N   UNL     1      30.996  45.497  58.443  1.00  0.00    -0.289 N 
HETATM   29  H   UNL     1      31.010  46.136  59.232  1.00  0.00     0.188 HD
HETATM   30  C   UNL     1      30.220  45.558  57.322  1.00  0.00     0.123 A 
ENDBRANCH  21  25
ENDBRANCH   2  19
TORSDOF 6
ENDMDL
MODEL 4
REMARK VINA RESULT:      -8.9      3.604      8.152
REMARK  6 active torsions:
REMARK  status: ('A' for Active; 'I' for Inactive)
REMARK    1  A    between atoms: C_5  and  C_6 
REMARK    2  A    between atoms: C_6  and  N_7 
REMARK    3  A    between atoms: C_6  and  C_11 
REMARK       I    between atoms: N_7  and  C_8 
REMARK    4  A    between atoms: C_11  and  C_12 
REMARK       I    between atoms: C_12  and  N_13 
REMARK    5  A    between atoms: N_13  and  C_14 
REMARK    6  A    between atoms: C_16  and  C_17 
ROOT
HETATM    1  C   UNL     1      26.590  44.139  52.731  1.00  0.00     0.224 C 
HETATM    2  N   UNL     1      26.098  42.856  52.570  1.00  0.00    -0.327 N 
HETATM    3  O   UNL     1      27.031  44.868  51.847  1.00  0.00    -0.273 OA
HETATM    4  H   UNL     1      25.724  42.413  53.403  1.00  0.00     0.169 HD
ENDROOT
BRANCH   1   5
HETATM    5  C   UNL     1      26.610  44.579  54.179  1.00  0.00     0.133 C 
BRANCH   5   6
HETATM    6  C   UNL     1      27.690  45.640  54.417  1.00  0.00     0.126 C 
BRANCH   6   7
HETATM    7  C   UNL     1      28.900  45.018  55.099  1.00  0.00    -0.035 A 
HETATM    8  C   UNL     1      29.496  45.599  56.228  1.00  0.00     0.010 A 
HETATM    9  C   UNL     1      30.573  44.978  56.868  1.00  0.00     0.007 A 
HETATM   10  C   UNL     1      31.075  43.762  56.396  1.00  0.00    -0.062 A 
HETATM   11  C   UNL     1      32.195  43.076  57.120  1.00  0.00     0.048 C 
HETATM   12  C   UNL     1      30.474  43.168  55.282  1.00  0.00     0.007 A 
HETATM   13  C   UNL     1      29.402  43.791  54.637  1.00  0.00     0.010 A 
ENDBRANCH   6   7
BRANCH   6  14
HETATM   14  N   UNL     1      27.259  46.862  55.100  1.00  0.00    -0.352 N 
HETATM   15  C   UNL     1      26.322  47.758  54.647  1.00  0.00     0.214 C 
HETATM   16  C   UNL     1      26.065  48.886  55.610  1.00  0.00     0.117 C 
HETATM   17  O   UNL     1      25.728  47.666  53.578  1.00  0.00    -0.274 OA
HETATM   18  H   UNL     1      27.604  46.977  56.044  1.00  0.00     0.163 HD
ENDBRANCH   6  14
ENDBRANCH   5   6
ENDBRANCH   1   5
BRANCH   2  19
HETATM   19  C   UNL     1      25.990  42.111  51.379  1.00  0.00     0.035 A 
HETATM   20  C   UNL     1      26.858  41.076  51.020  1.00  0.00     0.042 A 
HETATM   21  C   UNL     1      26.694  40.379  49.810  1.00  0.00    -0.021 A 
HETATM   22  C   UNL     1      25.627  40.723  48.970  1.00  0.00     0.012 A 
HETATM   23  C   UNL     1      24.754  41.753  49.321  1.00  0.00     0.003 A 
HETATM   24  C   UNL     1      24.942  42.448  50.515  1.00  0.00     0.029 A 
BRANCH  21  25
HETATM   25  C   UNL     1      27.626  39.322  49.446  1.00  0.00     0.010 A 
HETATM   26  C   UNL     1      28.964  39.385  48.984  1.00  0.00     0.152 A 
HETATM   27  N   UNL     1      29.483  38.180  48.732  1.00  0.00    -0.187 NA
HETATM   28  N   UNL     1      28.478  37.340  49.020  1.00  0.00    -0.289 N 
HETATM   29  H   UNL     1      28.632  36.345  48.894  1.00  0.00     0.188 HD
HETATM   30  C   UNL     1      27.347  37.971  49.451  1.00  0.00     0.123 A 
ENDBRANCH  21  25
ENDBRANCH   2  19
TORSDOF 6
ENDMDL
MODEL 5
REMARK VINA RESULT:      -8.8      3.168      9.056
REMARK  6 active torsions:
REMARK  status: ('A' for Active; 'I' for Inactive)
REMARK    1  A    between atoms: C_5  and  C_6 
REMARK    2  A    between atoms: C_6  and  N_7 
REMARK    3  A    between atoms: C_6  and  C_11 
REMARK       I    between atoms: N_7  and  C_8 
REMARK    4  A    between atoms: C_11  and  C_12 
REMARK       I    between atoms: C_12  and  N_13 
REMARK    5  A    between atoms: N_13  and  C_14 
REMARK    6  A    between atoms: C_16  and  C_17 
ROOT
HETATM    1  C   UNL     1      25.496  47.143  50.759  1.00  0.00     0.224 C 
HETATM    2  N   UNL     1      25.168  47.599  49.494  1.00  0.00    -0.327 N 
HETATM    3  O   UNL     1      25.027  47.539  51.822  1.00  0.00    -0.273 OA
HETATM    4  H   UNL     1      25.616  47.124  48.718  1.00  0.00     0.169 HD
ENDROOT
BRANCH   1   5
HETATM    5  C   UNL     1      26.596  46.104  50.737  1.00  0.00     0.133 C 
BRANCH   5   6
HETATM    6  C   UNL     1      26.173  44.838  51.491  1.00  0.00     0.126 C 
BRANCH   6   7
HETATM    7  C   UNL     1      27.282  44.389  52.432  1.00  0.00    -0.035 A 
HETATM    8  C   UNL     1      28.227  43.422  52.058  1.00  0.00     0.010 A 
HETATM    9  C   UNL     1      29.267  43.067  52.921  1.00  0.00     0.007 A 
HETATM   10  C   UNL     1      29.389  43.672  54.175  1.00  0.00    -0.062 A 
HETATM   11  C   UNL     1      30.539  43.325  55.073  1.00  0.00     0.048 C 
HETATM   12  C   UNL     1      28.462  44.650  54.548  1.00  0.00     0.007 A 
HETATM   13  C   UNL     1      27.417  45.001  53.689  1.00  0.00     0.010 A 
ENDBRANCH   6   7
BRANCH   6  14
HETATM   14  N   UNL     1      25.683  43.728  50.672  1.00  0.00    -0.352 N 
HETATM   15  C   UNL     1      24.369  43.378  50.481  1.00  0.00     0.214 C 
HETATM   16  C   UNL     1      24.194  42.218  49.537  1.00  0.00     0.117 C 
HETATM   17  O   UNL     1      23.413  43.943  51.003  1.00  0.00    -0.274 OA
HETATM   18  H   UNL     1      26.381  43.264  50.106  1.00  0.00     0.163 HD
ENDBRANCH   6  14
ENDBRANCH   5   6
ENDBRANCH   1   5
BRANCH   2  19
HETATM   19  C   UNL     1      24.237  48.598  49.147  1.00  0.00     0.035 A 
HETATM   20  C   UNL     1      22.902  48.602  49.559  1.00  0.00     0.042 A 
HETATM   21  C   UNL     1      22.024  49.629  49.167  1.00  0.00    -0.021 A 
HETATM   22  C   UNL     1      22.515  50.670  48.368  1.00  0.00     0.012 A 
HETATM   23  C   UNL     1      23.847  50.675  47.954  1.00  0.00     0.003 A 
HETATM   24  C   UNL     1      24.700  49.639  48.334  1.00  0.00     0.029 A 
BRANCH  21  25
HETATM   25  C   UNL     1      20.632  49.598  49.589  1.00  0.00     0.010 A 
HETATM   26  C   UNL     1      19.858  50.544  50.304  1.00  0.00     0.152 A 
HETATM   27  N   UNL     1      18.605  50.133  50.521  1.00  0.00    -0.187 NA
HETATM   28  N   UNL     1      18.573  48.918  49.956  1.00  0.00    -0.289 N 
HETATM   29  H   UNL     1      17.708  48.390  50.002  1.00  0.00     0.188 HD
HETATM   30  C   UNL     1      19.757  48.550  49.385  1.00  0.00     0.123 A 
ENDBRANCH  21  25
ENDBRANCH   2  19
TORSDOF 6
ENDMDL
MODEL 6
REMARK VINA RESULT:      -8.7      2.812      8.530
REMARK  6 active torsions:
REMARK  status: ('A' for Active; 'I' for Inactive)
REMARK    1  A    between atoms: C_5  and  C_6 
REMARK    2  A    between atoms: C_6  and  N_7 
REMARK    3  A    between atoms: C_6  and  C_11 
REMARK       I    between atoms: N_7  and  C_8 
REMARK    4  A    between atoms: C_11  and  C_12 
REMARK       I    between atoms: C_12  and  N_13 
REMARK    5  A    between atoms: N_13  and  C_14 
REMARK    6  A    between atoms: C_16  and  C_17 
ROOT
HETATM    1  C   UNL     1      25.087  45.145  51.547  1.00  0.00     0.224 C 
HETATM    2  N   UNL     1      25.613  46.424  51.518  1.00  0.00    -0.327 N 
HETATM    3  O   UNL     1      24.374  44.628  50.691  1.00  0.00    -0.273 OA
HETATM    4  H   UNL     1      26.226  46.673  52.287  1.00  0.00     0.169 HD
ENDROOT
BRANCH   1   5
HETATM    5  C   UNL     1      25.418  44.407  52.827  1.00  0.00     0.133 C 
BRANCH   5   6
HETATM    6  C   UNL     1      26.480  43.329  52.583  1.00  0.00     0.126 C 
BRANCH   6   7
HETATM    7  C   UNL     1      27.705  43.590  53.448  1.00  0.00    -0.035 A 
HETATM    8  C   UNL     1      27.810  44.726  54.264  1.00  0.00     0.010 A 
HETATM    9  C   UNL     1      28.921  44.914  55.089  1.00  0.00     0.007 A 
HETATM   10  C   UNL     1      29.951  43.968  55.122  1.00  0.00    -0.062 A 
HETATM   11  C   UNL     1      31.115  44.150  56.050  1.00  0.00     0.048 C 
HETATM   12  C   UNL     1      29.845  42.824  54.325  1.00  0.00     0.007 A 
HETATM   13  C   UNL     1      28.737  42.639  53.493  1.00  0.00     0.010 A 
ENDBRANCH   6   7
BRANCH   6  14
HETATM   14  N   UNL     1      26.851  43.090  51.187  1.00  0.00    -0.352 N 
HETATM   15  C   UNL     1      26.632  41.935  50.476  1.00  0.00     0.214 C 
HETATM   16  C   UNL     1      27.086  42.025  49.043  1.00  0.00     0.117 C 
HETATM   17  O   UNL     1      26.110  40.923  50.932  1.00  0.00    -0.274 OA
HETATM   18  H   UNL     1      27.187  43.898  50.682  1.00  0.00     0.163 HD
ENDBRANCH   6  14
ENDBRANCH   5   6
ENDBRANCH   1   5
BRANCH   2  19
HETATM   19  C   UNL     1      25.457  47.403  50.516  1.00  0.00     0.035 A 
HETATM   20  C   UNL     1      24.222  47.827  50.020  1.00  0.00     0.042 A 
HETATM   21  C   UNL     1      24.141  48.805  49.013  1.00  0.00    -0.021 A 
HETATM   22  C   UNL     1      25.326  49.370  48.523  1.00  0.00     0.012 A 
HETATM   23  C   UNL     1      26.564  48.954  49.013  1.00  0.00     0.003 A 
HETATM   24  C   UNL     1      26.628  47.969  49.998  1.00  0.00     0.029 A 
BRANCH  21  25
HETATM   25  C   UNL     1      22.844  49.212  48.495  1.00  0.00     0.010 A 
HETATM   26  C   UNL     1      22.445  50.389  47.814  1.00  0.00     0.152 A 
HETATM   27  N   UNL     1      21.142  50.401  47.519  1.00  0.00    -0.187 NA
HETATM   28  N   UNL     1      20.697  49.239  48.018  1.00  0.00    -0.289 N 
HETATM   29  H   UNL     1      19.711  49.021  47.922  1.00  0.00     0.188 HD
HETATM   30  C   UNL     1      21.673  48.491  48.611  1.00  0.00     0.123 A 
ENDBRANCH  21  25
ENDBRANCH   2  19
TORSDOF 6
ENDMDL
MODEL 7
REMARK VINA RESULT:      -8.7      3.551      5.167
REMARK  6 active torsions:
REMARK  status: ('A' for Active; 'I' for Inactive)
REMARK    1  A    between atoms: C_5  and  C_6 
REMARK    2  A    between atoms: C_6  and  N_7 
REMARK    3  A    between atoms: C_6  and  C_11 
REMARK       I    between atoms: N_7  and  C_8 
REMARK    4  A    between atoms: C_11  and  C_12 
REMARK       I    between atoms: C_12  and  N_13 
REMARK    5  A    between atoms: N_13  and  C_14 
REMARK    6  A    between atoms: C_16  and  C_17 
ROOT
HETATM    1  C   UNL     1      24.427  45.523  49.794  1.00  0.00     0.224 C 
HETATM    2  N   UNL     1      24.506  45.544  51.175  1.00  0.00    -0.327 N 
HETATM    3  O   UNL     1      25.088  44.819  49.035  1.00  0.00    -0.273 OA
HETATM    4  H   UNL     1      23.847  46.151  51.651  1.00  0.00     0.169 HD
ENDROOT
BRANCH   1   5
HETATM    5  C   UNL     1      23.454  46.547  49.249  1.00  0.00     0.133 C 
BRANCH   5   6
HETATM    6  C   UNL     1      23.890  47.969  49.614  1.00  0.00     0.126 C 
BRANCH   6   7
HETATM    7  C   UNL     1      22.811  48.969  49.224  1.00  0.00    -0.035 A 
HETATM    8  C   UNL     1      21.462  48.600  49.112  1.00  0.00     0.010 A 
HETATM    9  C   UNL     1      20.484  49.550  48.805  1.00  0.00     0.007 A 
HETATM   10  C   UNL     1      20.830  50.890  48.606  1.00  0.00    -0.062 A 
HETATM   11  C   UNL     1      19.768  51.912  48.331  1.00  0.00     0.048 C 
HETATM   12  C   UNL     1      22.170  51.268  48.734  1.00  0.00     0.007 A 
HETATM   13  C   UNL     1      23.150  50.318  49.034  1.00  0.00     0.010 A 
ENDBRANCH   6   7
BRANCH   6  14
HETATM   14  N   UNL     1      25.208  48.388  49.132  1.00  0.00    -0.352 N 
HETATM   15  C   UNL     1      26.387  48.323  49.834  1.00  0.00     0.214 C 
HETATM   16  C   UNL     1      27.578  48.784  49.037  1.00  0.00     0.117 C 
HETATM   17  O   UNL     1      26.491  47.923  50.989  1.00  0.00    -0.274 OA
HETATM   18  H   UNL     1      25.255  48.631  48.152  1.00  0.00     0.163 HD
ENDBRANCH   6  14
ENDBRANCH   5   6
ENDBRANCH   1   5
BRANCH   2  19
HETATM   19  C   UNL     1      25.342  44.774  52.008  1.00  0.00     0.035 A 
HETATM   20  C   UNL     1      26.089  43.678  51.571  1.00  0.00     0.042 A 
HETATM   21  C   UNL     1      26.899  42.949  52.460  1.00  0.00    -0.021 A 
HETATM   22  C   UNL     1      26.964  43.354  53.800  1.00  0.00     0.012 A 
HETATM   23  C   UNL     1      26.223  44.449  54.245  1.00  0.00     0.003 A 
HETATM   24  C   UNL     1      25.410  45.148  53.355  1.00  0.00     0.029 A 
BRANCH  21  25
HETATM   25  C   UNL     1      27.648  41.796  51.986  1.00  0.00     0.010 A 
HETATM   26  C   UNL     1      27.574  41.080  50.765  1.00  0.00     0.152 A 
HETATM   27  N   UNL     1      28.423  40.050  50.715  1.00  0.00    -0.187 NA
HETATM   28  N   UNL     1      29.037  40.093  51.907  1.00  0.00    -0.289 N 
HETATM   29  H   UNL     1      29.736  39.387  52.113  1.00  0.00     0.188 HD
HETATM   30  C   UNL     1      28.611  41.116  52.703  1.00  0.00     0.123 A 
ENDBRANCH  21  25
ENDBRANCH   2  19
TORSDOF 6
ENDMDL
MODEL 8
REMARK VINA RESULT:      -8.6      3.607      8.480
REMARK  6 active torsions:
REMARK  status: ('A' for Active; 'I' for Inactive)
REMARK    1  A    between atoms: C_5  and  C_6 
REMARK    2  A    between atoms: C_6  and  N_7 
REMARK    3  A    between atoms: C_6  and  C_11 
REMARK       I    between atoms: N_7  and  C_8 
REMARK    4  A    between atoms: C_11  and  C_12 
REMARK       I    between atoms: C_12  and  N_13 
REMARK    5  A    between atoms: N_13  and  C_14 
REMARK    6  A    between atoms: C_16  and  C_17 
ROOT
HETATM    1  C   UNL     1      28.737  41.385  52.452  1.00  0.00     0.224 C 
HETATM    2  N   UNL     1      28.728  41.418  51.069  1.00  0.00    -0.327 N 
HETATM    3  O   UNL     1      27.969  40.755  53.174  1.00  0.00    -0.273 OA
HETATM    4  H   UNL     1      29.470  41.952  50.629  1.00  0.00     0.169 HD
ENDROOT
BRANCH   1   5
HETATM    5  C   UNL     1      29.788  42.298  53.050  1.00  0.00     0.133 C 
BRANCH   5   6
HETATM    6  C   UNL     1      29.186  43.654  53.431  1.00  0.00     0.126 C 
BRANCH   6   7
HETATM    7  C   UNL     1      29.662  44.073  54.815  1.00  0.00    -0.035 A 
HETATM    8  C   UNL     1      30.683  43.386  55.488  1.00  0.00     0.010 A 
HETATM    9  C   UNL     1      31.139  43.824  56.735  1.00  0.00     0.007 A 
HETATM   10  C   UNL     1      30.587  44.961  57.335  1.00  0.00    -0.062 A 
HETATM   11  C   UNL     1      31.119  45.455  58.647  1.00  0.00     0.048 C 
HETATM   12  C   UNL     1      29.582  45.661  56.661  1.00  0.00     0.007 A 
HETATM   13  C   UNL     1      29.120  45.219  55.418  1.00  0.00     0.010 A 
ENDBRANCH   6   7
BRANCH   6  14
HETATM   14  N   UNL     1      27.732  43.778  53.305  1.00  0.00    -0.352 N 
HETATM   15  C   UNL     1      27.045  44.161  52.179  1.00  0.00     0.214 C 
HETATM   16  C   UNL     1      25.550  44.137  52.359  1.00  0.00     0.117 C 
HETATM   17  O   UNL     1      27.568  44.483  51.118  1.00  0.00    -0.274 OA
HETATM   18  H   UNL     1      27.197  43.429  54.088  1.00  0.00     0.163 HD
ENDBRANCH   6  14
ENDBRANCH   5   6
ENDBRANCH   1   5
BRANCH   2  19
HETATM   19  C   UNL     1      27.855  40.744  50.192  1.00  0.00     0.035 A 
HETATM   20  C   UNL     1      26.607  41.235  49.798  1.00  0.00     0.042 A 
HETATM   21  C   UNL     1      25.783  40.505  48.923  1.00  0.00    -0.021 A 
HETATM   22  C   UNL     1      26.241  39.277  48.430  1.00  0.00     0.012 A 
HETATM   23  C   UNL     1      27.486  38.780  48.816  1.00  0.00     0.003 A 
HETATM   24  C   UNL     1      28.283  39.506  49.699  1.00  0.00     0.029 A 
BRANCH  21  25
HETATM   25  C   UNL     1      24.477  41.026  48.548  1.00  0.00     0.010 A 
HETATM   26  C   UNL     1      23.658  42.005  49.162  1.00  0.00     0.152 A 
HETATM   27  N   UNL     1      22.502  42.192  48.519  1.00  0.00    -0.187 NA
HETATM   28  N   UNL     1      22.570  41.328  47.496  1.00  0.00    -0.289 N 
HETATM   29  H   UNL     1      21.783  41.278  46.856  1.00  0.00     0.188 HD
HETATM   30  C   UNL     1      23.728  40.607  47.467  1.00  0.00     0.123 A 
ENDBRANCH  21  25
ENDBRANCH   2  19
TORSDOF 6
ENDMDL
MODEL 9
REMARK VINA RESULT:      -8.5      3.551      8.686
REMARK  6 active torsions:
REMARK  status: ('A' for Active; 'I' for Inactive)
REMARK    1  A    between atoms: C_5  and  C_6 
REMARK    2  A    between atoms: C_6  and  N_7 
REMARK    3  A    between atoms: C_6  and  C_11 
REMARK       I    between atoms: N_7  and  C_8 
REMARK    4  A    between atoms: C_11  and  C_12 
REMARK       I    between atoms: C_12  and  N_13 
REMARK    5  A    between atoms: N_13  and  C_14 
REMARK    6  A    between atoms: C_16  and  C_17 
ROOT
HETATM    1  C   UNL     1      27.756  40.914  51.471  1.00  0.00     0.224 C 
HETATM    2  N   UNL     1      28.750  40.484  50.611  1.00  0.00    -0.327 N 
HETATM    3  O   UNL     1      26.545  40.837  51.285  1.00  0.00    -0.273 OA
HETATM    4  H   UNL     1      29.703  40.577  50.945  1.00  0.00     0.169 HD
ENDROOT
BRANCH   1   5
HETATM    5  C   UNL     1      28.308  41.595  52.706  1.00  0.00     0.133 C 
BRANCH   5   6
HETATM    6  C   UNL     1      28.330  43.117  52.532  1.00  0.00     0.126 C 
BRANCH   6   7
HETATM    7  C   UNL     1      28.938  43.780  53.760  1.00  0.00    -0.035 A 
HETATM    8  C   UNL     1      28.356  44.906  54.361  1.00  0.00     0.010 A 
HETATM    9  C   UNL     1      28.904  45.462  55.520  1.00  0.00     0.007 A 
HETATM   10  C   UNL     1      30.043  44.903  56.107  1.00  0.00    -0.062 A 
HETATM   11  C   UNL     1      30.593  45.473  57.380  1.00  0.00     0.048 C 
HETATM   12  C   UNL     1      30.618  43.770  55.525  1.00  0.00     0.007 A 
HETATM   13  C   UNL     1      30.075  43.217  54.361  1.00  0.00     0.010 A 
ENDBRANCH   6   7
BRANCH   6  14
HETATM   14  N   UNL     1      27.062  43.746  52.157  1.00  0.00    -0.352 N 
HETATM   15  C   UNL     1      26.797  44.396  50.976  1.00  0.00     0.214 C 
HETATM   16  C   UNL     1      25.377  44.888  50.875  1.00  0.00     0.117 C 
HETATM   17  O   UNL     1      27.610  44.563  50.073  1.00  0.00    -0.274 OA
HETATM   18  H   UNL     1      26.288  43.570  52.782  1.00  0.00     0.163 HD
ENDBRANCH   6  14
ENDBRANCH   5   6
ENDBRANCH   1   5
BRANCH   2  19
HETATM   19  C   UNL     1      28.601  39.866  49.353  1.00  0.00     0.035 A 
HETATM   20  C   UNL     1      28.082  40.505  48.223  1.00  0.00     0.042 A 
HETATM   21  C   UNL     1      27.955  39.824  46.999  1.00  0.00    -0.021 A 
HETATM   22  C   UNL     1      28.378  38.491  46.919  1.00  0.00     0.012 A 
HETATM   23  C   UNL     1      28.899  37.846  48.041  1.00  0.00     0.003 A 
HETATM   24  C   UNL     1      29.000  38.529  49.253  1.00  0.00     0.029 A 
BRANCH  21  25
HETATM   25  C   UNL     1      27.388  40.503  45.843  1.00  0.00     0.010 A 
HETATM   26  C   UNL     1      27.994  40.957  44.646  1.00  0.00     0.152 A 
HETATM   27  N   UNL     1      27.131  41.563  43.826  1.00  0.00    -0.187 NA
HETATM   28  N   UNL     1      25.971  41.510  44.497  1.00  0.00    -0.289 N 
HETATM   29  H   UNL     1      25.149  41.926  44.070  1.00  0.00     0.188 HD
HETATM   30  C   UNL     1      26.070  40.888  45.707  1.00  0.00     0.123 A 
ENDBRANCH  21  25
ENDBRANCH   2  19
TORSDOF 6
ENDMDL
MODEL 10
REMARK VINA RESULT:      -8.4      4.964      8.049
REMARK  6 active torsions:
REMARK  status: ('A' for Active; 'I' for Inactive)
REMARK    1  A    between atoms: C_5  and  C_6 
REMARK    2  A    between atoms: C_6  and  N_7 
REMARK    3  A    between atoms: C_6  and  C_11 
REMARK       I    between atoms: N_7  and  C_8 
REMARK    4  A    between atoms: C_11  and  C_12 
REMARK       I    between atoms: C_12  and  N_13 
REMARK    5  A    between atoms: N_13  and  C_14 
REMARK    6  A    between atoms: C_16  and  C_17 
ROOT
HETATM    1  C   UNL     1      22.383  50.610  49.104  1.00  0.00     0.224 C 
HETATM    2  N   UNL     1      23.329  49.923  48.363  1.00  0.00    -0.327 N 
HETATM    3  O   UNL     1      22.337  50.699  50.327  1.00  0.00    -0.273 OA
HETATM    4  H   UNL     1      23.247  49.997  47.355  1.00  0.00     0.169 HD
ENDROOT
BRANCH   1   5
HETATM    5  C   UNL     1      21.301  51.225  48.242  1.00  0.00     0.133 C 
BRANCH   5   6
HETATM    6  C   UNL     1      20.144  50.243  48.027  1.00  0.00     0.126 C 
BRANCH   6   7
HETATM    7  C   UNL     1      18.850  50.823  48.581  1.00  0.00    -0.035 A 
HETATM    8  C   UNL     1      18.840  51.940  49.429  1.00  0.00     0.010 A 
HETATM    9  C   UNL     1      17.635  52.486  49.880  1.00  0.00     0.007 A 
HETATM   10  C   UNL     1      16.413  51.930  49.489  1.00  0.00    -0.062 A 
HETATM   11  C   UNL     1      15.123  52.555  49.933  1.00  0.00     0.048 C 
HETATM   12  C   UNL     1      16.414  50.829  48.629  1.00  0.00     0.007 A 
HETATM   13  C   UNL     1      17.619  50.277  48.184  1.00  0.00     0.010 A 
ENDBRANCH   6   7
BRANCH   6  14
HETATM   14  N   UNL     1      20.360  48.873  48.496  1.00  0.00    -0.352 N 
HETATM   15  C   UNL     1      20.258  47.731  47.740  1.00  0.00     0.214 C 
HETATM   16  C   UNL     1      20.594  46.479  48.507  1.00  0.00     0.117 C 
HETATM   17  O   UNL     1      19.939  47.704  46.556  1.00  0.00    -0.274 OA
HETATM   18  H   UNL     1      20.736  48.788  49.431  1.00  0.00     0.163 HD
ENDBRANCH   6  14
ENDBRANCH   5   6
ENDBRANCH   1   5
BRANCH   2  19
HETATM   19  C   UNL     1      24.434  49.188  48.836  1.00  0.00     0.035 A 
HETATM   20  C   UNL     1      24.331  48.012  49.584  1.00  0.00     0.042 A 
HETATM   21  C   UNL     1      25.479  47.333  50.031  1.00  0.00    -0.021 A 
HETATM   22  C   UNL     1      26.740  47.843  49.695  1.00  0.00     0.012 A 
HETATM   23  C   UNL     1      26.852  49.015  48.946  1.00  0.00     0.003 A 
HETATM   24  C   UNL     1      25.705  49.688  48.528  1.00  0.00     0.029 A 
BRANCH  21  25
HETATM   25  C   UNL     1      25.346  46.124  50.830  1.00  0.00     0.010 A 
HETATM   26  C   UNL     1      24.282  45.194  50.934  1.00  0.00     0.152 A 
HETATM   27  N   UNL     1      24.533  44.214  51.806  1.00  0.00    -0.187 NA
HETATM   28  N   UNL     1      25.753  44.517  52.273  1.00  0.00    -0.289 N 
HETATM   29  H   UNL     1      26.164  43.908  52.974  1.00  0.00     0.188 HD
HETATM   30  C   UNL     1      26.283  45.647  51.723  1.00  0.00     0.123 A 
ENDBRANCH  21  25
ENDBRANCH   2  19
TORSDOF 6
ENDMDL
