MODEL 1
REMARK VINA RESULT:     -10.1      0.000      0.000
REMARK  6 active torsions:
REMARK  status: ('A' for Active; 'I' for Inactive)
REMARK    1  A    between atoms: C_6  and  S_7 
REMARK    2  A    between atoms: S_7  and  C_8 
REMARK    3  A    between atoms: C_8  and  C_9 
REMARK    4  A    between atoms: C_9  and  C_10 
REMARK    5  A    between atoms: C_19  and  N_20 
REMARK    6  A    between atoms: N_20  and  C_21 
ROOT
HETATM    1  C   UNL     1      26.439  50.387  48.122  1.00  0.00     0.001 A 
HETATM    2  C   UNL     1      25.189  49.774  48.172  1.00  0.00     0.018 A 
HETATM    3  C   UNL     1      24.984  48.596  48.940  1.00  0.00     0.039 A 
HETATM    4  C   UNL     1      26.060  48.039  49.640  1.00  0.00     0.073 A 
HETATM    5  N   UNL     1      25.954  46.922  50.363  1.00  0.00    -0.222 NA
HETATM    6  C   UNL     1      24.755  46.327  50.398  1.00  0.00     0.191 A 
HETATM    7  N   UNL     1      23.659  46.773  49.775  1.00  0.00    -0.204 NA
HETATM    8  C   UNL     1      23.764  47.904  49.057  1.00  0.00     0.143 A 
HETATM    9  C   UNL     1      27.297  48.671  49.576  1.00  0.00     0.032 A 
HETATM   10  C   UNL     1      27.495  49.836  48.831  1.00  0.00     0.002 A 
ENDROOT
BRANCH   6  11
HETATM   11  S   UNL     1      24.573  44.832  51.337  1.00  0.00    -0.082 SA
BRANCH  11  12
HETATM   12  C   UNL     1      25.964  45.021  52.488  1.00  0.00     0.166 C 
BRANCH  12  13
HETATM   13  C   UNL     1      27.166  44.181  52.094  1.00  0.00     0.169 C 
HETATM   14  O   UNL     1      27.305  43.645  50.996  1.00  0.00    -0.291 OA
BRANCH  13  15
HETATM   15  C   UNL     1      28.244  43.982  53.117  1.00  0.00     0.011 A 
HETATM   16  C   UNL     1      29.255  43.022  52.971  1.00  0.00     0.017 A 
HETATM   17  C   UNL     1      30.237  42.878  53.958  1.00  0.00     0.025 A 
HETATM   18  C   UNL     1      30.215  43.691  55.090  1.00  0.00     0.034 A 
HETATM   19 CL   UNL     1      31.426  43.508  56.297  1.00  0.00    -0.084 Cl
HETATM   20  C   UNL     1      29.219  44.651  55.245  1.00  0.00     0.025 A 
HETATM   21  C   UNL     1      28.236  44.796  54.261  1.00  0.00     0.017 A 
ENDBRANCH  13  15
ENDBRANCH  12  13
ENDBRANCH  11  12
ENDBRANCH   6  11
BRANCH   8  22
HETATM   22  N   UNL     1      22.619  48.425  48.397  1.00  0.00    -0.340 N 
HETATM   23  H   UNL     1      22.918  48.969  47.593  1.00  0.00     0.167 HD
BRANCH  22  24
HETATM   24  C   UNL     1      21.417  48.932  48.942  1.00  0.00     0.036 A 
HETATM   25  C   UNL     1      21.193  50.320  48.889  1.00  0.00     0.069 A 
HETATM   26  C   UNL     1      19.984  50.816  49.334  1.00  0.00     0.107 A 
HETATM   27  C   UNL     1      18.993  49.993  49.805  1.00  0.00     0.105 A 
HETATM   28  O   UNL     1      19.623  52.128  49.351  1.00  0.00    -0.323 OA
HETATM   29  O   UNL     1      17.882  50.679  50.184  1.00  0.00    -0.323 OA
HETATM   30  C   UNL     1      19.154  48.628  49.850  1.00  0.00     0.042 A 
HETATM   31  C   UNL     1      18.289  52.032  49.892  1.00  0.00     0.352 A 
HETATM   32  C   UNL     1      20.371  48.099  49.398  1.00  0.00     0.032 A 
ENDBRANCH  22  24
ENDBRANCH   8  22
TORSDOF 6
ENDMDL
MODEL 2
REMARK VINA RESULT:      -9.9      2.097      2.514
REMARK  6 active torsions:
REMARK  status: ('A' for Active; 'I' for Inactive)
REMARK    1  A    between atoms: C_6  and  S_7 
REMARK    2  A    between atoms: S_7  and  C_8 
REMARK    3  A    between atoms: C_8  and  C_9 
REMARK    4  A    between atoms: C_9  and  C_10 
REMARK    5  A    between atoms: C_19  and  N_20 
REMARK    6  A    between atoms: N_20  and  C_21 
ROOT
HETATM    1  C   UNL     1      26.168  50.165  48.372  1.00  0.00     0.001 A 
HETATM    2  C   UNL     1      25.029  49.447  48.730  1.00  0.00     0.018 A 
HETATM    3  C   UNL     1      25.134  48.203  49.407  1.00  0.00     0.039 A 
HETATM    4  C   UNL     1      26.401  47.688  49.701  1.00  0.00     0.073 A 
HETATM    5  N   UNL     1      26.582  46.515  50.313  1.00  0.00    -0.222 NA
HETATM    6  C   UNL     1      25.486  45.820  50.644  1.00  0.00     0.191 A 
HETATM    7  N   UNL     1      24.230  46.218  50.418  1.00  0.00    -0.204 NA
HETATM    8  C   UNL     1      24.048  47.403  49.812  1.00  0.00     0.143 A 
HETATM    9  C   UNL     1      27.522  48.424  49.336  1.00  0.00     0.032 A 
HETATM   10  C   UNL     1      27.419  49.654  48.681  1.00  0.00     0.002 A 
ENDROOT
BRANCH   6  11
HETATM   11  S   UNL     1      25.683  44.249  51.446  1.00  0.00    -0.082 SA
BRANCH  11  12
HETATM   12  C   UNL     1      27.362  44.450  52.106  1.00  0.00     0.166 C 
BRANCH  12  13
HETATM   13  C   UNL     1      27.369  44.891  53.559  1.00  0.00     0.169 C 
HETATM   14  O   UNL     1      26.477  45.554  54.085  1.00  0.00    -0.291 OA
BRANCH  13  15
HETATM   15  C   UNL     1      28.549  44.504  54.401  1.00  0.00     0.011 A 
HETATM   16  C   UNL     1      29.197  43.268  54.269  1.00  0.00     0.017 A 
HETATM   17  C   UNL     1      30.293  42.957  55.082  1.00  0.00     0.025 A 
HETATM   18  C   UNL     1      30.747  43.878  56.025  1.00  0.00     0.034 A 
HETATM   19 CL   UNL     1      32.095  43.489  57.019  1.00  0.00    -0.084 Cl
HETATM   20  C   UNL     1      30.116  45.110  56.163  1.00  0.00     0.025 A 
HETATM   21  C   UNL     1      29.019  45.422  55.353  1.00  0.00     0.017 A 
ENDBRANCH  13  15
ENDBRANCH  12  13
ENDBRANCH  11  12
ENDBRANCH   6  11
BRANCH   8  22
HETATM   22  N   UNL     1      22.729  47.874  49.573  1.00  0.00    -0.340 N 
HETATM   23  H   UNL     1      22.245  47.974  50.460  1.00  0.00     0.167 HD
BRANCH  22  24
HETATM   24  C   UNL     1      21.830  47.544  48.532  1.00  0.00     0.036 A 
HETATM   25  C   UNL     1      20.654  48.305  48.400  1.00  0.00     0.069 A 
HETATM   26  C   UNL     1      19.814  48.053  47.333  1.00  0.00     0.107 A 
HETATM   27  C   UNL     1      20.106  47.098  46.392  1.00  0.00     0.105 A 
HETATM   28  O   UNL     1      18.644  48.698  47.075  1.00  0.00    -0.323 OA
HETATM   29  O   UNL     1      19.157  47.015  45.423  1.00  0.00    -0.323 OA
HETATM   30  C   UNL     1      21.257  46.350  46.463  1.00  0.00     0.042 A 
HETATM   31  C   UNL     1      18.234  48.033  45.862  1.00  0.00     0.352 A 
HETATM   32  C   UNL     1      22.129  46.591  47.534  1.00  0.00     0.032 A 
ENDBRANCH  22  24
ENDBRANCH   8  22
TORSDOF 6
ENDMDL
MODEL 3
REMARK VINA RESULT:      -9.7      4.514      9.970
REMARK  6 active torsions:
REMARK  status: ('A' for Active; 'I' for Inactive)
REMARK    1  A    between atoms: C_6  and  S_7 
REMARK    2  A    between atoms: S_7  and  C_8 
REMARK    3  A    between atoms: C_8  and  C_9 
REMARK    4  A    between atoms: C_9  and  C_10 
REMARK    5  A    between atoms: C_19  and  N_20 
REMARK    6  A    between atoms: N_20  and  C_21 
ROOT
HETATM    1  C   UNL     1      30.815  43.106  55.693  1.00  0.00     0.001 A 
HETATM    2  C   UNL     1      29.762  42.705  54.875  1.00  0.00     0.018 A 
HETATM    3  C   UNL     1      28.784  43.637  54.434  1.00  0.00     0.039 A 
HETATM    4  C   UNL     1      28.876  44.971  54.845  1.00  0.00     0.073 A 
HETATM    5  N   UNL     1      27.984  45.900  54.493  1.00  0.00    -0.222 NA
HETATM    6  C   UNL     1      26.964  45.509  53.718  1.00  0.00     0.191 A 
HETATM    7  N   UNL     1      26.781  44.266  53.262  1.00  0.00    -0.204 NA
HETATM    8  C   UNL     1      27.686  43.333  53.607  1.00  0.00     0.143 A 
HETATM    9  C   UNL     1      29.938  45.348  55.659  1.00  0.00     0.032 A 
HETATM   10  C   UNL     1      30.906  44.434  56.082  1.00  0.00     0.002 A 
ENDROOT
BRANCH   6  11
HETATM   11  S   UNL     1      25.748  46.710  53.238  1.00  0.00    -0.082 SA
BRANCH  11  12
HETATM   12  C   UNL     1      25.056  45.880  51.779  1.00  0.00     0.166 C 
BRANCH  12  13
HETATM   13  C   UNL     1      25.688  46.357  50.483  1.00  0.00     0.169 C 
HETATM   14  O   UNL     1      26.676  45.841  49.964  1.00  0.00    -0.291 OA
BRANCH  13  15
HETATM   15  C   UNL     1      25.074  47.544  49.803  1.00  0.00     0.011 A 
HETATM   16  C   UNL     1      23.687  47.704  49.670  1.00  0.00     0.017 A 
HETATM   17  C   UNL     1      23.167  48.831  49.024  1.00  0.00     0.025 A 
HETATM   18  C   UNL     1      24.027  49.802  48.511  1.00  0.00     0.034 A 
HETATM   19 CL   UNL     1      23.380  51.184  47.719  1.00  0.00    -0.084 Cl
HETATM   20  C   UNL     1      25.405  49.657  48.639  1.00  0.00     0.025 A 
HETATM   21  C   UNL     1      25.927  48.531  49.284  1.00  0.00     0.017 A 
ENDBRANCH  13  15
ENDBRANCH  12  13
ENDBRANCH  11  12
ENDBRANCH   6  11
BRANCH   8  22
HETATM   22  N   UNL     1      27.541  42.004  53.127  1.00  0.00    -0.340 N 
HETATM   23  H   UNL     1      27.816  41.355  53.858  1.00  0.00     0.167 HD
BRANCH  22  24
HETATM   24  C   UNL     1      27.810  41.475  51.843  1.00  0.00     0.036 A 
HETATM   25  C   UNL     1      28.555  40.285  51.754  1.00  0.00     0.069 A 
HETATM   26  C   UNL     1      28.745  39.710  50.513  1.00  0.00     0.107 A 
HETATM   27  C   UNL     1      28.211  40.255  49.373  1.00  0.00     0.105 A 
HETATM   28  O   UNL     1      29.443  38.569  50.266  1.00  0.00    -0.323 OA
HETATM   29  O   UNL     1      28.507  39.531  48.262  1.00  0.00    -0.323 OA
HETATM   30  C   UNL     1      27.452  41.401  49.414  1.00  0.00     0.042 A 
HETATM   31  C   UNL     1      29.287  38.463  48.836  1.00  0.00     0.352 A 
HETATM   32  C   UNL     1      27.240  42.001  50.663  1.00  0.00     0.032 A 
ENDBRANCH  22  24
ENDBRANCH   8  22
TORSDOF 6
ENDMDL
MODEL 4
REMARK VINA RESULT:      -9.5      2.086      3.905
REMARK  6 active torsions:
REMARK  status: ('A' for Active; 'I' for Inactive)
REMARK    1  A    between atoms: C_6  and  S_7 
REMARK    2  A    between atoms: S_7  and  C_8 
REMARK    3  A    between atoms: C_8  and  C_9 
REMARK    4  A    between atoms: C_9  and  C_10 
REMARK    5  A    between atoms: C_19  and  N_20 
REMARK    6  A    between atoms: N_20  and  C_21 
ROOT
HETATM    1  C   UNL     1      26.121  47.169  53.905  1.00  0.00     0.001 A 
HETATM    2  C   UNL     1      25.946  47.236  52.524  1.00  0.00     0.018 A 
HETATM    3  C   UNL     1      25.471  46.114  51.793  1.00  0.00     0.039 A 
HETATM    4  C   UNL     1      25.194  44.923  52.472  1.00  0.00     0.073 A 
HETATM    5  N   UNL     1      24.768  43.819  51.854  1.00  0.00    -0.222 NA
HETATM    6  C   UNL     1      24.613  43.882  50.525  1.00  0.00     0.191 A 
HETATM    7  N   UNL     1      24.841  44.966  49.777  1.00  0.00    -0.204 NA
HETATM    8  C   UNL     1      25.259  46.080  50.402  1.00  0.00     0.143 A 
HETATM    9  C   UNL     1      25.374  44.881  53.850  1.00  0.00     0.032 A 
HETATM   10  C   UNL     1      25.830  45.989  54.570  1.00  0.00     0.002 A 
ENDROOT
BRANCH   6  11
HETATM   11  S   UNL     1      24.062  42.432  49.662  1.00  0.00    -0.082 SA
BRANCH  11  12
HETATM   12  C   UNL     1      25.437  41.309  50.039  1.00  0.00     0.166 C 
BRANCH  12  13
HETATM   13  C   UNL     1      26.793  41.977  49.895  1.00  0.00     0.169 C 
HETATM   14  O   UNL     1      27.288  42.312  48.821  1.00  0.00    -0.291 OA
BRANCH  13  15
HETATM   15  C   UNL     1      27.583  42.231  51.144  1.00  0.00     0.011 A 
HETATM   16  C   UNL     1      28.212  43.456  51.405  1.00  0.00     0.017 A 
HETATM   17  C   UNL     1      28.938  43.638  52.587  1.00  0.00     0.025 A 
HETATM   18  C   UNL     1      29.037  42.601  53.513  1.00  0.00     0.034 A 
HETATM   19 CL   UNL     1      29.931  42.833  54.964  1.00  0.00    -0.084 Cl
HETATM   20  C   UNL     1      28.414  41.380  53.270  1.00  0.00     0.025 A 
HETATM   21  C   UNL     1      27.689  41.196  52.088  1.00  0.00     0.017 A 
ENDBRANCH  13  15
ENDBRANCH  12  13
ENDBRANCH  11  12
ENDBRANCH   6  11
BRANCH   8  22
HETATM   22  N   UNL     1      25.492  47.262  49.649  1.00  0.00    -0.340 N 
HETATM   23  H   UNL     1      26.368  47.679  49.948  1.00  0.00     0.167 HD
BRANCH  22  24
HETATM   24  C   UNL     1      24.577  48.247  49.210  1.00  0.00     0.036 A 
HETATM   25  C   UNL     1      23.207  48.043  49.458  1.00  0.00     0.069 A 
HETATM   26  C   UNL     1      22.313  49.039  49.117  1.00  0.00     0.107 A 
HETATM   27  C   UNL     1      22.727  50.225  48.566  1.00  0.00     0.105 A 
HETATM   28  O   UNL     1      20.965  48.987  49.288  1.00  0.00    -0.323 OA
HETATM   29  O   UNL     1      21.693  51.071  48.315  1.00  0.00    -0.323 OA
HETATM   30  C   UNL     1      24.057  50.482  48.333  1.00  0.00     0.042 A 
HETATM   31  C   UNL     1      20.579  50.280  48.777  1.00  0.00     0.352 A 
HETATM   32  C   UNL     1      24.985  49.488  48.675  1.00  0.00     0.032 A 
ENDBRANCH  22  24
ENDBRANCH   8  22
TORSDOF 6
ENDMDL
MODEL 5
REMARK VINA RESULT:      -9.3      4.229     10.070
REMARK  6 active torsions:
REMARK  status: ('A' for Active; 'I' for Inactive)
REMARK    1  A    between atoms: C_6  and  S_7 
REMARK    2  A    between atoms: S_7  and  C_8 
REMARK    3  A    between atoms: C_8  and  C_9 
REMARK    4  A    between atoms: C_9  and  C_10 
REMARK    5  A    between atoms: C_19  and  N_20 
REMARK    6  A    between atoms: N_20  and  C_21 
ROOT
HETATM    1  C   UNL     1      27.624  49.108  49.134  1.00  0.00     0.001 A 
HETATM    2  C   UNL     1      26.834  48.081  49.646  1.00  0.00     0.018 A 
HETATM    3  C   UNL     1      25.426  48.077  49.454  1.00  0.00     0.039 A 
HETATM    4  C   UNL     1      24.828  49.131  48.754  1.00  0.00     0.073 A 
HETATM    5  N   UNL     1      23.511  49.211  48.552  1.00  0.00    -0.222 NA
HETATM    6  C   UNL     1      22.753  48.230  49.058  1.00  0.00     0.191 A 
HETATM    7  N   UNL     1      23.216  47.175  49.735  1.00  0.00    -0.204 NA
HETATM    8  C   UNL     1      24.543  47.088  49.928  1.00  0.00     0.143 A 
HETATM    9  C   UNL     1      25.638  50.142  48.250  1.00  0.00     0.032 A 
HETATM   10  C   UNL     1      27.023  50.140  48.429  1.00  0.00     0.002 A 
ENDROOT
BRANCH   6  11
HETATM   11  S   UNL     1      20.995  48.305  48.825  1.00  0.00    -0.082 SA
BRANCH  11  12
HETATM   12  C   UNL     1      20.651  49.909  49.603  1.00  0.00     0.166 C 
BRANCH  12  13
HETATM   13  C   UNL     1      19.305  49.939  50.307  1.00  0.00     0.169 C 
HETATM   14  O   UNL     1      19.045  49.304  51.327  1.00  0.00    -0.291 OA
BRANCH  13  15
HETATM   15  C   UNL     1      18.223  50.788  49.709  1.00  0.00     0.011 A 
HETATM   16  C   UNL     1      18.140  52.170  49.927  1.00  0.00     0.017 A 
HETATM   17  C   UNL     1      17.107  52.914  49.345  1.00  0.00     0.025 A 
HETATM   18  C   UNL     1      16.157  52.283  48.543  1.00  0.00     0.034 A 
HETATM   19 CL   UNL     1      14.892  53.205  47.832  1.00  0.00    -0.084 Cl
HETATM   20  C   UNL     1      16.230  50.912  48.315  1.00  0.00     0.025 A 
HETATM   21  C   UNL     1      17.261  50.166  48.897  1.00  0.00     0.017 A 
ENDBRANCH  13  15
ENDBRANCH  12  13
ENDBRANCH  11  12
ENDBRANCH   6  11
BRANCH   8  22
HETATM   22  N   UNL     1      25.080  45.973  50.624  1.00  0.00    -0.340 N 
HETATM   23  H   UNL     1      24.475  45.170  50.483  1.00  0.00     0.167 HD
BRANCH  22  24
HETATM   24  C   UNL     1      25.719  45.919  51.884  1.00  0.00     0.036 A 
HETATM   25  C   UNL     1      26.706  44.938  52.092  1.00  0.00     0.069 A 
HETATM   26  C   UNL     1      27.401  44.935  53.285  1.00  0.00     0.107 A 
HETATM   27  C   UNL     1      27.169  45.871  54.260  1.00  0.00     0.105 A 
HETATM   28  O   UNL     1      28.375  44.051  53.633  1.00  0.00    -0.323 OA
HETATM   29  O   UNL     1      27.963  45.696  55.349  1.00  0.00    -0.323 OA
HETATM   30  C   UNL     1      26.235  46.866  54.092  1.00  0.00     0.042 A 
HETATM   31  C   UNL     1      28.726  44.542  54.944  1.00  0.00     0.352 A 
HETATM   32  C   UNL     1      25.521  46.894  52.886  1.00  0.00     0.032 A 
ENDBRANCH  22  24
ENDBRANCH   8  22
TORSDOF 6
ENDMDL
MODEL 6
REMARK VINA RESULT:      -9.2      2.608      3.334
REMARK  6 active torsions:
REMARK  status: ('A' for Active; 'I' for Inactive)
REMARK    1  A    between atoms: C_6  and  S_7 
REMARK    2  A    between atoms: S_7  and  C_8 
REMARK    3  A    between atoms: C_8  and  C_9 
REMARK    4  A    between atoms: C_9  and  C_10 
REMARK    5  A    between atoms: C_19  and  N_20 
REMARK    6  A    between atoms: N_20  and  C_21 
ROOT
HETATM    1  C   UNL     1      25.789  50.290  48.130  1.00  0.00     0.001 A 
HETATM    2  C   UNL     1      24.703  49.495  48.490  1.00  0.00     0.018 A 
HETATM    3  C   UNL     1      24.882  48.331  49.285  1.00  0.00     0.039 A 
HETATM    4  C   UNL     1      26.171  47.974  49.696  1.00  0.00     0.073 A 
HETATM    5  N   UNL     1      26.424  46.884  50.424  1.00  0.00    -0.222 NA
HETATM    6  C   UNL     1      25.380  46.114  50.756  1.00  0.00     0.191 A 
HETATM    7  N   UNL     1      24.109  46.361  50.425  1.00  0.00    -0.204 NA
HETATM    8  C   UNL     1      23.854  47.465  49.703  1.00  0.00     0.143 A 
HETATM    9  C   UNL     1      27.238  48.785  49.327  1.00  0.00     0.032 A 
HETATM   10  C   UNL     1      27.060  49.936  48.555  1.00  0.00     0.002 A 
ENDROOT
BRANCH   6  11
HETATM   11  S   UNL     1      25.673  44.647  51.712  1.00  0.00    -0.082 SA
BRANCH  11  12
HETATM   12  C   UNL     1      27.312  44.190  51.078  1.00  0.00     0.166 C 
BRANCH  12  13
HETATM   13  C   UNL     1      27.970  43.095  51.898  1.00  0.00     0.169 C 
HETATM   14  O   UNL     1      27.930  41.899  51.613  1.00  0.00    -0.291 OA
BRANCH  13  15
HETATM   15  C   UNL     1      28.703  43.498  53.142  1.00  0.00     0.011 A 
HETATM   16  C   UNL     1      28.247  44.518  53.990  1.00  0.00     0.017 A 
HETATM   17  C   UNL     1      28.971  44.856  55.139  1.00  0.00     0.025 A 
HETATM   18  C   UNL     1      30.149  44.176  55.447  1.00  0.00     0.034 A 
HETATM   19 CL   UNL     1      31.033  44.597  56.861  1.00  0.00    -0.084 Cl
HETATM   20  C   UNL     1      30.611  43.160  54.617  1.00  0.00     0.025 A 
HETATM   21  C   UNL     1      29.890  42.822  53.467  1.00  0.00     0.017 A 
ENDBRANCH  13  15
ENDBRANCH  12  13
ENDBRANCH  11  12
ENDBRANCH   6  11
BRANCH   8  22
HETATM   22  N   UNL     1      22.514  47.777  49.347  1.00  0.00    -0.340 N 
HETATM   23  H   UNL     1      21.986  47.984  50.189  1.00  0.00     0.167 HD
BRANCH  22  24
HETATM   24  C   UNL     1      21.689  47.204  48.352  1.00  0.00     0.036 A 
HETATM   25  C   UNL     1      21.418  45.826  48.421  1.00  0.00     0.069 A 
HETATM   26  C   UNL     1      20.541  45.273  47.509  1.00  0.00     0.107 A 
HETATM   27  C   UNL     1      19.913  46.034  46.556  1.00  0.00     0.105 A 
HETATM   28  O   UNL     1      20.185  43.962  47.445  1.00  0.00    -0.323 OA
HETATM   29  O   UNL     1      19.085  45.300  45.766  1.00  0.00    -0.323 OA
HETATM   30  C   UNL     1      20.123  47.390  46.467  1.00  0.00     0.042 A 
HETATM   31  C   UNL     1      19.261  43.988  46.337  1.00  0.00     0.352 A 
HETATM   32  C   UNL     1      21.006  47.975  47.385  1.00  0.00     0.032 A 
ENDBRANCH  22  24
ENDBRANCH   8  22
TORSDOF 6
ENDMDL
MODEL 7
REMARK VINA RESULT:      -9.1      2.437      3.435
REMARK  6 active torsions:
REMARK  status: ('A' for Active; 'I' for Inactive)
REMARK    1  A    between atoms: C_6  and  S_7 
REMARK    2  A    between atoms: S_7  and  C_8 
REMARK    3  A    between atoms: C_8  and  C_9 
REMARK    4  A    between atoms: C_9  and  C_10 
REMARK    5  A    between atoms: C_19  and  N_20 
REMARK    6  A    between atoms: N_20  and  C_21 
ROOT
HETATM    1  C   UNL     1      23.813  43.430  48.667  1.00  0.00     0.001 A 
HETATM    2  C   UNL     1      23.765  44.821  48.732  1.00  0.00     0.018 A 
HETATM    3  C   UNL     1      24.295  45.518  49.850  1.00  0.00     0.039 A 
HETATM    4  C   UNL     1      24.857  44.793  50.906  1.00  0.00     0.073 A 
HETATM    5  N   UNL     1      25.354  45.373  52.000  1.00  0.00    -0.222 NA
HETATM    6  C   UNL     1      25.294  46.709  52.066  1.00  0.00     0.191 A 
HETATM    7  N   UNL     1      24.787  47.502  51.117  1.00  0.00    -0.204 NA
HETATM    8  C   UNL     1      24.297  46.918  50.010  1.00  0.00     0.143 A 
HETATM    9  C   UNL     1      24.896  43.406  50.817  1.00  0.00     0.032 A 
HETATM   10  C   UNL     1      24.385  42.721  49.712  1.00  0.00     0.002 A 
ENDROOT
BRANCH   6  11
HETATM   11  S   UNL     1      25.931  47.521  53.511  1.00  0.00    -0.082 SA
BRANCH  11  12
HETATM   12  C   UNL     1      26.763  46.118  54.309  1.00  0.00     0.166 C 
BRANCH  12  13
HETATM   13  C   UNL     1      27.604  46.541  55.501  1.00  0.00     0.169 C 
HETATM   14  O   UNL     1      27.396  47.550  56.172  1.00  0.00    -0.291 OA
BRANCH  13  15
HETATM   15  C   UNL     1      28.772  45.677  55.871  1.00  0.00     0.011 A 
HETATM   16  C   UNL     1      29.244  44.648  55.043  1.00  0.00     0.017 A 
HETATM   17  C   UNL     1      30.338  43.871  55.440  1.00  0.00     0.025 A 
HETATM   18  C   UNL     1      30.967  44.119  56.659  1.00  0.00     0.034 A 
HETATM   19 CL   UNL     1      32.311  43.159  57.138  1.00  0.00    -0.084 Cl
HETATM   20  C   UNL     1      30.511  45.139  57.489  1.00  0.00     0.025 A 
HETATM   21  C   UNL     1      29.417  45.916  57.096  1.00  0.00     0.017 A 
ENDBRANCH  13  15
ENDBRANCH  12  13
ENDBRANCH  11  12
ENDBRANCH   6  11
BRANCH   8  22
HETATM   22  N   UNL     1      23.768  47.723  48.966  1.00  0.00    -0.340 N 
HETATM   23  H   UNL     1      24.486  48.365  48.645  1.00  0.00     0.167 HD
BRANCH  22  24
HETATM   24  C   UNL     1      22.478  48.285  48.827  1.00  0.00     0.036 A 
HETATM   25  C   UNL     1      22.288  49.625  49.210  1.00  0.00     0.069 A 
HETATM   26  C   UNL     1      21.057  50.212  48.994  1.00  0.00     0.107 A 
HETATM   27  C   UNL     1      20.026  49.531  48.398  1.00  0.00     0.105 A 
HETATM   28  O   UNL     1      20.721  51.490  49.314  1.00  0.00    -0.323 OA
HETATM   29  O   UNL     1      18.906  50.290  48.270  1.00  0.00    -0.323 OA
HETATM   30  C   UNL     1      20.172  48.229  47.980  1.00  0.00     0.042 A 
HETATM   31  C   UNL     1      19.354  51.532  48.851  1.00  0.00     0.352 A 
HETATM   32  C   UNL     1      21.415  47.613  48.185  1.00  0.00     0.032 A 
ENDBRANCH  22  24
ENDBRANCH   8  22
TORSDOF 6
ENDMDL
MODEL 8
REMARK VINA RESULT:      -9.1      4.201      9.797
REMARK  6 active torsions:
REMARK  status: ('A' for Active; 'I' for Inactive)
REMARK    1  A    between atoms: C_6  and  S_7 
REMARK    2  A    between atoms: S_7  and  C_8 
REMARK    3  A    between atoms: C_8  and  C_9 
REMARK    4  A    between atoms: C_9  and  C_10 
REMARK    5  A    between atoms: C_19  and  N_20 
REMARK    6  A    between atoms: N_20  and  C_21 
ROOT
HETATM    1  C   UNL     1      27.599  49.129  49.155  1.00  0.00     0.001 A 
HETATM    2  C   UNL     1      26.839  48.070  49.645  1.00  0.00     0.018 A 
HETATM    3  C   UNL     1      25.441  48.000  49.401  1.00  0.00     0.039 A 
HETATM    4  C   UNL     1      24.821  49.021  48.673  1.00  0.00     0.073 A 
HETATM    5  N   UNL     1      23.510  49.039  48.423  1.00  0.00    -0.222 NA
HETATM    6  C   UNL     1      22.780  48.027  48.907  1.00  0.00     0.191 A 
HETATM    7  N   UNL     1      23.266  46.997  49.608  1.00  0.00    -0.204 NA
HETATM    8  C   UNL     1      24.588  46.973  49.849  1.00  0.00     0.143 A 
HETATM    9  C   UNL     1      25.601  50.067  48.192  1.00  0.00     0.032 A 
HETATM   10  C   UNL     1      26.978  50.129  48.422  1.00  0.00     0.002 A 
ENDROOT
BRANCH   6  11
HETATM   11  S   UNL     1      21.030  48.020  48.610  1.00  0.00    -0.082 SA
BRANCH  11  12
HETATM   12  C   UNL     1      20.545  49.465  49.596  1.00  0.00     0.166 C 
BRANCH  12  13
HETATM   13  C   UNL     1      19.150  49.331  50.180  1.00  0.00     0.169 C 
HETATM   14  O   UNL     1      18.895  49.382  51.382  1.00  0.00    -0.291 OA
BRANCH  13  15
HETATM   15  C   UNL     1      18.013  49.108  49.227  1.00  0.00     0.011 A 
HETATM   16  C   UNL     1      17.563  50.099  48.344  1.00  0.00     0.017 A 
HETATM   17  C   UNL     1      16.496  49.838  47.477  1.00  0.00     0.025 A 
HETATM   18  C   UNL     1      15.878  48.588  47.485  1.00  0.00     0.034 A 
HETATM   19 CL   UNL     1      14.568  48.275  46.416  1.00  0.00    -0.084 Cl
HETATM   20  C   UNL     1      16.317  47.594  48.354  1.00  0.00     0.025 A 
HETATM   21  C   UNL     1      17.382  47.854  49.223  1.00  0.00     0.017 A 
ENDBRANCH  13  15
ENDBRANCH  12  13
ENDBRANCH  11  12
ENDBRANCH   6  11
BRANCH   8  22
HETATM   22  N   UNL     1      25.150  45.887  50.572  1.00  0.00    -0.340 N 
HETATM   23  H   UNL     1      24.593  45.054  50.407  1.00  0.00     0.167 HD
BRANCH  22  24
HETATM   24  C   UNL     1      25.734  45.867  51.860  1.00  0.00     0.036 A 
HETATM   25  C   UNL     1      26.765  44.944  52.111  1.00  0.00     0.069 A 
HETATM   26  C   UNL     1      27.405  44.977  53.335  1.00  0.00     0.107 A 
HETATM   27  C   UNL     1      27.077  45.897  54.298  1.00  0.00     0.105 A 
HETATM   28  O   UNL     1      28.410  44.149  53.726  1.00  0.00    -0.323 OA
HETATM   29  O   UNL     1      27.830  45.765  55.421  1.00  0.00    -0.323 OA
HETATM   30  C   UNL     1      26.096  46.838  54.088  1.00  0.00     0.042 A 
HETATM   31  C   UNL     1      28.675  44.656  55.051  1.00  0.00     0.352 A 
HETATM   32  C   UNL     1      25.436  46.828  52.851  1.00  0.00     0.032 A 
ENDBRANCH  22  24
ENDBRANCH   8  22
TORSDOF 6
ENDMDL
MODEL 9
REMARK VINA RESULT:      -9.1      4.429      9.812
REMARK  6 active torsions:
REMARK  status: ('A' for Active; 'I' for Inactive)
REMARK    1  A    between atoms: C_6  and  S_7 
REMARK    2  A    between atoms: S_7  and  C_8 
REMARK    3  A    between atoms: C_8  and  C_9 
REMARK    4  A    between atoms: C_9  and  C_10 
REMARK    5  A    between atoms: C_19  and  N_20 
REMARK    6  A    between atoms: N_20  and  C_21 
ROOT
HETATM    1  C   UNL     1      27.568  49.184  49.039  1.00  0.00     0.001 A 
HETATM    2  C   UNL     1      26.782  48.184  49.607  1.00  0.00     0.018 A 
HETATM    3  C   UNL     1      25.374  48.167  49.421  1.00  0.00     0.039 A 
HETATM    4  C   UNL     1      24.771  49.182  48.670  1.00  0.00     0.073 A 
HETATM    5  N   UNL     1      23.452  49.249  48.470  1.00  0.00    -0.222 NA
HETATM    6  C   UNL     1      22.698  48.294  49.029  1.00  0.00     0.191 A 
HETATM    7  N   UNL     1      23.167  47.276  49.758  1.00  0.00    -0.204 NA
HETATM    8  C   UNL     1      24.495  47.202  49.949  1.00  0.00     0.143 A 
HETATM    9  C   UNL     1      25.576  50.168  48.111  1.00  0.00     0.032 A 
HETATM   10  C   UNL     1      26.962  50.177  48.284  1.00  0.00     0.002 A 
ENDROOT
BRANCH   6  11
HETATM   11  S   UNL     1      20.939  48.354  48.799  1.00  0.00    -0.082 SA
BRANCH  11  12
HETATM   12  C   UNL     1      20.574  49.924  49.635  1.00  0.00     0.166 C 
BRANCH  12  13
HETATM   13  C   UNL     1      19.214  49.923  50.309  1.00  0.00     0.169 C 
HETATM   14  O   UNL     1      18.951  49.299  51.336  1.00  0.00    -0.291 OA
BRANCH  13  15
HETATM   15  C   UNL     1      18.118  50.724  49.672  1.00  0.00     0.011 A 
HETATM   16  C   UNL     1      17.202  50.166  48.768  1.00  0.00     0.017 A 
HETATM   17  C   UNL     1      16.200  50.960  48.201  1.00  0.00     0.025 A 
HETATM   18  C   UNL     1      16.104  52.310  48.535  1.00  0.00     0.034 A 
HETATM   19 CL   UNL     1      14.869  53.279  47.833  1.00  0.00    -0.084 Cl
HETATM   20  C   UNL     1      17.004  52.876  49.433  1.00  0.00     0.025 A 
HETATM   21  C   UNL     1      18.008  52.085  50.000  1.00  0.00     0.017 A 
ENDBRANCH  13  15
ENDBRANCH  12  13
ENDBRANCH  11  12
ENDBRANCH   6  11
BRANCH   8  22
HETATM   22  N   UNL     1      25.037  46.125  50.700  1.00  0.00    -0.340 N 
HETATM   23  H   UNL     1      24.382  45.350  50.689  1.00  0.00     0.167 HD
BRANCH  22  24
HETATM   24  C   UNL     1      25.785  46.150  51.900  1.00  0.00     0.036 A 
HETATM   25  C   UNL     1      25.520  47.170  52.831  1.00  0.00     0.069 A 
HETATM   26  C   UNL     1      26.178  47.151  54.045  1.00  0.00     0.107 A 
HETATM   27  C   UNL     1      27.064  46.156  54.372  1.00  0.00     0.105 A 
HETATM   28  O   UNL     1      26.033  48.066  55.041  1.00  0.00    -0.323 OA
HETATM   29  O   UNL     1      27.593  46.318  55.613  1.00  0.00    -0.323 OA
HETATM   30  C   UNL     1      27.334  45.122  53.507  1.00  0.00     0.042 A 
HETATM   31  C   UNL     1      26.934  47.530  56.032  1.00  0.00     0.352 A 
HETATM   32  C   UNL     1      26.674  45.116  52.270  1.00  0.00     0.032 A 
ENDBRANCH  22  24
ENDBRANCH   8  22
TORSDOF 6
ENDMDL
MODEL 10
REMARK VINA RESULT:      -9.1      4.901     10.042
REMARK  6 active torsions:
REMARK  status: ('A' for Active; 'I' for Inactive)
REMARK    1  A    between atoms: C_6  and  S_7 
REMARK    2  A    between atoms: S_7  and  C_8 
REMARK    3  A    between atoms: C_8  and  C_9 
REMARK    4  A    between atoms: C_9  and  C_10 
REMARK    5  A    between atoms: C_19  and  N_20 
REMARK    6  A    between atoms: N_20  and  C_21 
ROOT
HETATM    1  C   UNL     1      27.454  48.985  49.343  1.00  0.00     0.001 A 
HETATM    2  C   UNL     1      26.449  48.108  49.746  1.00  0.00     0.018 A 
HETATM    3  C   UNL     1      25.116  48.262  49.280  1.00  0.00     0.039 A 
HETATM    4  C   UNL     1      24.810  49.321  48.418  1.00  0.00     0.073 A 
HETATM    5  N   UNL     1      23.578  49.547  47.957  1.00  0.00    -0.222 NA
HETATM    6  C   UNL     1      22.611  48.711  48.357  1.00  0.00     0.191 A 
HETATM    7  N   UNL     1      22.790  47.665  49.170  1.00  0.00    -0.204 NA
HETATM    8  C   UNL     1      24.033  47.432  49.625  1.00  0.00     0.143 A 
HETATM    9  C   UNL     1      25.830  50.181  48.028  1.00  0.00     0.032 A 
HETATM   10  C   UNL     1      27.144  50.022  48.477  1.00  0.00     0.002 A 
ENDROOT
BRANCH   6  11
HETATM   11  S   UNL     1      20.955  48.983  47.778  1.00  0.00    -0.082 SA
BRANCH  11  12
HETATM   12  C   UNL     1      20.473  50.356  48.862  1.00  0.00     0.166 C 
BRANCH  12  13
HETATM   13  C   UNL     1      19.230  50.046  49.678  1.00  0.00     0.169 C 
HETATM   14  O   UNL     1      19.151  49.135  50.500  1.00  0.00    -0.291 OA
BRANCH  13  15
HETATM   15  C   UNL     1      18.017  50.899  49.454  1.00  0.00     0.011 A 
HETATM   16  C   UNL     1      16.870  50.425  48.802  1.00  0.00     0.017 A 
HETATM   17  C   UNL     1      15.766  51.265  48.617  1.00  0.00     0.025 A 
HETATM   18  C   UNL     1      15.801  52.578  49.085  1.00  0.00     0.034 A 
HETATM   19 CL   UNL     1      14.440  53.603  48.855  1.00  0.00    -0.084 Cl
HETATM   20  C   UNL     1      16.932  53.061  49.737  1.00  0.00     0.025 A 
HETATM   21  C   UNL     1      18.037  52.223  49.921  1.00  0.00     0.017 A 
ENDBRANCH  13  15
ENDBRANCH  12  13
ENDBRANCH  11  12
ENDBRANCH   6  11
BRANCH   8  22
HETATM   22  N   UNL     1      24.272  46.319  50.474  1.00  0.00    -0.340 N 
HETATM   23  H   UNL     1      24.873  46.608  51.240  1.00  0.00     0.167 HD
BRANCH  22  24
HETATM   24  C   UNL     1      24.481  44.960  50.142  1.00  0.00     0.036 A 
HETATM   25  C   UNL     1      25.751  44.574  49.676  1.00  0.00     0.069 A 
HETATM   26  C   UNL     1      25.994  43.236  49.436  1.00  0.00     0.107 A 
HETATM   27  C   UNL     1      25.040  42.276  49.660  1.00  0.00     0.105 A 
HETATM   28  O   UNL     1      27.163  42.711  48.980  1.00  0.00    -0.323 OA
HETATM   29  O   UNL     1      25.483  41.024  49.371  1.00  0.00    -0.323 OA
HETATM   30  C   UNL     1      23.794  42.601  50.143  1.00  0.00     0.042 A 
HETATM   31  C   UNL     1      26.831  41.308  48.942  1.00  0.00     0.352 A 
HETATM   32  C   UNL     1      23.525  43.952  50.400  1.00  0.00     0.032 A 
ENDBRANCH  22  24
ENDBRANCH   8  22
TORSDOF 6
ENDMDL
