MODEL 1
REMARK VINA RESULT:      -9.6      0.000      0.000
REMARK  4 active torsions:
REMARK  status: ('A' for Active; 'I' for Inactive)
REMARK    1  A    between atoms: C_6  and  C_7 
REMARK       I    between atoms: C_7  and  N_8 
REMARK    2  A    between atoms: N_8  and  C_9 
REMARK    3  A    between atoms: C_10  and  C_11 
REMARK    4  A    between atoms: C_11  and  C_12 
ROOT
HETATM    1  C   UNL     1      26.193  44.853  53.385  1.00  0.00     0.259 C 
HETATM    2  N   UNL     1      26.442  44.987  52.033  1.00  0.00    -0.322 N 
HETATM    3  O   UNL     1      25.148  44.443  53.878  1.00  0.00    -0.267 OA
HETATM    4  H   UNL     1      27.284  45.480  51.770  1.00  0.00     0.169 HD
ENDROOT
BRANCH   2   5
HETATM    5  C   UNL     1      25.637  44.513  50.972  1.00  0.00     0.041 A 
HETATM    6  C   UNL     1      24.860  45.423  50.223  1.00  0.00    -0.027 A 
HETATM    7  C   UNL     1      24.155  44.955  49.096  1.00  0.00     0.010 A 
HETATM    8  C   UNL     1      24.194  43.611  48.732  1.00  0.00     0.001 A 
HETATM    9  C   UNL     1      24.933  42.713  49.491  1.00  0.00     0.002 A 
HETATM   10  C   UNL     1      25.648  43.161  50.605  1.00  0.00     0.030 A 
BRANCH   6  11
HETATM   11  C   UNL     1      24.665  46.874  50.620  1.00  0.00     0.079 C 
BRANCH  11  12
HETATM   12  C   UNL     1      25.391  47.905  49.785  1.00  0.00    -0.054 A 
HETATM   13  C   UNL     1      24.641  48.846  49.060  1.00  0.00     0.007 A 
HETATM   14  C   UNL     1      25.274  49.847  48.319  1.00  0.00     0.001 A 
HETATM   15  C   UNL     1      26.663  49.926  48.303  1.00  0.00     0.000 A 
HETATM   16  C   UNL     1      27.419  49.008  49.028  1.00  0.00     0.001 A 
HETATM   17  C   UNL     1      26.788  48.007  49.768  1.00  0.00     0.007 A 
ENDBRANCH  11  12
ENDBRANCH   6  11
ENDBRANCH   2   5
BRANCH   1  18
HETATM   18  C   UNL     1      27.266  45.347  54.236  1.00  0.00     0.081 A 
HETATM   19  C   UNL     1      27.267  46.587  54.856  1.00  0.00     0.068 A 
HETATM   20  C   UNL     1      26.326  47.729  54.837  1.00  0.00     0.078 C 
HETATM   21  O   UNL     1      28.383  46.745  55.623  1.00  0.00    -0.295 OA
HETATM   22  C   UNL     1      29.112  45.601  55.526  1.00  0.00     0.187 A 
HETATM   23  C   UNL     1      28.469  44.727  54.673  1.00  0.00     0.103 A 
HETATM   24  N   UNL     1      30.272  45.392  56.196  1.00  0.00    -0.219 NA
HETATM   25  C   UNL     1      29.073  43.443  54.454  1.00  0.00     0.262 A 
HETATM   26  N   UNL     1      30.227  43.249  55.183  1.00  0.00    -0.317 N 
HETATM   27  O   UNL     1      28.635  42.601  53.681  1.00  0.00    -0.267 OA
HETATM   28  C   UNL     1      30.773  44.216  55.998  1.00  0.00     0.212 A 
HETATM   29  H   UNL     1      30.684  42.357  55.063  1.00  0.00     0.170 HD
ENDBRANCH   1  18
TORSDOF 4
ENDMDL
MODEL 2
REMARK VINA RESULT:      -9.2      5.132      7.284
REMARK  4 active torsions:
REMARK  status: ('A' for Active; 'I' for Inactive)
REMARK    1  A    between atoms: C_6  and  C_7 
REMARK       I    between atoms: C_7  and  N_8 
REMARK    2  A    between atoms: N_8  and  C_9 
REMARK    3  A    between atoms: C_10  and  C_11 
REMARK    4  A    between atoms: C_11  and  C_12 
ROOT
HETATM    1  C   UNL     1      22.051  47.495  48.165  1.00  0.00     0.259 C 
HETATM    2  N   UNL     1      21.092  47.093  49.074  1.00  0.00    -0.322 N 
HETATM    3  O   UNL     1      21.926  47.476  46.946  1.00  0.00    -0.267 OA
HETATM    4  H   UNL     1      21.380  47.017  50.040  1.00  0.00     0.169 HD
ENDROOT
BRANCH   2   5
HETATM    5  C   UNL     1      19.744  46.769  48.796  1.00  0.00     0.041 A 
HETATM    6  C   UNL     1      18.711  47.602  49.279  1.00  0.00    -0.027 A 
HETATM    7  C   UNL     1      17.381  47.333  48.897  1.00  0.00     0.010 A 
HETATM    8  C   UNL     1      17.074  46.249  48.078  1.00  0.00     0.001 A 
HETATM    9  C   UNL     1      18.090  45.413  47.633  1.00  0.00     0.002 A 
HETATM   10  C   UNL     1      19.416  45.670  47.992  1.00  0.00     0.030 A 
BRANCH   6  11
HETATM   11  C   UNL     1      18.944  48.726  50.270  1.00  0.00     0.079 C 
BRANCH  11  12
HETATM   12  C   UNL     1      18.944  50.130  49.709  1.00  0.00    -0.054 A 
HETATM   13  C   UNL     1      20.026  50.550  48.917  1.00  0.00     0.007 A 
HETATM   14  C   UNL     1      20.039  51.820  48.338  1.00  0.00     0.001 A 
HETATM   15  C   UNL     1      18.965  52.683  48.532  1.00  0.00     0.000 A 
HETATM   16  C   UNL     1      17.879  52.277  49.304  1.00  0.00     0.001 A 
HETATM   17  C   UNL     1      17.864  51.007  49.885  1.00  0.00     0.007 A 
ENDBRANCH  11  12
ENDBRANCH   6  11
ENDBRANCH   2   5
BRANCH   1  18
HETATM   18  C   UNL     1      23.320  47.869  48.772  1.00  0.00     0.081 A 
HETATM   19  C   UNL     1      23.906  49.120  48.654  1.00  0.00     0.068 A 
HETATM   20  C   UNL     1      23.530  50.350  47.922  1.00  0.00     0.078 C 
HETATM   21  O   UNL     1      25.066  49.182  49.369  1.00  0.00    -0.295 OA
HETATM   22  C   UNL     1      25.238  47.977  49.975  1.00  0.00     0.187 A 
HETATM   23  C   UNL     1      24.198  47.142  49.622  1.00  0.00     0.103 A 
HETATM   24  N   UNL     1      26.273  47.696  50.803  1.00  0.00    -0.219 NA
HETATM   25  C   UNL     1      24.185  45.820  50.182  1.00  0.00     0.262 A 
HETATM   26  N   UNL     1      25.228  45.583  51.051  1.00  0.00    -0.317 N 
HETATM   27  O   UNL     1      23.352  44.965  49.906  1.00  0.00    -0.267 OA
HETATM   28  C   UNL     1      26.215  46.508  51.312  1.00  0.00     0.212 A 
HETATM   29  H   UNL     1      25.257  44.666  51.472  1.00  0.00     0.170 HD
ENDBRANCH   1  18
TORSDOF 4
ENDMDL
MODEL 3
REMARK VINA RESULT:      -9.2      3.167      7.172
REMARK  4 active torsions:
REMARK  status: ('A' for Active; 'I' for Inactive)
REMARK    1  A    between atoms: C_6  and  C_7 
REMARK       I    between atoms: C_7  and  N_8 
REMARK    2  A    between atoms: N_8  and  C_9 
REMARK    3  A    between atoms: C_10  and  C_11 
REMARK    4  A    between atoms: C_11  and  C_12 
ROOT
HETATM    1  C   UNL     1      25.909  43.734  52.127  1.00  0.00     0.259 C 
HETATM    2  N   UNL     1      27.018  44.434  52.557  1.00  0.00    -0.322 N 
HETATM    3  O   UNL     1      24.783  43.823  52.605  1.00  0.00    -0.267 OA
HETATM    4  H   UNL     1      27.912  44.153  52.178  1.00  0.00     0.169 HD
ENDROOT
BRANCH   2   5
HETATM    5  C   UNL     1      27.040  45.503  53.482  1.00  0.00     0.041 A 
HETATM    6  C   UNL     1      28.117  45.623  54.387  1.00  0.00    -0.027 A 
HETATM    7  C   UNL     1      28.187  46.756  55.222  1.00  0.00     0.010 A 
HETATM    8  C   UNL     1      27.199  47.737  55.185  1.00  0.00     0.001 A 
HETATM    9  C   UNL     1      26.123  47.598  54.317  1.00  0.00     0.002 A 
HETATM   10  C   UNL     1      26.044  46.488  53.473  1.00  0.00     0.030 A 
BRANCH   6  11
HETATM   11  C   UNL     1      29.167  44.545  54.578  1.00  0.00     0.079 C 
BRANCH  11  12
HETATM   12  C   UNL     1      29.938  44.577  55.878  1.00  0.00    -0.054 A 
HETATM   13  C   UNL     1      30.936  43.615  56.105  1.00  0.00     0.007 A 
HETATM   14  C   UNL     1      31.706  43.643  57.269  1.00  0.00     0.001 A 
HETATM   15  C   UNL     1      31.495  44.639  58.218  1.00  0.00     0.000 A 
HETATM   16  C   UNL     1      30.517  45.607  58.002  1.00  0.00     0.001 A 
HETATM   17  C   UNL     1      29.746  45.580  56.838  1.00  0.00     0.007 A 
ENDBRANCH  11  12
ENDBRANCH   6  11
ENDBRANCH   2   5
BRANCH   1  18
HETATM   18  C   UNL     1      26.191  42.761  51.082  1.00  0.00     0.081 A 
HETATM   19  C   UNL     1      25.637  42.793  49.811  1.00  0.00     0.068 A 
HETATM   20  C   UNL     1      24.647  43.679  49.161  1.00  0.00     0.078 C 
HETATM   21  O   UNL     1      26.128  41.779  49.042  1.00  0.00    -0.295 OA
HETATM   22  C   UNL     1      27.022  41.087  49.798  1.00  0.00     0.187 A 
HETATM   23  C   UNL     1      27.077  41.649  51.058  1.00  0.00     0.103 A 
HETATM   24  N   UNL     1      27.736  40.032  49.337  1.00  0.00    -0.219 NA
HETATM   25  C   UNL     1      27.987  41.071  52.006  1.00  0.00     0.262 A 
HETATM   26  N   UNL     1      28.726  40.028  51.490  1.00  0.00    -0.317 N 
HETATM   27  O   UNL     1      28.092  41.438  53.170  1.00  0.00    -0.267 OA
HETATM   28  C   UNL     1      28.566  39.555  50.207  1.00  0.00     0.212 A 
HETATM   29  H   UNL     1      29.383  39.593  52.122  1.00  0.00     0.170 HD
ENDBRANCH   1  18
TORSDOF 4
ENDMDL
MODEL 4
REMARK VINA RESULT:      -9.1      2.847      6.912
REMARK  4 active torsions:
REMARK  status: ('A' for Active; 'I' for Inactive)
REMARK    1  A    between atoms: C_6  and  C_7 
REMARK       I    between atoms: C_7  and  N_8 
REMARK    2  A    between atoms: N_8  and  C_9 
REMARK    3  A    between atoms: C_10  and  C_11 
REMARK    4  A    between atoms: C_11  and  C_12 
ROOT
HETATM    1  C   UNL     1      25.276  44.261  51.384  1.00  0.00     0.259 C 
HETATM    2  N   UNL     1      26.625  44.015  51.225  1.00  0.00    -0.322 N 
HETATM    3  O   UNL     1      24.436  43.429  51.709  1.00  0.00    -0.267 OA
HETATM    4  H   UNL     1      27.178  44.751  50.807  1.00  0.00     0.169 HD
ENDROOT
BRANCH   2   5
HETATM    5  C   UNL     1      27.320  42.836  51.579  1.00  0.00     0.041 A 
HETATM    6  C   UNL     1      27.576  42.557  52.939  1.00  0.00    -0.027 A 
HETATM    7  C   UNL     1      28.164  41.324  53.286  1.00  0.00     0.010 A 
HETATM    8  C   UNL     1      28.517  40.396  52.308  1.00  0.00     0.001 A 
HETATM    9  C   UNL     1      28.294  40.689  50.969  1.00  0.00     0.002 A 
HETATM   10  C   UNL     1      27.701  41.902  50.607  1.00  0.00     0.030 A 
BRANCH   6  11
HETATM   11  C   UNL     1      27.336  43.558  54.053  1.00  0.00     0.079 C 
BRANCH  11  12
HETATM   12  C   UNL     1      28.564  44.093  54.754  1.00  0.00    -0.054 A 
HETATM   13  C   UNL     1      28.502  45.352  55.376  1.00  0.00     0.007 A 
HETATM   14  C   UNL     1      29.597  45.858  56.079  1.00  0.00     0.001 A 
HETATM   15  C   UNL     1      30.765  45.108  56.179  1.00  0.00     0.000 A 
HETATM   16  C   UNL     1      30.838  43.853  55.578  1.00  0.00     0.001 A 
HETATM   17  C   UNL     1      29.744  43.346  54.875  1.00  0.00     0.007 A 
ENDBRANCH  11  12
ENDBRANCH   6  11
ENDBRANCH   2   5
BRANCH   1  18
HETATM   18  C   UNL     1      24.875  45.615  51.030  1.00  0.00     0.081 A 
HETATM   19  C   UNL     1      25.323  46.759  51.672  1.00  0.00     0.068 A 
HETATM   20  C   UNL     1      26.211  46.985  52.834  1.00  0.00     0.078 C 
HETATM   21  O   UNL     1      24.809  47.877  51.086  1.00  0.00    -0.295 OA
HETATM   22  C   UNL     1      24.036  47.475  50.042  1.00  0.00     0.187 A 
HETATM   23  C   UNL     1      24.039  46.095  49.985  1.00  0.00     0.103 A 
HETATM   24  N   UNL     1      23.399  48.331  49.207  1.00  0.00    -0.219 NA
HETATM   25  C   UNL     1      23.293  45.471  48.929  1.00  0.00     0.262 A 
HETATM   26  N   UNL     1      22.694  46.372  48.075  1.00  0.00    -0.317 N 
HETATM   27  O   UNL     1      23.169  44.260  48.799  1.00  0.00    -0.267 OA
HETATM   28  C   UNL     1      22.761  47.736  48.252  1.00  0.00     0.212 A 
HETATM   29  H   UNL     1      22.161  45.976  47.314  1.00  0.00     0.170 HD
ENDBRANCH   1  18
TORSDOF 4
ENDMDL
MODEL 5
REMARK VINA RESULT:      -9.1      2.948      6.863
REMARK  4 active torsions:
REMARK  status: ('A' for Active; 'I' for Inactive)
REMARK    1  A    between atoms: C_6  and  C_7 
REMARK       I    between atoms: C_7  and  N_8 
REMARK    2  A    between atoms: N_8  and  C_9 
REMARK    3  A    between atoms: C_10  and  C_11 
REMARK    4  A    between atoms: C_11  and  C_12 
ROOT
HETATM    1  C   UNL     1      25.389  42.635  50.992  1.00  0.00     0.259 C 
HETATM    2  N   UNL     1      26.395  43.545  51.247  1.00  0.00    -0.322 N 
HETATM    3  O   UNL     1      24.239  42.711  51.412  1.00  0.00    -0.267 OA
HETATM    4  H   UNL     1      27.331  43.282  50.968  1.00  0.00     0.169 HD
ENDROOT
BRANCH   2   5
HETATM    5  C   UNL     1      26.259  44.809  51.866  1.00  0.00     0.041 A 
HETATM    6  C   UNL     1      26.746  45.001  53.177  1.00  0.00    -0.027 A 
HETATM    7  C   UNL     1      26.710  46.294  53.738  1.00  0.00     0.010 A 
HETATM    8  C   UNL     1      26.180  47.369  53.029  1.00  0.00     0.001 A 
HETATM    9  C   UNL     1      25.671  47.169  51.752  1.00  0.00     0.002 A 
HETATM   10  C   UNL     1      25.709  45.897  51.175  1.00  0.00     0.030 A 
BRANCH   6  11
HETATM   11  C   UNL     1      27.226  43.866  54.061  1.00  0.00     0.079 C 
BRANCH  11  12
HETATM   12  C   UNL     1      28.575  44.047  54.719  1.00  0.00    -0.054 A 
HETATM   13  C   UNL     1      28.821  45.213  55.464  1.00  0.00     0.007 A 
HETATM   14  C   UNL     1      30.034  45.393  56.130  1.00  0.00     0.001 A 
HETATM   15  C   UNL     1      31.014  44.407  56.069  1.00  0.00     0.000 A 
HETATM   16  C   UNL     1      30.780  43.241  55.344  1.00  0.00     0.001 A 
HETATM   17  C   UNL     1      29.567  43.058  54.677  1.00  0.00     0.007 A 
ENDBRANCH  11  12
ENDBRANCH   6  11
ENDBRANCH   2   5
BRANCH   1  18
HETATM   18  C   UNL     1      25.822  41.469  50.237  1.00  0.00     0.081 A 
HETATM   19  C   UNL     1      25.190  40.992  49.099  1.00  0.00     0.068 A 
HETATM   20  C   UNL     1      23.974  41.409  48.367  1.00  0.00     0.078 C 
HETATM   21  O   UNL     1      25.854  39.916  48.590  1.00  0.00    -0.295 OA
HETATM   22  C   UNL     1      26.938  39.692  49.380  1.00  0.00     0.187 A 
HETATM   23  C   UNL     1      26.945  40.612  50.408  1.00  0.00     0.103 A 
HETATM   24  N   UNL     1      27.850  38.718  49.143  1.00  0.00    -0.219 NA
HETATM   25  C   UNL     1      28.030  40.556  51.346  1.00  0.00     0.262 A 
HETATM   26  N   UNL     1      28.960  39.582  51.050  1.00  0.00    -0.317 N 
HETATM   27  O   UNL     1      28.125  41.277  52.331  1.00  0.00    -0.267 OA
HETATM   28  C   UNL     1      28.828  38.714  49.989  1.00  0.00     0.212 A 
HETATM   29  H   UNL     1      29.744  39.509  51.682  1.00  0.00     0.170 HD
ENDBRANCH   1  18
TORSDOF 4
ENDMDL
MODEL 6
REMARK VINA RESULT:      -8.8      1.593      2.382
REMARK  4 active torsions:
REMARK  status: ('A' for Active; 'I' for Inactive)
REMARK    1  A    between atoms: C_6  and  C_7 
REMARK       I    between atoms: C_7  and  N_8 
REMARK    2  A    between atoms: N_8  and  C_9 
REMARK    3  A    between atoms: C_10  and  C_11 
REMARK    4  A    between atoms: C_11  and  C_12 
ROOT
HETATM    1  C   UNL     1      28.242  43.959  53.044  1.00  0.00     0.259 C 
HETATM    2  N   UNL     1      27.047  43.269  52.993  1.00  0.00    -0.322 N 
HETATM    3  O   UNL     1      29.166  43.838  52.248  1.00  0.00    -0.267 OA
HETATM    4  H   UNL     1      26.437  43.352  53.796  1.00  0.00     0.169 HD
ENDROOT
BRANCH   2   5
HETATM    5  C   UNL     1      26.585  42.450  51.938  1.00  0.00     0.041 A 
HETATM    6  C   UNL     1      25.594  42.936  51.058  1.00  0.00    -0.027 A 
HETATM    7  C   UNL     1      25.227  42.157  49.943  1.00  0.00     0.010 A 
HETATM    8  C   UNL     1      25.806  40.911  49.716  1.00  0.00     0.001 A 
HETATM    9  C   UNL     1      26.756  40.421  50.603  1.00  0.00     0.002 A 
HETATM   10  C   UNL     1      27.141  41.185  51.708  1.00  0.00     0.030 A 
BRANCH   6  11
HETATM   11  C   UNL     1      24.827  44.223  51.298  1.00  0.00     0.079 C 
BRANCH  11  12
HETATM   12  C   UNL     1      25.368  45.465  50.626  1.00  0.00    -0.054 A 
HETATM   13  C   UNL     1      24.568  46.619  50.578  1.00  0.00     0.007 A 
HETATM   14  C   UNL     1      25.050  47.802  50.014  1.00  0.00     0.001 A 
HETATM   15  C   UNL     1      26.343  47.849  49.500  1.00  0.00     0.000 A 
HETATM   16  C   UNL     1      27.152  46.717  49.551  1.00  0.00     0.001 A 
HETATM   17  C   UNL     1      26.671  45.534  50.115  1.00  0.00     0.007 A 
ENDBRANCH  11  12
ENDBRANCH   6  11
ENDBRANCH   2   5
BRANCH   1  18
HETATM   18  C   UNL     1      28.385  44.810  54.216  1.00  0.00     0.081 A 
HETATM   19  C   UNL     1      27.531  45.855  54.535  1.00  0.00     0.068 A 
HETATM   20  C   UNL     1      26.351  46.439  53.860  1.00  0.00     0.078 C 
HETATM   21  O   UNL     1      27.894  46.436  55.714  1.00  0.00    -0.295 OA
HETATM   22  C   UNL     1      28.978  45.763  56.185  1.00  0.00     0.187 A 
HETATM   23  C   UNL     1      29.318  44.771  55.288  1.00  0.00     0.103 A 
HETATM   24  N   UNL     1      29.582  46.048  57.364  1.00  0.00    -0.219 NA
HETATM   25  C   UNL     1      30.432  43.928  55.618  1.00  0.00     0.262 A 
HETATM   26  N   UNL     1      30.995  44.218  56.842  1.00  0.00    -0.317 N 
HETATM   27  O   UNL     1      30.870  43.050  54.886  1.00  0.00    -0.267 OA
HETATM   28  C   UNL     1      30.563  45.252  57.643  1.00  0.00     0.212 A 
HETATM   29  H   UNL     1      31.781  43.647  57.117  1.00  0.00     0.170 HD
ENDBRANCH   1  18
TORSDOF 4
ENDMDL
MODEL 7
REMARK VINA RESULT:      -8.7      1.105      2.348
REMARK  4 active torsions:
REMARK  status: ('A' for Active; 'I' for Inactive)
REMARK    1  A    between atoms: C_6  and  C_7 
REMARK       I    between atoms: C_7  and  N_8 
REMARK    2  A    between atoms: N_8  and  C_9 
REMARK    3  A    between atoms: C_10  and  C_11 
REMARK    4  A    between atoms: C_11  and  C_12 
ROOT
HETATM    1  C   UNL     1      26.617  43.732  53.080  1.00  0.00     0.259 C 
HETATM    2  N   UNL     1      26.844  43.822  51.721  1.00  0.00    -0.322 N 
HETATM    3  O   UNL     1      25.529  43.864  53.629  1.00  0.00    -0.267 OA
HETATM    4  H   UNL     1      27.809  43.846  51.419  1.00  0.00     0.169 HD
ENDROOT
BRANCH   2   5
HETATM    5  C   UNL     1      25.867  43.892  50.701  1.00  0.00     0.041 A 
HETATM    6  C   UNL     1      25.495  45.148  50.175  1.00  0.00    -0.027 A 
HETATM    7  C   UNL     1      24.609  45.196  49.080  1.00  0.00     0.010 A 
HETATM    8  C   UNL     1      24.079  44.029  48.534  1.00  0.00     0.001 A 
HETATM    9  C   UNL     1      24.422  42.797  49.077  1.00  0.00     0.002 A 
HETATM   10  C   UNL     1      25.308  42.730  50.154  1.00  0.00     0.030 A 
BRANCH   6  11
HETATM   11  C   UNL     1      25.928  46.467  50.786  1.00  0.00     0.079 C 
BRANCH  11  12
HETATM   12  C   UNL     1      25.914  47.671  49.870  1.00  0.00    -0.054 A 
HETATM   13  C   UNL     1      24.682  48.236  49.503  1.00  0.00     0.007 A 
HETATM   14  C   UNL     1      24.628  49.379  48.703  1.00  0.00     0.001 A 
HETATM   15  C   UNL     1      25.807  49.979  48.269  1.00  0.00     0.000 A 
HETATM   16  C   UNL     1      27.037  49.437  48.635  1.00  0.00     0.001 A 
HETATM   17  C   UNL     1      27.092  48.294  49.435  1.00  0.00     0.007 A 
ENDBRANCH  11  12
ENDBRANCH   6  11
ENDBRANCH   2   5
BRANCH   1  18
HETATM   18  C   UNL     1      27.827  43.560  53.872  1.00  0.00     0.081 A 
HETATM   19  C   UNL     1      28.589  42.402  53.897  1.00  0.00     0.068 A 
HETATM   20  C   UNL     1      28.439  41.077  53.255  1.00  0.00     0.078 C 
HETATM   21  O   UNL     1      29.684  42.559  54.693  1.00  0.00    -0.295 OA
HETATM   22  C   UNL     1      29.658  43.828  55.180  1.00  0.00     0.187 A 
HETATM   23  C   UNL     1      28.528  44.468  54.712  1.00  0.00     0.103 A 
HETATM   24  N   UNL     1      30.622  44.345  55.980  1.00  0.00    -0.219 NA
HETATM   25  C   UNL     1      28.328  45.836  55.099  1.00  0.00     0.262 A 
HETATM   26  N   UNL     1      29.348  46.340  55.876  1.00  0.00    -0.317 N 
HETATM   27  O   UNL     1      27.342  46.497  54.799  1.00  0.00    -0.267 OA
HETATM   28  C   UNL     1      30.425  45.586  56.285  1.00  0.00     0.212 A 
HETATM   29  H   UNL     1      29.250  47.302  56.168  1.00  0.00     0.170 HD
ENDBRANCH   1  18
TORSDOF 4
ENDMDL
MODEL 8
REMARK VINA RESULT:      -8.4     12.452     15.613
REMARK  4 active torsions:
REMARK  status: ('A' for Active; 'I' for Inactive)
REMARK    1  A    between atoms: C_6  and  C_7 
REMARK       I    between atoms: C_7  and  N_8 
REMARK    2  A    between atoms: N_8  and  C_9 
REMARK    3  A    between atoms: C_10  and  C_11 
REMARK    4  A    between atoms: C_11  and  C_12 
ROOT
HETATM    1  C   UNL     1      30.849  52.054  40.699  1.00  0.00     0.259 C 
HETATM    2  N   UNL     1      31.612  51.108  41.354  1.00  0.00    -0.322 N 
HETATM    3  O   UNL     1      30.765  53.237  41.008  1.00  0.00    -0.267 OA
HETATM    4  H   UNL     1      31.470  50.142  41.088  1.00  0.00     0.169 HD
ENDROOT
BRANCH   2   5
HETATM    5  C   UNL     1      32.570  51.344  42.366  1.00  0.00     0.041 A 
HETATM    6  C   UNL     1      33.945  51.311  42.048  1.00  0.00    -0.027 A 
HETATM    7  C   UNL     1      34.885  51.663  43.038  1.00  0.00     0.010 A 
HETATM    8  C   UNL     1      34.477  52.014  44.323  1.00  0.00     0.001 A 
HETATM    9  C   UNL     1      33.125  52.012  44.641  1.00  0.00     0.002 A 
HETATM   10  C   UNL     1      32.178  51.677  43.669  1.00  0.00     0.030 A 
BRANCH   6  11
HETATM   11  C   UNL     1      34.479  50.825  40.715  1.00  0.00     0.079 C 
BRANCH  11  12
HETATM   12  C   UNL     1      35.300  51.812  39.916  1.00  0.00    -0.054 A 
HETATM   13  C   UNL     1      34.773  53.090  39.662  1.00  0.00     0.007 A 
HETATM   14  C   UNL     1      35.520  54.048  38.974  1.00  0.00     0.001 A 
HETATM   15  C   UNL     1      36.808  53.745  38.541  1.00  0.00     0.000 A 
HETATM   16  C   UNL     1      37.349  52.487  38.797  1.00  0.00     0.001 A 
HETATM   17  C   UNL     1      36.602  51.528  39.484  1.00  0.00     0.007 A 
ENDBRANCH  11  12
ENDBRANCH   6  11
ENDBRANCH   2   5
BRANCH   1  18
HETATM   18  C   UNL     1      30.031  51.514  39.622  1.00  0.00     0.081 A 
HETATM   19  C   UNL     1      30.508  51.196  38.360  1.00  0.00     0.068 A 
HETATM   20  C   UNL     1      31.834  51.326  37.717  1.00  0.00     0.078 C 
HETATM   21  O   UNL     1      29.517  50.668  37.586  1.00  0.00    -0.295 OA
HETATM   22  C   UNL     1      28.389  50.617  38.343  1.00  0.00     0.187 A 
HETATM   23  C   UNL     1      28.660  51.140  39.591  1.00  0.00     0.103 A 
HETATM   24  N   UNL     1      27.213  50.106  37.903  1.00  0.00    -0.219 NA
HETATM   25  C   UNL     1      27.594  51.155  40.553  1.00  0.00     0.262 A 
HETATM   26  N   UNL     1      26.426  50.590  40.086  1.00  0.00    -0.317 N 
HETATM   27  O   UNL     1      27.686  51.641  41.673  1.00  0.00    -0.267 OA
HETATM   28  C   UNL     1      26.284  50.109  38.803  1.00  0.00     0.212 A 
HETATM   29  H   UNL     1      25.650  50.576  40.731  1.00  0.00     0.170 HD
ENDBRANCH   1  18
TORSDOF 4
ENDMDL
MODEL 9
REMARK VINA RESULT:      -8.3     11.617     13.179
REMARK  4 active torsions:
REMARK  status: ('A' for Active; 'I' for Inactive)
REMARK    1  A    between atoms: C_6  and  C_7 
REMARK       I    between atoms: C_7  and  N_8 
REMARK    2  A    between atoms: N_8  and  C_9 
REMARK    3  A    between atoms: C_10  and  C_11 
REMARK    4  A    between atoms: C_11  and  C_12 
ROOT
HETATM    1  C   UNL     1      30.659  49.034  39.648  1.00  0.00     0.259 C 
HETATM    2  N   UNL     1      29.722  48.686  40.600  1.00  0.00    -0.322 N 
HETATM    3  O   UNL     1      30.775  48.517  38.542  1.00  0.00    -0.267 OA
HETATM    4  H   UNL     1      29.837  49.085  41.522  1.00  0.00     0.169 HD
ENDROOT
BRANCH   2   5
HETATM    5  C   UNL     1      28.618  47.821  40.426  1.00  0.00     0.041 A 
HETATM    6  C   UNL     1      27.306  48.330  40.541  1.00  0.00    -0.027 A 
HETATM    7  C   UNL     1      26.216  47.485  40.250  1.00  0.00     0.010 A 
HETATM    8  C   UNL     1      26.416  46.157  39.879  1.00  0.00     0.001 A 
HETATM    9  C   UNL     1      27.707  45.651  39.801  1.00  0.00     0.002 A 
HETATM   10  C   UNL     1      28.800  46.477  40.074  1.00  0.00     0.030 A 
BRANCH   6  11
HETATM   11  C   UNL     1      26.997  49.723  41.054  1.00  0.00     0.079 C 
BRANCH  11  12
HETATM   12  C   UNL     1      27.632  50.874  40.307  1.00  0.00    -0.054 A 
HETATM   13  C   UNL     1      28.297  51.876  41.032  1.00  0.00     0.007 A 
HETATM   14  C   UNL     1      28.942  52.926  40.377  1.00  0.00     0.001 A 
HETATM   15  C   UNL     1      28.939  52.983  38.986  1.00  0.00     0.000 A 
HETATM   16  C   UNL     1      28.294  51.990  38.252  1.00  0.00     0.001 A 
HETATM   17  C   UNL     1      27.649  50.939  38.907  1.00  0.00     0.007 A 
ENDBRANCH  11  12
ENDBRANCH   6  11
ENDBRANCH   2   5
BRANCH   1  18
HETATM   18  C   UNL     1      31.615  50.037  40.096  1.00  0.00     0.081 A 
HETATM   19  C   UNL     1      32.184  50.999  39.276  1.00  0.00     0.068 A 
HETATM   20  C   UNL     1      32.082  51.283  37.828  1.00  0.00     0.078 C 
HETATM   21  O   UNL     1      33.002  51.823  39.991  1.00  0.00    -0.295 OA
HETATM   22  C   UNL     1      32.959  51.418  41.288  1.00  0.00     0.187 A 
HETATM   23  C   UNL     1      32.133  50.318  41.390  1.00  0.00     0.103 A 
HETATM   24  N   UNL     1      33.626  52.041  42.291  1.00  0.00    -0.219 NA
HETATM   25  C   UNL     1      31.937  49.750  42.695  1.00  0.00     0.262 A 
HETATM   26  N   UNL     1      32.594  50.434  43.694  1.00  0.00    -0.317 N 
HETATM   27  O   UNL     1      31.275  48.743  42.913  1.00  0.00    -0.267 OA
HETATM   28  C   UNL     1      33.404  51.522  43.454  1.00  0.00     0.212 A 
HETATM   29  H   UNL     1      32.481  50.071  44.630  1.00  0.00     0.170 HD
ENDBRANCH   1  18
TORSDOF 4
ENDMDL
MODEL 10
REMARK VINA RESULT:      -8.2      2.620      4.597
REMARK  4 active torsions:
REMARK  status: ('A' for Active; 'I' for Inactive)
REMARK    1  A    between atoms: C_6  and  C_7 
REMARK       I    between atoms: C_7  and  N_8 
REMARK    2  A    between atoms: N_8  and  C_9 
REMARK    3  A    between atoms: C_10  and  C_11 
REMARK    4  A    between atoms: C_11  and  C_12 
ROOT
HETATM    1  C   UNL     1      25.812  44.450  53.372  1.00  0.00     0.259 C 
HETATM    2  N   UNL     1      25.924  44.426  51.997  1.00  0.00    -0.322 N 
HETATM    3  O   UNL     1      24.811  44.140  54.009  1.00  0.00    -0.267 OA
HETATM    4  H   UNL     1      26.750  44.852  51.597  1.00  0.00     0.169 HD
ENDROOT
BRANCH   2   5
HETATM    5  C   UNL     1      25.001  43.873  51.080  1.00  0.00     0.041 A 
HETATM    6  C   UNL     1      25.172  42.546  50.630  1.00  0.00    -0.027 A 
HETATM    7  C   UNL     1      24.182  41.968  49.810  1.00  0.00     0.010 A 
HETATM    8  C   UNL     1      23.059  42.695  49.420  1.00  0.00     0.001 A 
HETATM    9  C   UNL     1      22.911  44.011  49.838  1.00  0.00     0.002 A 
HETATM   10  C   UNL     1      23.877  44.596  50.661  1.00  0.00     0.030 A 
BRANCH   6  11
HETATM   11  C   UNL     1      26.420  41.729  50.906  1.00  0.00     0.079 C 
BRANCH  11  12
HETATM   12  C   UNL     1      26.909  40.844  49.781  1.00  0.00    -0.054 A 
HETATM   13  C   UNL     1      27.513  41.437  48.659  1.00  0.00     0.007 A 
HETATM   14  C   UNL     1      28.025  40.653  47.624  1.00  0.00     0.001 A 
HETATM   15  C   UNL     1      27.951  39.265  47.702  1.00  0.00     0.000 A 
HETATM   16  C   UNL     1      27.367  38.663  48.814  1.00  0.00     0.001 A 
HETATM   17  C   UNL     1      26.854  39.446  49.850  1.00  0.00     0.007 A 
ENDBRANCH  11  12
ENDBRANCH   6  11
ENDBRANCH   2   5
BRANCH   1  18
HETATM   18  C   UNL     1      26.981  44.988  54.052  1.00  0.00     0.081 A 
HETATM   19  C   UNL     1      27.100  46.299  54.490  1.00  0.00     0.068 A 
HETATM   20  C   UNL     1      26.218  47.483  54.390  1.00  0.00     0.078 C 
HETATM   21  O   UNL     1      28.288  46.491  55.131  1.00  0.00    -0.295 OA
HETATM   22  C   UNL     1      28.948  45.302  55.134  1.00  0.00     0.187 A 
HETATM   23  C   UNL     1      28.187  44.362  54.470  1.00  0.00     0.103 A 
HETATM   24  N   UNL     1      30.153  45.115  55.727  1.00  0.00    -0.219 NA
HETATM   25  C   UNL     1      28.706  43.025  54.384  1.00  0.00     0.262 A 
HETATM   26  N   UNL     1      29.911  42.862  55.033  1.00  0.00    -0.317 N 
HETATM   27  O   UNL     1      28.158  42.114  53.776  1.00  0.00    -0.267 OA
HETATM   28  C   UNL     1      30.576  43.895  55.655  1.00  0.00     0.212 A 
HETATM   29  H   UNL     1      30.311  41.936  55.001  1.00  0.00     0.170 HD
ENDBRANCH   1  18
TORSDOF 4
ENDMDL
