MODEL 1
REMARK VINA RESULT:      -8.0      0.000      0.000
REMARK  6 active torsions:
REMARK  status: ('A' for Active; 'I' for Inactive)
REMARK    1  A    between atoms: C_3  and  N_4 
REMARK       I    between atoms: N_4  and  C_5 
REMARK       I    between atoms: C_5  and  N_6 
REMARK    2  A    between atoms: N_6  and  C_7 
REMARK    3  A    between atoms: C_7  and  C_8 
REMARK    4  A    between atoms: C_9  and  O_10 
REMARK    5  A    between atoms: O_10  and  C_11 
REMARK    6  A    between atoms: C_11  and  C_12 
ROOT
HETATM    1  N   UNL     1      26.588  42.837  52.758  1.00  0.00    -0.307 N 
HETATM    2  C   UNL     1      27.895  43.274  52.671  1.00  0.00     0.321 C 
HETATM    3  N   UNL     1      28.584  42.920  53.808  1.00  0.00    -0.339 N 
HETATM    4  O   UNL     1      28.378  43.946  51.771  1.00  0.00    -0.247 OA
HETATM    5  H   UNL     1      26.253  42.872  53.710  1.00  0.00     0.170 HD
HETATM    6  H   UNL     1      28.337  42.027  54.211  1.00  0.00     0.164 HD
ENDROOT
BRANCH   3   7
HETATM    7  C   UNL     1      29.965  43.304  53.995  1.00  0.00     0.165 C 
BRANCH   7   8
HETATM    8  C   UNL     1      30.227  43.897  55.358  1.00  0.00    -0.007 A 
HETATM    9  C   UNL     1      29.617  45.099  55.768  1.00  0.00     0.076 A 
HETATM   10  C   UNL     1      29.939  45.644  57.014  1.00  0.00     0.037 A 
HETATM   11  C   UNL     1      30.847  44.998  57.858  1.00  0.00     0.003 A 
HETATM   12  C   UNL     1      31.433  43.799  57.467  1.00  0.00     0.001 A 
HETATM   13  C   UNL     1      31.124  43.249  56.225  1.00  0.00     0.011 A 
BRANCH   9  14
HETATM   14  O   UNL     1      28.709  45.635  54.890  1.00  0.00    -0.350 OA
BRANCH  14  15
HETATM   15  C   UNL     1      28.394  47.022  55.030  1.00  0.00     0.179 C 
BRANCH  15  16
HETATM   16  C   UNL     1      26.870  47.182  54.934  1.00  0.00     0.002 C 
HETATM   17  C   UNL     1      26.414  48.477  55.613  1.00  0.00     0.011 C 
HETATM   18  C   UNL     1      26.419  47.162  53.475  1.00  0.00     0.011 C 
ENDBRANCH  15  16
ENDBRANCH  14  15
ENDBRANCH   9  14
ENDBRANCH   7   8
ENDBRANCH   3   7
BRANCH   1  19
HETATM   19  C   UNL     1      25.616  43.021  51.748  1.00  0.00     0.059 A 
HETATM   20  C   UNL     1      25.385  42.139  50.683  1.00  0.00    -0.032 A 
HETATM   21  C   UNL     1      26.099  40.830  50.503  1.00  0.00     0.050 C 
HETATM   22  C   UNL     1      24.404  42.484  49.738  1.00  0.00     0.028 A 
HETATM   23  C   UNL     1      23.661  43.642  49.914  1.00  0.00     0.117 A 
HETATM   24  N   UNL     1      23.815  44.474  50.960  1.00  0.00    -0.271 NA
HETATM   25  C   UNL     1      24.782  44.140  51.847  1.00  0.00     0.146 A 
ENDBRANCH   1  19
TORSDOF 6
ENDMDL
MODEL 2
REMARK VINA RESULT:      -8.0      3.185      5.258
REMARK  6 active torsions:
REMARK  status: ('A' for Active; 'I' for Inactive)
REMARK    1  A    between atoms: C_3  and  N_4 
REMARK       I    between atoms: N_4  and  C_5 
REMARK       I    between atoms: C_5  and  N_6 
REMARK    2  A    between atoms: N_6  and  C_7 
REMARK    3  A    between atoms: C_7  and  C_8 
REMARK    4  A    between atoms: C_9  and  O_10 
REMARK    5  A    between atoms: O_10  and  C_11 
REMARK    6  A    between atoms: C_11  and  C_12 
ROOT
HETATM    1  N   UNL     1      26.052  46.751  50.648  1.00  0.00    -0.307 N 
HETATM    2  C   UNL     1      26.023  46.750  52.028  1.00  0.00     0.321 C 
HETATM    3  N   UNL     1      26.623  45.608  52.509  1.00  0.00    -0.339 N 
HETATM    4  O   UNL     1      25.481  47.579  52.744  1.00  0.00    -0.247 OA
HETATM    5  H   UNL     1      25.967  45.815  50.279  1.00  0.00     0.170 HD
HETATM    6  H   UNL     1      27.421  45.278  51.984  1.00  0.00     0.164 HD
ENDROOT
BRANCH   3   7
HETATM    7  C   UNL     1      26.681  45.334  53.927  1.00  0.00     0.165 C 
BRANCH   7   8
HETATM    8  C   UNL     1      27.998  44.732  54.352  1.00  0.00    -0.007 A 
HETATM    9  C   UNL     1      28.419  43.473  53.882  1.00  0.00     0.076 A 
HETATM   10  C   UNL     1      29.617  42.927  54.353  1.00  0.00     0.037 A 
HETATM   11  C   UNL     1      30.402  43.628  55.272  1.00  0.00     0.003 A 
HETATM   12  C   UNL     1      30.002  44.882  55.720  1.00  0.00     0.001 A 
HETATM   13  C   UNL     1      28.808  45.433  55.262  1.00  0.00     0.011 A 
BRANCH   9  14
HETATM   14  O   UNL     1      27.603  42.882  52.950  1.00  0.00    -0.350 OA
BRANCH  14  15
HETATM   15  C   UNL     1      27.841  41.507  52.640  1.00  0.00     0.179 C 
BRANCH  15  16
HETATM   16  C   UNL     1      27.118  41.179  51.325  1.00  0.00     0.002 C 
HETATM   17  C   UNL     1      26.561  42.449  50.677  1.00  0.00     0.011 C 
HETATM   18  C   UNL     1      28.061  40.463  50.360  1.00  0.00     0.011 C 
ENDBRANCH  15  16
ENDBRANCH  14  15
ENDBRANCH   9  14
ENDBRANCH   7   8
ENDBRANCH   3   7
BRANCH   1  19
HETATM   19  C   UNL     1      25.535  47.789  49.839  1.00  0.00     0.059 A 
HETATM   20  C   UNL     1      26.306  48.765  49.192  1.00  0.00    -0.032 A 
HETATM   21  C   UNL     1      27.808  48.803  49.212  1.00  0.00     0.050 C 
HETATM   22  C   UNL     1      25.637  49.755  48.452  1.00  0.00     0.028 A 
HETATM   23  C   UNL     1      24.256  49.706  48.337  1.00  0.00     0.117 A 
HETATM   24  N   UNL     1      23.495  48.745  48.892  1.00  0.00    -0.271 NA
HETATM   25  C   UNL     1      24.154  47.815  49.623  1.00  0.00     0.146 A 
ENDBRANCH   1  19
TORSDOF 6
ENDMDL
MODEL 3
REMARK VINA RESULT:      -7.7      2.027      2.761
REMARK  6 active torsions:
REMARK  status: ('A' for Active; 'I' for Inactive)
REMARK    1  A    between atoms: C_3  and  N_4 
REMARK       I    between atoms: N_4  and  C_5 
REMARK       I    between atoms: C_5  and  N_6 
REMARK    2  A    between atoms: N_6  and  C_7 
REMARK    3  A    between atoms: C_7  and  C_8 
REMARK    4  A    between atoms: C_9  and  O_10 
REMARK    5  A    between atoms: O_10  and  C_11 
REMARK    6  A    between atoms: C_11  and  C_12 
ROOT
HETATM    1  N   UNL     1      26.142  45.357  50.959  1.00  0.00    -0.307 N 
HETATM    2  C   UNL     1      26.014  44.653  52.140  1.00  0.00     0.321 C 
HETATM    3  N   UNL     1      27.242  44.175  52.537  1.00  0.00    -0.339 N 
HETATM    4  O   UNL     1      24.971  44.404  52.727  1.00  0.00    -0.247 OA
HETATM    5  H   UNL     1      26.861  44.958  50.371  1.00  0.00     0.170 HD
HETATM    6  H   UNL     1      28.029  44.780  52.349  1.00  0.00     0.164 HD
ENDROOT
BRANCH   3   7
HETATM    7  C   UNL     1      27.379  43.358  53.720  1.00  0.00     0.165 C 
BRANCH   7   8
HETATM    8  C   UNL     1      28.602  43.707  54.533  1.00  0.00    -0.007 A 
HETATM    9  C   UNL     1      28.732  44.958  55.167  1.00  0.00     0.076 A 
HETATM   10  C   UNL     1      29.910  45.262  55.855  1.00  0.00     0.037 A 
HETATM   11  C   UNL     1      30.949  44.330  55.929  1.00  0.00     0.003 A 
HETATM   12  C   UNL     1      30.815  43.084  55.324  1.00  0.00     0.001 A 
HETATM   13  C   UNL     1      29.647  42.773  54.631  1.00  0.00     0.011 A 
BRANCH   9  14
HETATM   14  O   UNL     1      27.644  45.789  55.074  1.00  0.00    -0.350 OA
BRANCH  14  15
HETATM   15  C   UNL     1      27.614  46.937  55.925  1.00  0.00     0.179 C 
BRANCH  15  16
HETATM   16  C   UNL     1      26.928  48.082  55.165  1.00  0.00     0.002 C 
HETATM   17  C   UNL     1      25.945  47.534  54.125  1.00  0.00     0.011 C 
HETATM   18  C   UNL     1      26.205  49.012  56.137  1.00  0.00     0.011 C 
ENDBRANCH  15  16
ENDBRANCH  14  15
ENDBRANCH   9  14
ENDBRANCH   7   8
ENDBRANCH   3   7
BRANCH   1  19
HETATM   19  C   UNL     1      25.073  45.995  50.289  1.00  0.00     0.059 A 
HETATM   20  C   UNL     1      24.177  45.361  49.416  1.00  0.00    -0.032 A 
HETATM   21  C   UNL     1      24.188  43.888  49.121  1.00  0.00     0.050 C 
HETATM   22  C   UNL     1      23.188  46.144  48.798  1.00  0.00     0.028 A 
HETATM   23  C   UNL     1      23.089  47.491  49.109  1.00  0.00     0.117 A 
HETATM   24  N   UNL     1      23.892  48.113  49.992  1.00  0.00    -0.271 NA
HETATM   25  C   UNL     1      24.856  47.350  50.557  1.00  0.00     0.146 A 
ENDBRANCH   1  19
TORSDOF 6
ENDMDL
MODEL 4
REMARK VINA RESULT:      -7.5      2.271      7.340
REMARK  6 active torsions:
REMARK  status: ('A' for Active; 'I' for Inactive)
REMARK    1  A    between atoms: C_3  and  N_4 
REMARK       I    between atoms: N_4  and  C_5 
REMARK       I    between atoms: C_5  and  N_6 
REMARK    2  A    between atoms: N_6  and  C_7 
REMARK    3  A    between atoms: C_7  and  C_8 
REMARK    4  A    between atoms: C_9  and  O_10 
REMARK    5  A    between atoms: O_10  and  C_11 
REMARK    6  A    between atoms: C_11  and  C_12 
ROOT
HETATM    1  N   UNL     1      28.950  45.827  55.183  1.00  0.00    -0.307 N 
HETATM    2  C   UNL     1      27.679  45.365  54.905  1.00  0.00     0.321 C 
HETATM    3  N   UNL     1      27.058  46.211  54.014  1.00  0.00    -0.339 N 
HETATM    4  O   UNL     1      27.127  44.402  55.416  1.00  0.00    -0.247 OA
HETATM    5  H   UNL     1      28.983  46.836  55.176  1.00  0.00     0.170 HD
HETATM    6  H   UNL     1      27.654  46.617  53.307  1.00  0.00     0.164 HD
ENDROOT
BRANCH   3   7
HETATM    7  C   UNL     1      25.694  45.984  53.594  1.00  0.00     0.165 C 
BRANCH   7   8
HETATM    8  C   UNL     1      25.564  45.816  52.099  1.00  0.00    -0.007 A 
HETATM    9  C   UNL     1      25.954  44.626  51.455  1.00  0.00     0.076 A 
HETATM   10  C   UNL     1      25.876  44.539  50.062  1.00  0.00     0.037 A 
HETATM   11  C   UNL     1      25.400  45.617  49.310  1.00  0.00     0.003 A 
HETATM   12  C   UNL     1      24.991  46.785  49.944  1.00  0.00     0.001 A 
HETATM   13  C   UNL     1      25.071  46.885  51.331  1.00  0.00     0.011 A 
BRANCH   9  14
HETATM   14  O   UNL     1      26.367  43.610  52.280  1.00  0.00    -0.350 OA
BRANCH  14  15
HETATM   15  C   UNL     1      27.656  43.043  52.037  1.00  0.00     0.179 C 
BRANCH  15  16
HETATM   16  C   UNL     1      27.525  41.513  52.084  1.00  0.00     0.002 C 
HETATM   17  C   UNL     1      28.152  40.875  50.840  1.00  0.00     0.011 C 
HETATM   18  C   UNL     1      28.177  40.958  53.348  1.00  0.00     0.011 C 
ENDBRANCH  15  16
ENDBRANCH  14  15
ENDBRANCH   9  14
ENDBRANCH   7   8
ENDBRANCH   3   7
BRANCH   1  19
HETATM   19  C   UNL     1      29.862  45.180  56.048  1.00  0.00     0.059 A 
HETATM   20  C   UNL     1      30.583  44.018  55.735  1.00  0.00    -0.032 A 
HETATM   21  C   UNL     1      30.537  43.332  54.399  1.00  0.00     0.050 C 
HETATM   22  C   UNL     1      31.424  43.475  56.720  1.00  0.00     0.028 A 
HETATM   23  C   UNL     1      31.563  44.125  57.937  1.00  0.00     0.117 A 
HETATM   24  N   UNL     1      30.935  45.276  58.242  1.00  0.00    -0.271 NA
HETATM   25  C   UNL     1      30.107  45.771  57.292  1.00  0.00     0.146 A 
ENDBRANCH   1  19
TORSDOF 6
ENDMDL
MODEL 5
REMARK VINA RESULT:      -7.5      7.209     11.395
REMARK  6 active torsions:
REMARK  status: ('A' for Active; 'I' for Inactive)
REMARK    1  A    between atoms: C_3  and  N_4 
REMARK       I    between atoms: N_4  and  C_5 
REMARK       I    between atoms: C_5  and  N_6 
REMARK    2  A    between atoms: N_6  and  C_7 
REMARK    3  A    between atoms: C_7  and  C_8 
REMARK    4  A    between atoms: C_9  and  O_10 
REMARK    5  A    between atoms: O_10  and  C_11 
REMARK    6  A    between atoms: C_11  and  C_12 
ROOT
HETATM    1  N   UNL     1      22.887  48.253  49.520  1.00  0.00    -0.307 N 
HETATM    2  C   UNL     1      22.042  47.628  48.624  1.00  0.00     0.321 C 
HETATM    3  N   UNL     1      20.803  47.448  49.195  1.00  0.00    -0.339 N 
HETATM    4  O   UNL     1      22.341  47.211  47.515  1.00  0.00    -0.247 OA
HETATM    5  H   UNL     1      22.687  47.971  50.470  1.00  0.00     0.170 HD
HETATM    6  H   UNL     1      20.491  48.188  49.808  1.00  0.00     0.164 HD
ENDROOT
BRANCH   3   7
HETATM    7  C   UNL     1      19.744  46.768  48.485  1.00  0.00     0.165 C 
BRANCH   7   8
HETATM    8  C   UNL     1      19.088  47.639  47.442  1.00  0.00    -0.007 A 
HETATM    9  C   UNL     1      18.525  48.887  47.773  1.00  0.00     0.076 A 
HETATM   10  C   UNL     1      17.871  49.632  46.787  1.00  0.00     0.037 A 
HETATM   11  C   UNL     1      17.785  49.152  45.477  1.00  0.00     0.003 A 
HETATM   12  C   UNL     1      18.360  47.932  45.140  1.00  0.00     0.001 A 
HETATM   13  C   UNL     1      19.010  47.179  46.116  1.00  0.00     0.011 A 
BRANCH   9  14
HETATM   14  O   UNL     1      18.697  49.291  49.073  1.00  0.00    -0.350 OA
BRANCH  14  15
HETATM   15  C   UNL     1      18.020  50.479  49.491  1.00  0.00     0.179 C 
BRANCH  15  16
HETATM   16  C   UNL     1      19.070  51.576  49.723  1.00  0.00     0.002 C 
HETATM   17  C   UNL     1      20.428  50.964  50.080  1.00  0.00     0.011 C 
HETATM   18  C   UNL     1      19.199  52.464  48.487  1.00  0.00     0.011 C 
ENDBRANCH  15  16
ENDBRANCH  14  15
ENDBRANCH   9  14
ENDBRANCH   7   8
ENDBRANCH   3   7
BRANCH   1  19
HETATM   19  C   UNL     1      24.228  48.602  49.243  1.00  0.00     0.059 A 
HETATM   20  C   UNL     1      24.632  49.711  48.485  1.00  0.00    -0.032 A 
HETATM   21  C   UNL     1      23.687  50.730  47.914  1.00  0.00     0.050 C 
HETATM   22  C   UNL     1      26.006  49.900  48.268  1.00  0.00     0.028 A 
HETATM   23  C   UNL     1      26.917  49.031  48.850  1.00  0.00     0.117 A 
HETATM   24  N   UNL     1      26.563  47.997  49.635  1.00  0.00    -0.271 NA
HETATM   25  C   UNL     1      25.234  47.814  49.812  1.00  0.00     0.146 A 
ENDBRANCH   1  19
TORSDOF 6
ENDMDL
MODEL 6
REMARK VINA RESULT:      -7.5      2.560      7.092
REMARK  6 active torsions:
REMARK  status: ('A' for Active; 'I' for Inactive)
REMARK    1  A    between atoms: C_3  and  N_4 
REMARK       I    between atoms: N_4  and  C_5 
REMARK       I    between atoms: C_5  and  N_6 
REMARK    2  A    between atoms: N_6  and  C_7 
REMARK    3  A    between atoms: C_7  and  C_8 
REMARK    4  A    between atoms: C_9  and  O_10 
REMARK    5  A    between atoms: O_10  and  C_11 
REMARK    6  A    between atoms: C_11  and  C_12 
ROOT
HETATM    1  N   UNL     1      28.362  45.052  54.057  1.00  0.00    -0.307 N 
HETATM    2  C   UNL     1      27.075  44.554  54.008  1.00  0.00     0.321 C 
HETATM    3  N   UNL     1      26.413  45.070  52.917  1.00  0.00    -0.339 N 
HETATM    4  O   UNL     1      26.545  43.828  54.836  1.00  0.00    -0.247 OA
HETATM    5  H   UNL     1      28.401  46.001  53.712  1.00  0.00     0.170 HD
HETATM    6  H   UNL     1      26.974  45.204  52.088  1.00  0.00     0.164 HD
ENDROOT
BRANCH   3   7
HETATM    7  C   UNL     1      25.028  44.748  52.662  1.00  0.00     0.165 C 
BRANCH   7   8
HETATM    8  C   UNL     1      24.789  44.277  51.248  1.00  0.00    -0.007 A 
HETATM    9  C   UNL     1      24.878  45.159  50.153  1.00  0.00     0.076 A 
HETATM   10  C   UNL     1      24.586  44.693  48.868  1.00  0.00     0.037 A 
HETATM   11  C   UNL     1      24.222  43.359  48.663  1.00  0.00     0.003 A 
HETATM   12  C   UNL     1      24.156  42.479  49.738  1.00  0.00     0.001 A 
HETATM   13  C   UNL     1      24.440  42.935  51.023  1.00  0.00     0.011 A 
BRANCH   9  14
HETATM   14  O   UNL     1      25.284  46.436  50.449  1.00  0.00    -0.350 OA
BRANCH  14  15
HETATM   15  C   UNL     1      26.504  46.895  49.861  1.00  0.00     0.179 C 
BRANCH  15  16
HETATM   16  C   UNL     1      26.450  48.427  49.776  1.00  0.00     0.002 C 
HETATM   17  C   UNL     1      27.698  48.978  49.079  1.00  0.00     0.011 C 
HETATM   18  C   UNL     1      25.191  48.880  49.040  1.00  0.00     0.011 C 
ENDBRANCH  15  16
ENDBRANCH  14  15
ENDBRANCH   9  14
ENDBRANCH   7   8
ENDBRANCH   3   7
BRANCH   1  19
HETATM   19  C   UNL     1      29.314  44.708  55.043  1.00  0.00     0.059 A 
HETATM   20  C   UNL     1      30.204  43.628  54.961  1.00  0.00    -0.032 A 
HETATM   21  C   UNL     1      30.317  42.718  53.771  1.00  0.00     0.050 C 
HETATM   22  C   UNL     1      31.067  43.396  56.045  1.00  0.00     0.028 A 
HETATM   23  C   UNL     1      31.056  44.263  57.126  1.00  0.00     0.117 A 
HETATM   24  N   UNL     1      30.259  45.346  57.205  1.00  0.00    -0.271 NA
HETATM   25  C   UNL     1      29.416  45.539  56.164  1.00  0.00     0.146 A 
ENDBRANCH   1  19
TORSDOF 6
ENDMDL
MODEL 7
REMARK VINA RESULT:      -7.3      2.898      3.977
REMARK  6 active torsions:
REMARK  status: ('A' for Active; 'I' for Inactive)
REMARK    1  A    between atoms: C_3  and  N_4 
REMARK       I    between atoms: N_4  and  C_5 
REMARK       I    between atoms: C_5  and  N_6 
REMARK    2  A    between atoms: N_6  and  C_7 
REMARK    3  A    between atoms: C_7  and  C_8 
REMARK    4  A    between atoms: C_9  and  O_10 
REMARK    5  A    between atoms: O_10  and  C_11 
REMARK    6  A    between atoms: C_11  and  C_12 
ROOT
HETATM    1  N   UNL     1      28.895  40.626  50.506  1.00  0.00    -0.307 N 
HETATM    2  C   UNL     1      27.947  41.087  51.397  1.00  0.00     0.321 C 
HETATM    3  N   UNL     1      28.547  41.873  52.356  1.00  0.00    -0.339 N 
HETATM    4  O   UNL     1      26.760  40.796  51.411  1.00  0.00    -0.247 OA
HETATM    5  H   UNL     1      29.779  40.459  50.966  1.00  0.00     0.170 HD
HETATM    6  H   UNL     1      29.314  42.447  52.034  1.00  0.00     0.164 HD
ENDROOT
BRANCH   3   7
HETATM    7  C   UNL     1      27.782  42.441  53.442  1.00  0.00     0.165 C 
BRANCH   7   8
HETATM    8  C   UNL     1      28.611  43.332  54.335  1.00  0.00    -0.007 A 
HETATM    9  C   UNL     1      28.168  44.615  54.712  1.00  0.00     0.076 A 
HETATM   10  C   UNL     1      28.997  45.430  55.488  1.00  0.00     0.037 A 
HETATM   11  C   UNL     1      30.252  44.975  55.901  1.00  0.00     0.003 A 
HETATM   12  C   UNL     1      30.684  43.700  55.551  1.00  0.00     0.001 A 
HETATM   13  C   UNL     1      29.868  42.882  54.774  1.00  0.00     0.011 A 
BRANCH   9  14
HETATM   14  O   UNL     1      26.906  44.955  54.294  1.00  0.00    -0.350 OA
BRANCH  14  15
HETATM   15  C   UNL     1      26.658  46.330  53.992  1.00  0.00     0.179 C 
BRANCH  15  16
HETATM   16  C   UNL     1      25.585  46.396  52.895  1.00  0.00     0.002 C 
HETATM   17  C   UNL     1      26.099  47.168  51.676  1.00  0.00     0.011 C 
HETATM   18  C   UNL     1      25.149  44.991  52.486  1.00  0.00     0.011 C 
ENDBRANCH  15  16
ENDBRANCH  14  15
ENDBRANCH   9  14
ENDBRANCH   7   8
ENDBRANCH   3   7
BRANCH   1  19
HETATM   19  C   UNL     1      28.610  39.807  49.389  1.00  0.00     0.059 A 
HETATM   20  C   UNL     1      28.895  38.437  49.302  1.00  0.00    -0.032 A 
HETATM   21  C   UNL     1      29.486  37.627  50.420  1.00  0.00     0.050 C 
HETATM   22  C   UNL     1      28.582  37.770  48.106  1.00  0.00     0.028 A 
HETATM   23  C   UNL     1      27.955  38.462  47.081  1.00  0.00     0.117 A 
HETATM   24  N   UNL     1      27.610  39.760  47.160  1.00  0.00    -0.271 NA
HETATM   25  C   UNL     1      27.943  40.394  48.309  1.00  0.00     0.146 A 
ENDBRANCH   1  19
TORSDOF 6
ENDMDL
MODEL 8
REMARK VINA RESULT:      -7.2      7.189     11.417
REMARK  6 active torsions:
REMARK  status: ('A' for Active; 'I' for Inactive)
REMARK    1  A    between atoms: C_3  and  N_4 
REMARK       I    between atoms: N_4  and  C_5 
REMARK       I    between atoms: C_5  and  N_6 
REMARK    2  A    between atoms: N_6  and  C_7 
REMARK    3  A    between atoms: C_7  and  C_8 
REMARK    4  A    between atoms: C_9  and  O_10 
REMARK    5  A    between atoms: O_10  and  C_11 
REMARK    6  A    between atoms: C_11  and  C_12 
ROOT
HETATM    1  N   UNL     1      22.878  48.742  49.279  1.00  0.00    -0.307 N 
HETATM    2  C   UNL     1      22.075  47.876  48.562  1.00  0.00     0.321 C 
HETATM    3  N   UNL     1      20.791  47.909  49.058  1.00  0.00    -0.339 N 
HETATM    4  O   UNL     1      22.435  47.121  47.672  1.00  0.00    -0.247 OA
HETATM    5  H   UNL     1      22.599  48.782  50.249  1.00  0.00     0.170 HD
HETATM    6  H   UNL     1      20.467  48.812  49.375  1.00  0.00     0.164 HD
ENDROOT
BRANCH   3   7
HETATM    7  C   UNL     1      19.760  47.054  48.517  1.00  0.00     0.165 C 
BRANCH   7   8
HETATM    8  C   UNL     1      19.353  47.445  47.117  1.00  0.00    -0.007 A 
HETATM    9  C   UNL     1      18.888  48.741  46.819  1.00  0.00     0.076 A 
HETATM   10  C   UNL     1      18.462  49.040  45.522  1.00  0.00     0.037 A 
HETATM   11  C   UNL     1      18.508  48.067  44.519  1.00  0.00     0.003 A 
HETATM   12  C   UNL     1      18.989  46.793  44.803  1.00  0.00     0.001 A 
HETATM   13  C   UNL     1      19.411  46.483  46.093  1.00  0.00     0.011 A 
BRANCH   9  14
HETATM   14  O   UNL     1      18.920  49.638  47.858  1.00  0.00    -0.350 OA
BRANCH  14  15
HETATM   15  C   UNL     1      18.401  50.947  47.616  1.00  0.00     0.179 C 
BRANCH  15  16
HETATM   16  C   UNL     1      19.206  51.947  48.460  1.00  0.00     0.002 C 
HETATM   17  C   UNL     1      18.595  52.098  49.856  1.00  0.00     0.011 C 
HETATM   18  C   UNL     1      20.664  51.508  48.566  1.00  0.00     0.011 C 
ENDBRANCH  15  16
ENDBRANCH  14  15
ENDBRANCH   9  14
ENDBRANCH   7   8
ENDBRANCH   3   7
BRANCH   1  19
HETATM   19  C   UNL     1      24.249  48.962  49.016  1.00  0.00     0.059 A 
HETATM   20  C   UNL     1      25.307  48.283  49.638  1.00  0.00    -0.032 A 
HETATM   21  C   UNL     1      25.126  47.170  50.630  1.00  0.00     0.050 C 
HETATM   22  C   UNL     1      26.620  48.644  49.293  1.00  0.00     0.028 A 
HETATM   23  C   UNL     1      26.831  49.606  48.318  1.00  0.00     0.117 A 
HETATM   24  N   UNL     1      25.837  50.228  47.657  1.00  0.00    -0.271 NA
HETATM   25  C   UNL     1      24.579  49.888  48.021  1.00  0.00     0.146 A 
ENDBRANCH   1  19
TORSDOF 6
ENDMDL
MODEL 9
REMARK VINA RESULT:      -7.1      5.424      8.197
REMARK  6 active torsions:
REMARK  status: ('A' for Active; 'I' for Inactive)
REMARK    1  A    between atoms: C_3  and  N_4 
REMARK       I    between atoms: N_4  and  C_5 
REMARK       I    between atoms: C_5  and  N_6 
REMARK    2  A    between atoms: N_6  and  C_7 
REMARK    3  A    between atoms: C_7  and  C_8 
REMARK    4  A    between atoms: C_9  and  O_10 
REMARK    5  A    between atoms: O_10  and  C_11 
REMARK    6  A    between atoms: C_11  and  C_12 
ROOT
HETATM    1  N   UNL     1      21.086  48.229  49.341  1.00  0.00    -0.307 N 
HETATM    2  C   UNL     1      21.979  47.493  48.589  1.00  0.00     0.321 C 
HETATM    3  N   UNL     1      22.420  46.409  49.314  1.00  0.00    -0.339 N 
HETATM    4  O   UNL     1      22.399  47.775  47.476  1.00  0.00    -0.247 OA
HETATM    5  H   UNL     1      21.328  48.209  50.321  1.00  0.00     0.170 HD
HETATM    6  H   UNL     1      21.734  45.977  49.918  1.00  0.00     0.164 HD
ENDROOT
BRANCH   3   7
HETATM    7  C   UNL     1      23.406  45.500  48.775  1.00  0.00     0.165 C 
BRANCH   7   8
HETATM    8  C   UNL     1      24.216  44.814  49.848  1.00  0.00    -0.007 A 
HETATM    9  C   UNL     1      25.028  45.545  50.737  1.00  0.00     0.076 A 
HETATM   10  C   UNL     1      25.811  44.863  51.674  1.00  0.00     0.037 A 
HETATM   11  C   UNL     1      25.781  43.467  51.741  1.00  0.00     0.003 A 
HETATM   12  C   UNL     1      24.962  42.743  50.881  1.00  0.00     0.001 A 
HETATM   13  C   UNL     1      24.182  43.412  49.940  1.00  0.00     0.011 A 
BRANCH   9  14
HETATM   14  O   UNL     1      24.958  46.910  50.622  1.00  0.00    -0.350 OA
BRANCH  14  15
HETATM   15  C   UNL     1      26.187  47.639  50.646  1.00  0.00     0.179 C 
BRANCH  15  16
HETATM   16  C   UNL     1      26.411  48.251  49.255  1.00  0.00     0.002 C 
HETATM   17  C   UNL     1      25.265  49.198  48.886  1.00  0.00     0.011 C 
HETATM   18  C   UNL     1      27.746  48.991  49.204  1.00  0.00     0.011 C 
ENDBRANCH  15  16
ENDBRANCH  14  15
ENDBRANCH   9  14
ENDBRANCH   7   8
ENDBRANCH   3   7
BRANCH   1  19
HETATM   19  C   UNL     1      20.431  49.397  48.885  1.00  0.00     0.059 A 
HETATM   20  C   UNL     1      20.896  50.706  49.075  1.00  0.00    -0.032 A 
HETATM   21  C   UNL     1      22.200  51.050  49.737  1.00  0.00     0.050 C 
HETATM   22  C   UNL     1      20.109  51.765  48.593  1.00  0.00     0.028 A 
HETATM   23  C   UNL     1      18.940  51.489  47.900  1.00  0.00     0.117 A 
HETATM   24  N   UNL     1      18.503  50.242  47.644  1.00  0.00    -0.271 NA
HETATM   25  C   UNL     1      19.259  49.234  48.140  1.00  0.00     0.146 A 
ENDBRANCH   1  19
TORSDOF 6
ENDMDL
MODEL 10
REMARK VINA RESULT:      -7.0      7.488     11.623
REMARK  6 active torsions:
REMARK  status: ('A' for Active; 'I' for Inactive)
REMARK    1  A    between atoms: C_3  and  N_4 
REMARK       I    between atoms: N_4  and  C_5 
REMARK       I    between atoms: C_5  and  N_6 
REMARK    2  A    between atoms: N_6  and  C_7 
REMARK    3  A    between atoms: C_7  and  C_8 
REMARK    4  A    between atoms: C_9  and  O_10 
REMARK    5  A    between atoms: O_10  and  C_11 
REMARK    6  A    between atoms: C_11  and  C_12 
ROOT
HETATM    1  N   UNL     1      23.081  48.776  49.124  1.00  0.00    -0.307 N 
HETATM    2  C   UNL     1      22.249  49.670  49.767  1.00  0.00     0.321 C 
HETATM    3  N   UNL     1      20.958  49.193  49.768  1.00  0.00    -0.339 N 
HETATM    4  O   UNL     1      22.563  50.766  50.209  1.00  0.00    -0.247 OA
HETATM    5  H   UNL     1      22.603  48.311  48.366  1.00  0.00     0.170 HD
HETATM    6  H   UNL     1      20.861  48.192  49.870  1.00  0.00     0.164 HD
ENDROOT
BRANCH   3   7
HETATM    7  C   UNL     1      19.876  49.964  50.336  1.00  0.00     0.165 C 
BRANCH   7   8
HETATM    8  C   UNL     1      19.044  50.662  49.288  1.00  0.00    -0.007 A 
HETATM    9  C   UNL     1      17.973  50.013  48.645  1.00  0.00     0.076 A 
HETATM   10  C   UNL     1      17.271  50.677  47.635  1.00  0.00     0.037 A 
HETATM   11  C   UNL     1      17.616  51.982  47.272  1.00  0.00     0.003 A 
HETATM   12  C   UNL     1      18.658  52.636  47.921  1.00  0.00     0.001 A 
HETATM   13  C   UNL     1      19.367  51.981  48.925  1.00  0.00     0.011 A 
BRANCH   9  14
HETATM   14  O   UNL     1      17.683  48.751  49.098  1.00  0.00    -0.350 OA
BRANCH  14  15
HETATM   15  C   UNL     1      17.480  47.727  48.121  1.00  0.00     0.179 C 
BRANCH  15  16
HETATM   16  C   UNL     1      18.799  46.960  47.945  1.00  0.00     0.002 C 
HETATM   17  C   UNL     1      18.564  45.449  48.014  1.00  0.00     0.011 C 
HETATM   18  C   UNL     1      19.463  47.333  46.622  1.00  0.00     0.011 C 
ENDBRANCH  15  16
ENDBRANCH  14  15
ENDBRANCH   9  14
ENDBRANCH   7   8
ENDBRANCH   3   7
BRANCH   1  19
HETATM   19  C   UNL     1      24.475  48.955  48.964  1.00  0.00     0.059 A 
HETATM   20  C   UNL     1      25.462  48.245  49.663  1.00  0.00    -0.032 A 
HETATM   21  C   UNL     1      25.175  47.139  50.637  1.00  0.00     0.050 C 
HETATM   22  C   UNL     1      26.808  48.567  49.417  1.00  0.00     0.028 A 
HETATM   23  C   UNL     1      27.119  49.522  48.462  1.00  0.00     0.117 A 
HETATM   24  N   UNL     1      26.196  50.172  47.729  1.00  0.00    -0.271 NA
HETATM   25  C   UNL     1      24.904  49.870  47.998  1.00  0.00     0.146 A 
ENDBRANCH   1  19
TORSDOF 6
ENDMDL
