MODEL 1
REMARK VINA RESULT:     -10.1      0.000      0.000
REMARK  6 active torsions:
REMARK  status: ('A' for Active; 'I' for Inactive)
REMARK    1  A    between atoms: C_6  and  O_7 
REMARK    2  A    between atoms: O_7  and  C_8 
REMARK    3  A    between atoms: C_8  and  C_9 
REMARK       I    between atoms: C_9  and  N_10 
REMARK    4  A    between atoms: N_10  and  N_11 
REMARK       I    between atoms: N_11  and  C_12 
REMARK    5  A    between atoms: C_12  and  C_13 
REMARK    6  A    between atoms: C_17  and  C_18 
ROOT
HETATM    1  N   UNL     1      25.356  47.141  51.615  1.00  0.00    -0.262 N 
HETATM    2  C   UNL     1      25.756  47.390  50.315  1.00  0.00     0.288 C 
HETATM    3  O   UNL     1      26.818  46.974  49.858  1.00  0.00    -0.264 OA
HETATM    4  H   UNL     1      24.367  47.172  51.849  1.00  0.00     0.190 HD
ENDROOT
BRANCH   1   5
HETATM    5  N   UNL     1      26.140  46.286  52.398  1.00  0.00    -0.265 N 
HETATM    6  C   UNL     1      25.646  45.034  52.715  1.00  0.00     0.260 C 
HETATM    7  O   UNL     1      24.486  44.692  52.493  1.00  0.00    -0.269 OA
HETATM    8  H   UNL     1      27.147  46.436  52.383  1.00  0.00     0.190 HD
BRANCH   6   9
HETATM    9  C   UNL     1      26.688  44.103  53.328  1.00  0.00     0.280 C 
BRANCH   9  10
HETATM   10  O   UNL     1      27.990  44.625  53.043  1.00  0.00    -0.341 OA
BRANCH  10  11
HETATM   11  C   UNL     1      28.866  44.355  54.062  1.00  0.00     0.081 A 
HETATM   12  C   UNL     1      29.650  43.193  53.987  1.00  0.00    -0.028 A 
HETATM   13  C   UNL     1      30.576  42.933  55.007  1.00  0.00     0.016 A 
HETATM   14  C   UNL     1      29.501  42.220  52.851  1.00  0.00     0.051 C 
HETATM   15  C   UNL     1      30.747  43.830  56.067  1.00  0.00    -0.061 A 
HETATM   16  C   UNL     1      31.748  43.562  57.152  1.00  0.00     0.048 C 
HETATM   17  C   UNL     1      29.980  45.002  56.103  1.00  0.00     0.016 A 
HETATM   18  C   UNL     1      29.052  45.291  55.091  1.00  0.00    -0.028 A 
HETATM   19  C   UNL     1      28.269  46.571  55.163  1.00  0.00     0.051 C 
ENDBRANCH  10  11
ENDBRANCH   9  10
ENDBRANCH   6   9
ENDBRANCH   1   5
BRANCH   2  20
HETATM   20  C   UNL     1      24.841  48.188  49.546  1.00  0.00     0.121 A 
HETATM   21  N   UNL     1      25.267  49.146  48.672  1.00  0.00    -0.272 N 
HETATM   22  H   UNL     1      26.229  49.382  48.444  1.00  0.00     0.189 HD
HETATM   23  N   UNL     1      24.277  49.839  48.092  1.00  0.00    -0.174 NA
HETATM   24  C   UNL     1      23.149  49.332  48.614  1.00  0.00     0.089 A 
HETATM   25  C   UNL     1      23.463  48.268  49.509  1.00  0.00     0.071 A 
BRANCH  24  26
HETATM   26  C   UNL     1      21.827  49.883  48.285  1.00  0.00    -0.006 A 
HETATM   27  C   UNL     1      20.870  49.122  47.595  1.00  0.00     0.014 A 
HETATM   28  C   UNL     1      19.602  49.645  47.322  1.00  0.00     0.001 A 
HETATM   29  C   UNL     1      19.272  50.934  47.735  1.00  0.00     0.000 A 
HETATM   30  C   UNL     1      20.212  51.705  48.415  1.00  0.00     0.001 A 
HETATM   31  C   UNL     1      21.480  51.183  48.686  1.00  0.00     0.014 A 
ENDBRANCH  24  26
ENDBRANCH   2  20
TORSDOF 6
ENDMDL
MODEL 2
REMARK VINA RESULT:     -10.0      1.054      2.156
REMARK  6 active torsions:
REMARK  status: ('A' for Active; 'I' for Inactive)
REMARK    1  A    between atoms: C_6  and  O_7 
REMARK    2  A    between atoms: O_7  and  C_8 
REMARK    3  A    between atoms: C_8  and  C_9 
REMARK       I    between atoms: C_9  and  N_10 
REMARK    4  A    between atoms: N_10  and  N_11 
REMARK       I    between atoms: N_11  and  C_12 
REMARK    5  A    between atoms: C_12  and  C_13 
REMARK    6  A    between atoms: C_17  and  C_18 
ROOT
HETATM    1  N   UNL     1      25.182  47.309  50.313  1.00  0.00    -0.262 N 
HETATM    2  C   UNL     1      25.574  48.376  49.524  1.00  0.00     0.288 C 
HETATM    3  O   UNL     1      26.748  48.719  49.412  1.00  0.00    -0.264 OA
HETATM    4  H   UNL     1      24.306  46.834  50.113  1.00  0.00     0.190 HD
ENDROOT
BRANCH   1   5
HETATM    5  N   UNL     1      26.177  46.526  50.910  1.00  0.00    -0.265 N 
HETATM    6  C   UNL     1      25.798  45.421  51.651  1.00  0.00     0.260 C 
HETATM    7  O   UNL     1      24.632  45.184  51.958  1.00  0.00    -0.269 OA
HETATM    8  H   UNL     1      27.103  46.552  50.488  1.00  0.00     0.190 HD
BRANCH   6   9
HETATM    9  C   UNL     1      26.962  44.503  52.016  1.00  0.00     0.280 C 
BRANCH   9  10
HETATM   10  O   UNL     1      26.756  44.014  53.345  1.00  0.00    -0.341 OA
BRANCH  10  11
HETATM   11  C   UNL     1      27.933  43.982  54.049  1.00  0.00     0.081 A 
HETATM   12  C   UNL     1      28.289  45.101  54.818  1.00  0.00    -0.028 A 
HETATM   13  C   UNL     1      29.471  45.058  55.570  1.00  0.00     0.016 A 
HETATM   14  C   UNL     1      27.441  46.343  54.833  1.00  0.00     0.051 C 
HETATM   15  C   UNL     1      30.269  43.909  55.587  1.00  0.00    -0.061 A 
HETATM   16  C   UNL     1      31.527  43.855  56.404  1.00  0.00     0.048 C 
HETATM   17  C   UNL     1      29.877  42.791  54.841  1.00  0.00     0.016 A 
HETATM   18  C   UNL     1      28.694  42.804  54.087  1.00  0.00    -0.028 A 
HETATM   19  C   UNL     1      28.304  41.572  53.320  1.00  0.00     0.051 C 
ENDBRANCH  10  11
ENDBRANCH   9  10
ENDBRANCH   6   9
ENDBRANCH   1   5
BRANCH   2  20
HETATM   20  C   UNL     1      24.499  49.061  48.860  1.00  0.00     0.121 A 
HETATM   21  N   UNL     1      24.709  49.884  47.792  1.00  0.00    -0.272 N 
HETATM   22  H   UNL     1      25.596  50.081  47.337  1.00  0.00     0.189 HD
HETATM   23  N   UNL     1      23.603  50.491  47.341  1.00  0.00    -0.174 NA
HETATM   24  C   UNL     1      22.621  50.067  48.153  1.00  0.00     0.089 A 
HETATM   25  C   UNL     1      23.142  49.140  49.102  1.00  0.00     0.071 A 
BRANCH  24  26
HETATM   26  C   UNL     1      21.246  50.571  48.035  1.00  0.00    -0.006 A 
HETATM   27  C   UNL     1      20.749  51.549  48.910  1.00  0.00     0.014 A 
HETATM   28  C   UNL     1      19.450  52.049  48.762  1.00  0.00     0.001 A 
HETATM   29  C   UNL     1      18.632  51.577  47.738  1.00  0.00     0.000 A 
HETATM   30  C   UNL     1      19.107  50.600  46.866  1.00  0.00     0.001 A 
HETATM   31  C   UNL     1      20.403  50.101  47.014  1.00  0.00     0.014 A 
ENDBRANCH  24  26
ENDBRANCH   2  20
TORSDOF 6
ENDMDL
MODEL 3
REMARK VINA RESULT:      -9.9      1.740     10.908
REMARK  6 active torsions:
REMARK  status: ('A' for Active; 'I' for Inactive)
REMARK    1  A    between atoms: C_6  and  O_7 
REMARK    2  A    between atoms: O_7  and  C_8 
REMARK    3  A    between atoms: C_8  and  C_9 
REMARK       I    between atoms: C_9  and  N_10 
REMARK    4  A    between atoms: N_10  and  N_11 
REMARK       I    between atoms: N_11  and  C_12 
REMARK    5  A    between atoms: C_12  and  C_13 
REMARK    6  A    between atoms: C_17  and  C_18 
ROOT
HETATM    1  N   UNL     1      25.133  46.028  51.068  1.00  0.00    -0.262 N 
HETATM    2  C   UNL     1      25.216  44.887  51.846  1.00  0.00     0.288 C 
HETATM    3  O   UNL     1      24.260  44.138  52.025  1.00  0.00    -0.264 OA
HETATM    4  H   UNL     1      25.976  46.413  50.651  1.00  0.00     0.190 HD
ENDROOT
BRANCH   1   5
HETATM    5  N   UNL     1      23.944  46.268  50.369  1.00  0.00    -0.265 N 
HETATM    6  C   UNL     1      23.835  47.425  49.618  1.00  0.00     0.260 C 
HETATM    7  O   UNL     1      24.656  48.338  49.666  1.00  0.00    -0.269 OA
HETATM    8  H   UNL     1      23.379  45.457  50.122  1.00  0.00     0.190 HD
BRANCH   6   9
HETATM    9  C   UNL     1      22.620  47.441  48.695  1.00  0.00     0.280 C 
BRANCH   9  10
HETATM   10  O   UNL     1      22.746  48.547  47.795  1.00  0.00    -0.341 OA
BRANCH  10  11
HETATM   11  C   UNL     1      21.689  49.411  47.921  1.00  0.00     0.081 A 
HETATM   12  C   UNL     1      21.927  50.695  48.436  1.00  0.00    -0.028 A 
HETATM   13  C   UNL     1      20.856  51.596  48.530  1.00  0.00     0.016 A 
HETATM   14  C   UNL     1      23.293  51.111  48.904  1.00  0.00     0.051 C 
HETATM   15  C   UNL     1      19.578  51.241  48.086  1.00  0.00    -0.061 A 
HETATM   16  C   UNL     1      18.434  52.209  48.171  1.00  0.00     0.048 C 
HETATM   17  C   UNL     1      19.371  49.967  47.541  1.00  0.00     0.016 A 
HETATM   18  C   UNL     1      20.426  49.049  47.428  1.00  0.00    -0.028 A 
HETATM   19  C   UNL     1      20.159  47.703  46.817  1.00  0.00     0.051 C 
ENDBRANCH  10  11
ENDBRANCH   9  10
ENDBRANCH   6   9
ENDBRANCH   1   5
BRANCH   2  20
HETATM   20  C   UNL     1      26.504  44.658  52.441  1.00  0.00     0.121 A 
HETATM   21  N   UNL     1      27.469  43.916  51.826  1.00  0.00    -0.272 N 
HETATM   22  H   UNL     1      27.415  43.483  50.908  1.00  0.00     0.189 HD
HETATM   23  N   UNL     1      28.581  43.749  52.554  1.00  0.00    -0.174 NA
HETATM   24  C   UNL     1      28.338  44.394  53.707  1.00  0.00     0.089 A 
HETATM   25  C   UNL     1      27.052  45.006  53.660  1.00  0.00     0.071 A 
BRANCH  24  26
HETATM   26  C   UNL     1      29.299  44.382  54.819  1.00  0.00    -0.006 A 
HETATM   27  C   UNL     1      29.353  45.432  55.749  1.00  0.00     0.014 A 
HETATM   28  C   UNL     1      30.246  45.390  56.825  1.00  0.00     0.001 A 
HETATM   29  C   UNL     1      31.097  44.299  56.986  1.00  0.00     0.000 A 
HETATM   30  C   UNL     1      31.062  43.252  56.068  1.00  0.00     0.001 A 
HETATM   31  C   UNL     1      30.170  43.294  54.993  1.00  0.00     0.014 A 
ENDBRANCH  24  26
ENDBRANCH   2  20
TORSDOF 6
ENDMDL
MODEL 4
REMARK VINA RESULT:      -9.5      1.669     10.612
REMARK  6 active torsions:
REMARK  status: ('A' for Active; 'I' for Inactive)
REMARK    1  A    between atoms: C_6  and  O_7 
REMARK    2  A    between atoms: O_7  and  C_8 
REMARK    3  A    between atoms: C_8  and  C_9 
REMARK       I    between atoms: C_9  and  N_10 
REMARK    4  A    between atoms: N_10  and  N_11 
REMARK       I    between atoms: N_11  and  C_12 
REMARK    5  A    between atoms: C_12  and  C_13 
REMARK    6  A    between atoms: C_17  and  C_18 
ROOT
HETATM    1  N   UNL     1      25.326  46.663  51.305  1.00  0.00    -0.262 N 
HETATM    2  C   UNL     1      25.261  45.462  51.989  1.00  0.00     0.288 C 
HETATM    3  O   UNL     1      24.222  44.815  52.093  1.00  0.00    -0.264 OA
HETATM    4  H   UNL     1      26.217  46.979  50.932  1.00  0.00     0.190 HD
ENDROOT
BRANCH   1   5
HETATM    5  N   UNL     1      24.189  47.092  50.611  1.00  0.00    -0.265 N 
HETATM    6  C   UNL     1      23.986  46.638  49.321  1.00  0.00     0.260 C 
HETATM    7  O   UNL     1      24.834  46.015  48.685  1.00  0.00    -0.269 OA
HETATM    8  H   UNL     1      23.389  47.387  51.168  1.00  0.00     0.190 HD
BRANCH   6   9
HETATM    9  C   UNL     1      22.595  46.949  48.775  1.00  0.00     0.280 C 
BRANCH   9  10
HETATM   10  O   UNL     1      22.728  47.852  47.673  1.00  0.00    -0.341 OA
BRANCH  10  11
HETATM   11  C   UNL     1      21.933  48.957  47.839  1.00  0.00     0.081 A 
HETATM   12  C   UNL     1      20.552  48.831  47.620  1.00  0.00    -0.028 A 
HETATM   13  C   UNL     1      19.729  49.948  47.826  1.00  0.00     0.016 A 
HETATM   14  C   UNL     1      19.948  47.537  47.153  1.00  0.00     0.051 C 
HETATM   15  C   UNL     1      20.263  51.160  48.276  1.00  0.00    -0.061 A 
HETATM   16  C   UNL     1      19.382  52.352  48.512  1.00  0.00     0.048 C 
HETATM   17  C   UNL     1      21.639  51.252  48.523  1.00  0.00     0.016 A 
HETATM   18  C   UNL     1      22.484  50.149  48.333  1.00  0.00    -0.028 A 
HETATM   19  C   UNL     1      23.949  50.292  48.633  1.00  0.00     0.051 C 
ENDBRANCH  10  11
ENDBRANCH   9  10
ENDBRANCH   6   9
ENDBRANCH   1   5
BRANCH   2  20
HETATM   20  C   UNL     1      26.501  45.040  52.582  1.00  0.00     0.121 A 
HETATM   21  N   UNL     1      27.262  44.042  52.046  1.00  0.00    -0.272 N 
HETATM   22  H   UNL     1      27.076  43.523  51.192  1.00  0.00     0.189 HD
HETATM   23  N   UNL     1      28.349  43.733  52.766  1.00  0.00    -0.174 NA
HETATM   24  C   UNL     1      28.298  44.548  53.832  1.00  0.00     0.089 A 
HETATM   25  C   UNL     1      27.166  45.407  53.734  1.00  0.00     0.071 A 
BRANCH  24  26
HETATM   26  C   UNL     1      29.288  44.467  54.916  1.00  0.00    -0.006 A 
HETATM   27  C   UNL     1      29.347  45.443  55.925  1.00  0.00     0.014 A 
HETATM   28  C   UNL     1      30.268  45.334  56.972  1.00  0.00     0.001 A 
HETATM   29  C   UNL     1      31.141  44.249  57.026  1.00  0.00     0.000 A 
HETATM   30  C   UNL     1      31.100  43.277  56.030  1.00  0.00     0.001 A 
HETATM   31  C   UNL     1      30.181  43.387  54.983  1.00  0.00     0.014 A 
ENDBRANCH  24  26
ENDBRANCH   2  20
TORSDOF 6
ENDMDL
MODEL 5
REMARK VINA RESULT:      -8.8      2.605     10.968
REMARK  6 active torsions:
REMARK  status: ('A' for Active; 'I' for Inactive)
REMARK    1  A    between atoms: C_6  and  O_7 
REMARK    2  A    between atoms: O_7  and  C_8 
REMARK    3  A    between atoms: C_8  and  C_9 
REMARK       I    between atoms: C_9  and  N_10 
REMARK    4  A    between atoms: N_10  and  N_11 
REMARK       I    between atoms: N_11  and  C_12 
REMARK    5  A    between atoms: C_12  and  C_13 
REMARK    6  A    between atoms: C_17  and  C_18 
ROOT
HETATM    1  N   UNL     1      23.248  46.528  49.421  1.00  0.00    -0.262 N 
HETATM    2  C   UNL     1      24.438  47.049  49.894  1.00  0.00     0.288 C 
HETATM    3  O   UNL     1      24.624  48.256  50.032  1.00  0.00    -0.264 OA
HETATM    4  H   UNL     1      22.992  45.572  49.653  1.00  0.00     0.190 HD
ENDROOT
BRANCH   1   5
HETATM    5  N   UNL     1      22.180  47.407  49.203  1.00  0.00    -0.265 N 
HETATM    6  C   UNL     1      21.723  47.592  47.911  1.00  0.00     0.260 C 
HETATM    7  O   UNL     1      22.311  47.159  46.922  1.00  0.00    -0.269 OA
HETATM    8  H   UNL     1      21.549  47.574  49.985  1.00  0.00     0.190 HD
BRANCH   6   9
HETATM    9  C   UNL     1      20.400  48.347  47.833  1.00  0.00     0.280 C 
BRANCH   9  10
HETATM   10  O   UNL     1      20.670  49.703  47.461  1.00  0.00    -0.341 OA
BRANCH  10  11
HETATM   11  C   UNL     1      19.750  50.560  48.009  1.00  0.00     0.081 A 
HETATM   12  C   UNL     1      18.554  50.798  47.314  1.00  0.00    -0.028 A 
HETATM   13  C   UNL     1      17.594  51.642  47.889  1.00  0.00     0.016 A 
HETATM   14  C   UNL     1      18.295  50.184  45.967  1.00  0.00     0.051 C 
HETATM   15  C   UNL     1      17.802  52.214  49.149  1.00  0.00    -0.061 A 
HETATM   16  C   UNL     1      16.768  53.106  49.773  1.00  0.00     0.048 C 
HETATM   17  C   UNL     1      18.987  51.933  49.840  1.00  0.00     0.016 A 
HETATM   18  C   UNL     1      19.961  51.085  49.292  1.00  0.00    -0.028 A 
HETATM   19  C   UNL     1      21.206  50.797  50.083  1.00  0.00     0.051 C 
ENDBRANCH  10  11
ENDBRANCH   9  10
ENDBRANCH   6   9
ENDBRANCH   1   5
BRANCH   2  20
HETATM   20  C   UNL     1      25.446  46.070  50.196  1.00  0.00     0.121 A 
HETATM   21  N   UNL     1      25.934  45.213  49.252  1.00  0.00    -0.272 N 
HETATM   22  H   UNL     1      25.685  45.182  48.267  1.00  0.00     0.189 HD
HETATM   23  N   UNL     1      26.817  44.322  49.723  1.00  0.00    -0.174 NA
HETATM   24  C   UNL     1      26.907  44.588  51.037  1.00  0.00     0.089 A 
HETATM   25  C   UNL     1      26.082  45.703  51.364  1.00  0.00     0.071 A 
BRANCH  24  26
HETATM   26  C   UNL     1      27.730  43.769  51.938  1.00  0.00    -0.006 A 
HETATM   27  C   UNL     1      28.193  44.273  53.164  1.00  0.00     0.014 A 
HETATM   28  C   UNL     1      28.942  43.471  54.030  1.00  0.00     0.001 A 
HETATM   29  C   UNL     1      29.240  42.155  53.684  1.00  0.00     0.000 A 
HETATM   30  C   UNL     1      28.795  41.641  52.468  1.00  0.00     0.001 A 
HETATM   31  C   UNL     1      28.047  42.444  51.602  1.00  0.00     0.014 A 
ENDBRANCH  24  26
ENDBRANCH   2  20
TORSDOF 6
ENDMDL
MODEL 6
REMARK VINA RESULT:      -8.6      2.487     10.872
REMARK  6 active torsions:
REMARK  status: ('A' for Active; 'I' for Inactive)
REMARK    1  A    between atoms: C_6  and  O_7 
REMARK    2  A    between atoms: O_7  and  C_8 
REMARK    3  A    between atoms: C_8  and  C_9 
REMARK       I    between atoms: C_9  and  N_10 
REMARK    4  A    between atoms: N_10  and  N_11 
REMARK       I    between atoms: N_11  and  C_12 
REMARK    5  A    between atoms: C_12  and  C_13 
REMARK    6  A    between atoms: C_17  and  C_18 
ROOT
HETATM    1  N   UNL     1      23.678  46.119  49.979  1.00  0.00    -0.262 N 
HETATM    2  C   UNL     1      23.798  44.742  49.911  1.00  0.00     0.288 C 
HETATM    3  O   UNL     1      22.926  44.026  49.426  1.00  0.00    -0.264 OA
HETATM    4  H   UNL     1      24.515  46.692  50.039  1.00  0.00     0.190 HD
ENDROOT
BRANCH   1   5
HETATM    5  N   UNL     1      22.572  46.719  49.366  1.00  0.00    -0.265 N 
HETATM    6  C   UNL     1      22.762  47.886  48.648  1.00  0.00     0.260 C 
HETATM    7  O   UNL     1      23.814  48.520  48.660  1.00  0.00    -0.269 OA
HETATM    8  H   UNL     1      21.783  46.116  49.141  1.00  0.00     0.190 HD
BRANCH   6   9
HETATM    9  C   UNL     1      21.553  48.289  47.808  1.00  0.00     0.280 C 
BRANCH   9  10
HETATM   10  O   UNL     1      21.614  49.699  47.568  1.00  0.00    -0.341 OA
BRANCH  10  11
HETATM   11  C   UNL     1      20.531  50.341  48.112  1.00  0.00     0.081 A 
HETATM   12  C   UNL     1      20.688  51.004  49.340  1.00  0.00    -0.028 A 
HETATM   13  C   UNL     1      19.594  51.695  49.880  1.00  0.00     0.016 A 
HETATM   14  C   UNL     1      21.991  50.969  50.088  1.00  0.00     0.051 C 
HETATM   15  C   UNL     1      18.375  51.758  49.197  1.00  0.00    -0.061 A 
HETATM   16  C   UNL     1      17.208  52.511  49.766  1.00  0.00     0.048 C 
HETATM   17  C   UNL     1      18.252  51.120  47.956  1.00  0.00     0.016 A 
HETATM   18  C   UNL     1      19.332  50.428  47.388  1.00  0.00    -0.028 A 
HETATM   19  C   UNL     1      19.158  49.778  46.045  1.00  0.00     0.051 C 
ENDBRANCH  10  11
ENDBRANCH   9  10
ENDBRANCH   6   9
ENDBRANCH   1   5
BRANCH   2  20
HETATM   20  C   UNL     1      25.014  44.216  50.469  1.00  0.00     0.121 A 
HETATM   21  N   UNL     1      25.503  42.990  50.120  1.00  0.00    -0.272 N 
HETATM   22  H   UNL     1      25.111  42.346  49.439  1.00  0.00     0.189 HD
HETATM   23  N   UNL     1      26.608  42.631  50.788  1.00  0.00    -0.174 NA
HETATM   24  C   UNL     1      26.853  43.653  51.625  1.00  0.00     0.089 A 
HETATM   25  C   UNL     1      25.888  44.683  51.429  1.00  0.00     0.071 A 
BRANCH  24  26
HETATM   26  C   UNL     1      27.954  43.611  52.597  1.00  0.00    -0.006 A 
HETATM   27  C   UNL     1      27.899  44.342  53.794  1.00  0.00     0.014 A 
HETATM   28  C   UNL     1      28.937  44.263  54.729  1.00  0.00     0.001 A 
HETATM   29  C   UNL     1      30.042  43.453  54.481  1.00  0.00     0.000 A 
HETATM   30  C   UNL     1      30.116  42.727  53.294  1.00  0.00     0.001 A 
HETATM   31  C   UNL     1      29.080  42.806  52.360  1.00  0.00     0.014 A 
ENDBRANCH  24  26
ENDBRANCH   2  20
TORSDOF 6
ENDMDL
MODEL 7
REMARK VINA RESULT:      -8.5      2.133     10.660
REMARK  6 active torsions:
REMARK  status: ('A' for Active; 'I' for Inactive)
REMARK    1  A    between atoms: C_6  and  O_7 
REMARK    2  A    between atoms: O_7  and  C_8 
REMARK    3  A    between atoms: C_8  and  C_9 
REMARK       I    between atoms: C_9  and  N_10 
REMARK    4  A    between atoms: N_10  and  N_11 
REMARK       I    between atoms: N_11  and  C_12 
REMARK    5  A    between atoms: C_12  and  C_13 
REMARK    6  A    between atoms: C_17  and  C_18 
ROOT
HETATM    1  N   UNL     1      23.628  45.799  49.994  1.00  0.00    -0.262 N 
HETATM    2  C   UNL     1      24.809  46.416  50.367  1.00  0.00     0.288 C 
HETATM    3  O   UNL     1      25.193  47.469  49.864  1.00  0.00    -0.264 OA
HETATM    4  H   UNL     1      23.168  45.166  50.642  1.00  0.00     0.190 HD
ENDROOT
BRANCH   1   5
HETATM    5  N   UNL     1      22.788  46.465  49.093  1.00  0.00    -0.265 N 
HETATM    6  C   UNL     1      21.674  45.804  48.609  1.00  0.00     0.260 C 
HETATM    7  O   UNL     1      21.471  44.606  48.791  1.00  0.00    -0.269 OA
HETATM    8  H   UNL     1      22.793  47.483  49.121  1.00  0.00     0.190 HD
BRANCH   6   9
HETATM    9  C   UNL     1      20.701  46.713  47.863  1.00  0.00     0.280 C 
BRANCH   9  10
HETATM   10  O   UNL     1      21.423  47.848  47.373  1.00  0.00    -0.341 OA
BRANCH  10  11
HETATM   11  C   UNL     1      20.747  49.013  47.630  1.00  0.00     0.081 A 
HETATM   12  C   UNL     1      21.342  49.965  48.473  1.00  0.00    -0.028 A 
HETATM   13  C   UNL     1      20.674  51.175  48.708  1.00  0.00     0.016 A 
HETATM   14  C   UNL     1      22.664  49.703  49.139  1.00  0.00     0.051 C 
HETATM   15  C   UNL     1      19.450  51.451  48.088  1.00  0.00    -0.061 A 
HETATM   16  C   UNL     1      18.740  52.752  48.325  1.00  0.00     0.048 C 
HETATM   17  C   UNL     1      18.892  50.502  47.221  1.00  0.00     0.016 A 
HETATM   18  C   UNL     1      19.544  49.287  46.963  1.00  0.00    -0.028 A 
HETATM   19  C   UNL     1      18.916  48.311  46.009  1.00  0.00     0.051 C 
ENDBRANCH  10  11
ENDBRANCH   9  10
ENDBRANCH   6   9
ENDBRANCH   1   5
BRANCH   2  20
HETATM   20  C   UNL     1      25.559  45.719  51.375  1.00  0.00     0.121 A 
HETATM   21  N   UNL     1      25.051  45.468  52.617  1.00  0.00    -0.272 N 
HETATM   22  H   UNL     1      24.122  45.699  52.955  1.00  0.00     0.189 HD
HETATM   23  N   UNL     1      25.912  44.869  53.451  1.00  0.00    -0.174 NA
HETATM   24  C   UNL     1      27.043  44.732  52.740  1.00  0.00     0.089 A 
HETATM   25  C   UNL     1      26.848  45.227  51.418  1.00  0.00     0.071 A 
BRANCH  24  26
HETATM   26  C   UNL     1      28.269  44.179  53.332  1.00  0.00    -0.006 A 
HETATM   27  C   UNL     1      28.654  44.498  54.644  1.00  0.00     0.014 A 
HETATM   28  C   UNL     1      29.802  43.934  55.210  1.00  0.00     0.001 A 
HETATM   29  C   UNL     1      30.581  43.045  54.473  1.00  0.00     0.000 A 
HETATM   30  C   UNL     1      30.218  42.725  53.167  1.00  0.00     0.001 A 
HETATM   31  C   UNL     1      29.071  43.289  52.602  1.00  0.00     0.014 A 
ENDBRANCH  24  26
ENDBRANCH   2  20
TORSDOF 6
ENDMDL
MODEL 8
REMARK VINA RESULT:      -8.4      5.415      6.510
REMARK  6 active torsions:
REMARK  status: ('A' for Active; 'I' for Inactive)
REMARK    1  A    between atoms: C_6  and  O_7 
REMARK    2  A    between atoms: O_7  and  C_8 
REMARK    3  A    between atoms: C_8  and  C_9 
REMARK       I    between atoms: C_9  and  N_10 
REMARK    4  A    between atoms: N_10  and  N_11 
REMARK       I    between atoms: N_11  and  C_12 
REMARK    5  A    between atoms: C_12  and  C_13 
REMARK    6  A    between atoms: C_17  and  C_18 
ROOT
HETATM    1  N   UNL     1      25.307  42.259  51.073  1.00  0.00    -0.262 N 
HETATM    2  C   UNL     1      25.847  41.919  49.846  1.00  0.00     0.288 C 
HETATM    3  O   UNL     1      27.006  42.183  49.537  1.00  0.00    -0.264 OA
HETATM    4  H   UNL     1      24.513  41.737  51.434  1.00  0.00     0.190 HD
ENDROOT
BRANCH   1   5
HETATM    5  N   UNL     1      26.154  42.820  52.037  1.00  0.00    -0.265 N 
HETATM    6  C   UNL     1      25.695  43.888  52.785  1.00  0.00     0.260 C 
HETATM    7  O   UNL     1      24.650  44.484  52.537  1.00  0.00    -0.269 OA
HETATM    8  H   UNL     1      26.886  42.222  52.416  1.00  0.00     0.190 HD
BRANCH   6   9
HETATM    9  C   UNL     1      26.590  44.231  53.973  1.00  0.00     0.280 C 
BRANCH   9  10
HETATM   10  O   UNL     1      27.832  44.740  53.477  1.00  0.00    -0.341 OA
BRANCH  10  11
HETATM   11  C   UNL     1      28.856  44.490  54.354  1.00  0.00     0.081 A 
HETATM   12  C   UNL     1      29.075  45.393  55.407  1.00  0.00    -0.028 A 
HETATM   13  C   UNL     1      30.096  45.122  56.330  1.00  0.00     0.016 A 
HETATM   14  C   UNL     1      28.255  46.644  55.550  1.00  0.00     0.051 C 
HETATM   15  C   UNL     1      30.863  43.956  56.230  1.00  0.00    -0.061 A 
HETATM   16  C   UNL     1      31.946  43.656  57.225  1.00  0.00     0.048 C 
HETATM   17  C   UNL     1      30.603  43.052  55.192  1.00  0.00     0.016 A 
HETATM   18  C   UNL     1      29.583  43.294  54.261  1.00  0.00    -0.028 A 
HETATM   19  C   UNL     1      29.327  42.283  53.179  1.00  0.00     0.051 C 
ENDBRANCH  10  11
ENDBRANCH   9  10
ENDBRANCH   6   9
ENDBRANCH   1   5
BRANCH   2  20
HETATM   20  C   UNL     1      24.939  41.250  48.954  1.00  0.00     0.121 A 
HETATM   21  N   UNL     1      25.311  40.163  48.218  1.00  0.00    -0.272 N 
HETATM   22  H   UNL     1      26.213  39.696  48.230  1.00  0.00     0.189 HD
HETATM   23  N   UNL     1      24.359  39.708  47.391  1.00  0.00    -0.174 NA
HETATM   24  C   UNL     1      23.319  40.538  47.574  1.00  0.00     0.089 A 
HETATM   25  C   UNL     1      23.636  41.502  48.575  1.00  0.00     0.071 A 
BRANCH  24  26
HETATM   26  C   UNL     1      22.086  40.420  46.783  1.00  0.00    -0.006 A 
HETATM   27  C   UNL     1      21.782  41.337  45.764  1.00  0.00     0.014 A 
HETATM   28  C   UNL     1      20.625  41.191  44.992  1.00  0.00     0.001 A 
HETATM   29  C   UNL     1      19.756  40.128  45.228  1.00  0.00     0.000 A 
HETATM   30  C   UNL     1      20.038  39.214  46.240  1.00  0.00     0.001 A 
HETATM   31  C   UNL     1      21.194  39.360  47.012  1.00  0.00     0.014 A 
ENDBRANCH  24  26
ENDBRANCH   2  20
TORSDOF 6
ENDMDL
MODEL 9
REMARK VINA RESULT:      -8.3      2.219      3.079
REMARK  6 active torsions:
REMARK  status: ('A' for Active; 'I' for Inactive)
REMARK    1  A    between atoms: C_6  and  O_7 
REMARK    2  A    between atoms: O_7  and  C_8 
REMARK    3  A    between atoms: C_8  and  C_9 
REMARK       I    between atoms: C_9  and  N_10 
REMARK    4  A    between atoms: N_10  and  N_11 
REMARK       I    between atoms: N_11  and  C_12 
REMARK    5  A    between atoms: C_12  and  C_13 
REMARK    6  A    between atoms: C_17  and  C_18 
ROOT
HETATM    1  N   UNL     1      24.043  45.230  50.665  1.00  0.00    -0.262 N 
HETATM    2  C   UNL     1      23.672  45.169  49.334  1.00  0.00     0.288 C 
HETATM    3  O   UNL     1      24.365  44.626  48.478  1.00  0.00    -0.264 OA
HETATM    4  H   UNL     1      23.330  45.346  51.380  1.00  0.00     0.190 HD
ENDROOT
BRANCH   1   5
HETATM    5  N   UNL     1      25.197  44.543  51.063  1.00  0.00    -0.265 N 
HETATM    6  C   UNL     1      26.300  45.273  51.465  1.00  0.00     0.260 C 
HETATM    7  O   UNL     1      26.387  46.492  51.330  1.00  0.00    -0.269 OA
HETATM    8  H   UNL     1      25.075  43.592  51.405  1.00  0.00     0.190 HD
BRANCH   6   9
HETATM    9  C   UNL     1      27.384  44.427  52.128  1.00  0.00     0.280 C 
BRANCH   9  10
HETATM   10  O   UNL     1      27.095  44.330  53.526  1.00  0.00    -0.341 OA
BRANCH  10  11
HETATM   11  C   UNL     1      28.243  44.189  54.261  1.00  0.00     0.081 A 
HETATM   12  C   UNL     1      28.688  45.276  55.030  1.00  0.00    -0.028 A 
HETATM   13  C   UNL     1      29.840  45.124  55.815  1.00  0.00     0.016 A 
HETATM   14  C   UNL     1      27.968  46.595  55.013  1.00  0.00     0.051 C 
HETATM   15  C   UNL     1      30.520  43.902  55.863  1.00  0.00    -0.061 A 
HETATM   16  C   UNL     1      31.745  43.733  56.714  1.00  0.00     0.048 C 
HETATM   17  C   UNL     1      30.038  42.820  55.115  1.00  0.00     0.016 A 
HETATM   18  C   UNL     1      28.883  42.942  54.329  1.00  0.00    -0.028 A 
HETATM   19  C   UNL     1      28.392  41.747  53.562  1.00  0.00     0.051 C 
ENDBRANCH  10  11
ENDBRANCH   9  10
ENDBRANCH   6   9
ENDBRANCH   1   5
BRANCH   2  20
HETATM   20  C   UNL     1      22.420  45.808  49.029  1.00  0.00     0.121 A 
HETATM   21  N   UNL     1      21.235  45.132  49.050  1.00  0.00    -0.272 N 
HETATM   22  H   UNL     1      21.091  44.158  49.300  1.00  0.00     0.189 HD
HETATM   23  N   UNL     1      20.179  45.866  48.674  1.00  0.00    -0.174 NA
HETATM   24  C   UNL     1      20.686  47.073  48.376  1.00  0.00     0.089 A 
HETATM   25  C   UNL     1      22.090  47.083  48.618  1.00  0.00     0.071 A 
BRANCH  24  26
HETATM   26  C   UNL     1      19.848  48.156  47.843  1.00  0.00    -0.006 A 
HETATM   27  C   UNL     1      20.401  49.391  47.467  1.00  0.00     0.014 A 
HETATM   28  C   UNL     1      19.597  50.399  46.925  1.00  0.00     0.001 A 
HETATM   29  C   UNL     1      18.232  50.188  46.750  1.00  0.00     0.000 A 
HETATM   30  C   UNL     1      17.665  48.972  47.124  1.00  0.00     0.001 A 
HETATM   31  C   UNL     1      18.468  47.964  47.667  1.00  0.00     0.014 A 
ENDBRANCH  24  26
ENDBRANCH   2  20
TORSDOF 6
ENDMDL
MODEL 10
REMARK VINA RESULT:      -8.1     12.335     15.901
REMARK  6 active torsions:
REMARK  status: ('A' for Active; 'I' for Inactive)
REMARK    1  A    between atoms: C_6  and  O_7 
REMARK    2  A    between atoms: O_7  and  C_8 
REMARK    3  A    between atoms: C_8  and  C_9 
REMARK       I    between atoms: C_9  and  N_10 
REMARK    4  A    between atoms: N_10  and  N_11 
REMARK       I    between atoms: N_11  and  C_12 
REMARK    5  A    between atoms: C_12  and  C_13 
REMARK    6  A    between atoms: C_17  and  C_18 
ROOT
HETATM    1  N   UNL     1      34.614  51.882  43.804  1.00  0.00    -0.262 N 
HETATM    2  C   UNL     1      35.780  52.165  43.116  1.00  0.00     0.288 C 
HETATM    3  O   UNL     1      35.801  52.370  41.905  1.00  0.00    -0.264 OA
HETATM    4  H   UNL     1      34.562  52.073  44.801  1.00  0.00     0.190 HD
ENDROOT
BRANCH   1   5
HETATM    5  N   UNL     1      33.401  51.949  43.107  1.00  0.00    -0.265 N 
HETATM    6  C   UNL     1      32.220  51.907  43.824  1.00  0.00     0.260 C 
HETATM    7  O   UNL     1      32.169  51.643  45.023  1.00  0.00    -0.269 OA
HETATM    8  H   UNL     1      33.416  52.396  42.193  1.00  0.00     0.190 HD
BRANCH   6   9
HETATM    9  C   UNL     1      30.989  52.260  42.993  1.00  0.00     0.280 C 
BRANCH   9  10
HETATM   10  O   UNL     1      31.057  51.550  41.753  1.00  0.00    -0.341 OA
BRANCH  10  11
HETATM   11  C   UNL     1      29.954  50.755  41.575  1.00  0.00     0.081 A 
HETATM   12  C   UNL     1      28.839  51.290  40.911  1.00  0.00    -0.028 A 
HETATM   13  C   UNL     1      27.723  50.470  40.691  1.00  0.00     0.016 A 
HETATM   14  C   UNL     1      28.813  52.721  40.452  1.00  0.00     0.051 C 
HETATM   15  C   UNL     1      27.727  49.130  41.094  1.00  0.00    -0.061 A 
HETATM   16  C   UNL     1      26.540  48.246  40.846  1.00  0.00     0.048 C 
HETATM   17  C   UNL     1      28.864  48.607  41.722  1.00  0.00     0.016 A 
HETATM   18  C   UNL     1      29.997  49.403  41.946  1.00  0.00    -0.028 A 
HETATM   19  C   UNL     1      31.201  48.790  42.605  1.00  0.00     0.051 C 
ENDBRANCH  10  11
ENDBRANCH   9  10
ENDBRANCH   6   9
ENDBRANCH   1   5
BRANCH   2  20
HETATM   20  C   UNL     1      36.968  52.183  43.926  1.00  0.00     0.121 A 
HETATM   21  N   UNL     1      37.804  51.108  44.016  1.00  0.00    -0.272 N 
HETATM   22  H   UNL     1      37.716  50.222  43.525  1.00  0.00     0.189 HD
HETATM   23  N   UNL     1      38.824  51.276  44.868  1.00  0.00    -0.174 NA
HETATM   24  C   UNL     1      38.648  52.506  45.378  1.00  0.00     0.089 A 
HETATM   25  C   UNL     1      37.508  53.120  44.784  1.00  0.00     0.071 A 
BRANCH  24  26
HETATM   26  C   UNL     1      39.530  53.044  46.423  1.00  0.00    -0.006 A 
HETATM   27  C   UNL     1      40.891  53.286  46.177  1.00  0.00     0.014 A 
HETATM   28  C   UNL     1      41.710  53.835  47.169  1.00  0.00     0.001 A 
HETATM   29  C   UNL     1      41.182  54.150  48.419  1.00  0.00     0.000 A 
HETATM   30  C   UNL     1      39.835  53.909  48.682  1.00  0.00     0.001 A 
HETATM   31  C   UNL     1      39.017  53.360  47.691  1.00  0.00     0.014 A 
ENDBRANCH  24  26
ENDBRANCH   2  20
TORSDOF 6
ENDMDL
