MODEL 1
REMARK VINA RESULT:      -9.8      0.000      0.000
REMARK  6 active torsions:
REMARK  status: ('A' for Active; 'I' for Inactive)
REMARK    1  A    between atoms: C_8  and  C_9 
REMARK    2  A    between atoms: C_9  and  C_10 
REMARK       I    between atoms: C_10  and  N_11 
REMARK    3  A    between atoms: N_11  and  C_12 
REMARK    4  A    between atoms: C_12  and  C_13 
REMARK    5  A    between atoms: C_16  and  N_17 
REMARK       I    between atoms: N_17  and  C_18 
REMARK    6  A    between atoms: C_18  and  C_19 
ROOT
HETATM    1  C   UNL     1      27.001  43.145  50.587  1.00  0.00     0.161 C 
ENDROOT
BRANCH   1   2
HETATM    2  N   UNL     1      28.111  43.440  51.457  1.00  0.00    -0.357 N 
HETATM    3  C   UNL     1      28.373  42.645  52.552  1.00  0.00     0.222 C 
HETATM    4  O   UNL     1      27.659  41.696  52.869  1.00  0.00    -0.273 OA
HETATM    5  H   UNL     1      28.693  44.245  51.265  1.00  0.00     0.162 HD
BRANCH   3   6
HETATM    6  C   UNL     1      29.629  43.007  53.312  1.00  0.00     0.143 C 
BRANCH   6   7
HETATM    7  C   UNL     1      29.483  44.012  54.416  1.00  0.00    -0.022 A 
HETATM    8  C   UNL     1      30.179  44.149  55.669  1.00  0.00    -0.001 A 
HETATM    9  C   UNL     1      31.224  43.457  56.320  1.00  0.00     0.014 A 
HETATM   10  C   UNL     1      29.626  45.250  56.332  1.00  0.00     0.042 A 
HETATM   11  C   UNL     1      31.656  43.865  57.588  1.00  0.00     0.001 A 
HETATM   12  C   UNL     1      31.073  44.958  58.218  1.00  0.00     0.002 A 
HETATM   13  C   UNL     1      30.050  45.675  57.599  1.00  0.00     0.030 A 
HETATM   14  N   UNL     1      28.659  45.778  55.515  1.00  0.00    -0.365 N 
HETATM   15  H   UNL     1      28.106  46.594  55.736  1.00  0.00     0.165 HD
HETATM   16  C   UNL     1      28.560  45.044  54.368  1.00  0.00     0.097 A 
ENDBRANCH   6   7
ENDBRANCH   3   6
ENDBRANCH   1   2
BRANCH   1  17
HETATM   17  C   UNL     1      26.062  44.313  50.460  1.00  0.00    -0.040 A 
HETATM   18  C   UNL     1      26.050  45.331  51.421  1.00  0.00     0.011 A 
HETATM   19  C   UNL     1      25.206  46.440  51.279  1.00  0.00     0.030 A 
HETATM   20  C   UNL     1      24.359  46.548  50.176  1.00  0.00     0.035 A 
HETATM   21  C   UNL     1      24.343  45.511  49.234  1.00  0.00     0.030 A 
HETATM   22  C   UNL     1      25.181  44.402  49.377  1.00  0.00     0.011 A 
BRANCH  20  23
HETATM   23  N   UNL     1      23.530  47.655  49.922  1.00  0.00    -0.321 N 
HETATM   24  C   UNL     1      23.822  48.809  49.217  1.00  0.00     0.279 C 
HETATM   25  O   UNL     1      24.918  49.100  48.747  1.00  0.00    -0.265 OA
HETATM   26  H   UNL     1      22.573  47.600  50.256  1.00  0.00     0.169 HD
BRANCH  24  27
HETATM   27  C   UNL     1      22.666  49.676  49.066  1.00  0.00     0.142 A 
HETATM   28  O   UNL     1      21.430  49.227  49.462  1.00  0.00    -0.317 OA
HETATM   29  C   UNL     1      20.540  50.217  49.192  1.00  0.00     0.143 A 
HETATM   30  C   UNL     1      21.176  51.298  48.631  1.00  0.00     0.027 A 
HETATM   31  C   UNL     1      22.546  50.953  48.552  1.00  0.00     0.045 A 
ENDBRANCH  24  27
ENDBRANCH  20  23
ENDBRANCH   1  17
TORSDOF 6
ENDMDL
MODEL 2
REMARK VINA RESULT:      -9.6      1.660      2.798
REMARK  6 active torsions:
REMARK  status: ('A' for Active; 'I' for Inactive)
REMARK    1  A    between atoms: C_8  and  C_9 
REMARK    2  A    between atoms: C_9  and  C_10 
REMARK       I    between atoms: C_10  and  N_11 
REMARK    3  A    between atoms: N_11  and  C_12 
REMARK    4  A    between atoms: C_12  and  C_13 
REMARK    5  A    between atoms: C_16  and  N_17 
REMARK       I    between atoms: N_17  and  C_18 
REMARK    6  A    between atoms: C_18  and  C_19 
ROOT
HETATM    1  C   UNL     1      26.909  41.945  51.339  1.00  0.00     0.161 C 
ENDROOT
BRANCH   1   2
HETATM    2  N   UNL     1      27.410  42.132  52.677  1.00  0.00    -0.357 N 
HETATM    3  C   UNL     1      28.631  42.734  52.891  1.00  0.00     0.222 C 
HETATM    4  O   UNL     1      29.366  43.088  51.972  1.00  0.00    -0.273 OA
HETATM    5  H   UNL     1      26.861  41.805  53.463  1.00  0.00     0.162 HD
BRANCH   3   6
HETATM    6  C   UNL     1      28.980  42.962  54.345  1.00  0.00     0.143 C 
BRANCH   6   7
HETATM    7  C   UNL     1      28.831  44.362  54.862  1.00  0.00    -0.022 A 
HETATM    8  C   UNL     1      27.830  45.363  54.606  1.00  0.00    -0.001 A 
HETATM    9  C   UNL     1      26.648  45.431  53.834  1.00  0.00     0.014 A 
HETATM   10  C   UNL     1      28.189  46.505  55.331  1.00  0.00     0.042 A 
HETATM   11  C   UNL     1      25.898  46.613  53.796  1.00  0.00     0.001 A 
HETATM   12  C   UNL     1      26.295  47.728  54.522  1.00  0.00     0.002 A 
HETATM   13  C   UNL     1      27.447  47.694  55.309  1.00  0.00     0.030 A 
HETATM   14  N   UNL     1      29.338  46.208  56.019  1.00  0.00    -0.365 N 
HETATM   15  H   UNL     1      29.814  46.848  56.640  1.00  0.00     0.165 HD
HETATM   16  C   UNL     1      29.735  44.932  55.744  1.00  0.00     0.097 A 
ENDBRANCH   6   7
ENDBRANCH   3   6
ENDBRANCH   1   2
BRANCH   1  17
HETATM   17  C   UNL     1      26.069  43.107  50.887  1.00  0.00    -0.040 A 
HETATM   18  C   UNL     1      24.777  43.297  51.391  1.00  0.00     0.011 A 
HETATM   19  C   UNL     1      24.012  44.404  51.003  1.00  0.00     0.030 A 
HETATM   20  C   UNL     1      24.525  45.338  50.101  1.00  0.00     0.035 A 
HETATM   21  C   UNL     1      25.802  45.127  49.567  1.00  0.00     0.030 A 
HETATM   22  C   UNL     1      26.565  44.020  49.950  1.00  0.00     0.011 A 
BRANCH  20  23
HETATM   23  N   UNL     1      23.853  46.508  49.709  1.00  0.00    -0.321 N 
HETATM   24  C   UNL     1      24.254  47.824  49.856  1.00  0.00     0.279 C 
HETATM   25  O   UNL     1      25.262  48.202  50.444  1.00  0.00    -0.265 OA
HETATM   26  H   UNL     1      22.975  46.391  49.211  1.00  0.00     0.169 HD
BRANCH  24  27
HETATM   27  C   UNL     1      23.343  48.757  49.214  1.00  0.00     0.142 A 
HETATM   28  O   UNL     1      23.051  49.948  49.833  1.00  0.00    -0.317 OA
HETATM   29  C   UNL     1      22.171  50.607  49.035  1.00  0.00     0.143 A 
HETATM   30  C   UNL     1      21.890  49.868  47.911  1.00  0.00     0.027 A 
HETATM   31  C   UNL     1      22.647  48.677  48.023  1.00  0.00     0.045 A 
ENDBRANCH  24  27
ENDBRANCH  20  23
ENDBRANCH   1  17
TORSDOF 6
ENDMDL
MODEL 3
REMARK VINA RESULT:      -9.4      1.778      2.738
REMARK  6 active torsions:
REMARK  status: ('A' for Active; 'I' for Inactive)
REMARK    1  A    between atoms: C_8  and  C_9 
REMARK    2  A    between atoms: C_9  and  C_10 
REMARK       I    between atoms: C_10  and  N_11 
REMARK    3  A    between atoms: N_11  and  C_12 
REMARK    4  A    between atoms: C_12  and  C_13 
REMARK    5  A    between atoms: C_16  and  N_17 
REMARK       I    between atoms: N_17  and  C_18 
REMARK    6  A    between atoms: C_18  and  C_19 
ROOT
HETATM    1  C   UNL     1      27.088  44.346  49.704  1.00  0.00     0.161 C 
ENDROOT
BRANCH   1   2
HETATM    2  N   UNL     1      27.654  44.073  51.001  1.00  0.00    -0.357 N 
HETATM    3  C   UNL     1      27.142  43.067  51.792  1.00  0.00     0.222 C 
HETATM    4  O   UNL     1      26.164  42.399  51.464  1.00  0.00    -0.273 OA
HETATM    5  H   UNL     1      28.426  44.637  51.334  1.00  0.00     0.162 HD
BRANCH   3   6
HETATM    6  C   UNL     1      27.901  42.823  53.076  1.00  0.00     0.143 C 
BRANCH   6   7
HETATM    7  C   UNL     1      28.185  44.023  53.931  1.00  0.00    -0.022 A 
HETATM    8  C   UNL     1      27.465  45.258  54.095  1.00  0.00    -0.001 A 
HETATM    9  C   UNL     1      26.270  45.803  53.574  1.00  0.00     0.014 A 
HETATM   10  C   UNL     1      28.188  46.043  55.000  1.00  0.00     0.042 A 
HETATM   11  C   UNL     1      25.861  47.090  53.948  1.00  0.00     0.001 A 
HETATM   12  C   UNL     1      26.614  47.841  54.841  1.00  0.00     0.002 A 
HETATM   13  C   UNL     1      27.790  47.330  55.389  1.00  0.00     0.030 A 
HETATM   14  N   UNL     1      29.282  45.314  55.392  1.00  0.00    -0.365 N 
HETATM   15  H   UNL     1      29.973  45.632  56.057  1.00  0.00     0.165 HD
HETATM   16  C   UNL     1      29.294  44.106  54.756  1.00  0.00     0.097 A 
ENDBRANCH   6   7
ENDBRANCH   3   6
ENDBRANCH   1   2
BRANCH   1  17
HETATM   17  C   UNL     1      26.058  45.441  49.759  1.00  0.00    -0.040 A 
HETATM   18  C   UNL     1      26.439  46.772  49.966  1.00  0.00     0.011 A 
HETATM   19  C   UNL     1      25.483  47.796  49.973  1.00  0.00     0.030 A 
HETATM   20  C   UNL     1      24.133  47.506  49.776  1.00  0.00     0.035 A 
HETATM   21  C   UNL     1      23.748  46.170  49.609  1.00  0.00     0.030 A 
HETATM   22  C   UNL     1      24.700  45.147  49.606  1.00  0.00     0.011 A 
BRANCH  20  23
HETATM   23  N   UNL     1      23.119  48.478  49.704  1.00  0.00    -0.321 N 
HETATM   24  C   UNL     1      22.519  49.016  48.580  1.00  0.00     0.279 C 
HETATM   25  O   UNL     1      22.840  48.783  47.419  1.00  0.00    -0.265 OA
HETATM   26  H   UNL     1      22.733  48.808  50.583  1.00  0.00     0.169 HD
BRANCH  24  27
HETATM   27  C   UNL     1      21.422  49.910  48.910  1.00  0.00     0.142 A 
HETATM   28  O   UNL     1      20.414  49.467  49.731  1.00  0.00    -0.317 OA
HETATM   29  C   UNL     1      19.523  50.485  49.853  1.00  0.00     0.143 A 
HETATM   30  C   UNL     1      19.935  51.579  49.131  1.00  0.00     0.027 A 
HETATM   31  C   UNL     1      21.160  51.211  48.525  1.00  0.00     0.045 A 
ENDBRANCH  24  27
ENDBRANCH  20  23
ENDBRANCH   1  17
TORSDOF 6
ENDMDL
MODEL 4
REMARK VINA RESULT:      -9.3      1.978      2.974
REMARK  6 active torsions:
REMARK  status: ('A' for Active; 'I' for Inactive)
REMARK    1  A    between atoms: C_8  and  C_9 
REMARK    2  A    between atoms: C_9  and  C_10 
REMARK       I    between atoms: C_10  and  N_11 
REMARK    3  A    between atoms: N_11  and  C_12 
REMARK    4  A    between atoms: C_12  and  C_13 
REMARK    5  A    between atoms: C_16  and  N_17 
REMARK       I    between atoms: N_17  and  C_18 
REMARK    6  A    between atoms: C_18  and  C_19 
ROOT
HETATM    1  C   UNL     1      25.228  44.932  49.653  1.00  0.00     0.161 C 
ENDROOT
BRANCH   1   2
HETATM    2  N   UNL     1      25.273  44.563  51.045  1.00  0.00    -0.357 N 
HETATM    3  C   UNL     1      26.480  44.372  51.681  1.00  0.00     0.222 C 
HETATM    4  O   UNL     1      27.558  44.451  51.095  1.00  0.00    -0.273 OA
HETATM    5  H   UNL     1      24.406  44.433  51.552  1.00  0.00     0.162 HD
BRANCH   3   6
HETATM    6  C   UNL     1      26.379  44.095  53.164  1.00  0.00     0.143 C 
BRANCH   6   7
HETATM    7  C   UNL     1      27.331  44.837  54.055  1.00  0.00    -0.022 A 
HETATM    8  C   UNL     1      28.591  44.443  54.628  1.00  0.00    -0.001 A 
HETATM    9  C   UNL     1      29.403  43.288  54.577  1.00  0.00     0.014 A 
HETATM   10  C   UNL     1      29.049  45.516  55.402  1.00  0.00     0.042 A 
HETATM   11  C   UNL     1      30.602  43.237  55.299  1.00  0.00     0.001 A 
HETATM   12  C   UNL     1      31.015  44.320  56.065  1.00  0.00     0.002 A 
HETATM   13  C   UNL     1      30.248  45.484  56.127  1.00  0.00     0.030 A 
HETATM   14  N   UNL     1      28.128  46.527  55.286  1.00  0.00    -0.365 N 
HETATM   15  H   UNL     1      28.212  47.431  55.729  1.00  0.00     0.165 HD
HETATM   16  C   UNL     1      27.094  46.132  54.487  1.00  0.00     0.097 A 
ENDBRANCH   6   7
ENDBRANCH   3   6
ENDBRANCH   1   2
BRANCH   1  17
HETATM   17  C   UNL     1      24.242  46.039  49.397  1.00  0.00    -0.040 A 
HETATM   18  C   UNL     1      23.060  45.795  48.689  1.00  0.00     0.011 A 
HETATM   19  C   UNL     1      22.122  46.816  48.489  1.00  0.00     0.030 A 
HETATM   20  C   UNL     1      22.353  48.097  48.991  1.00  0.00     0.035 A 
HETATM   21  C   UNL     1      23.553  48.351  49.666  1.00  0.00     0.030 A 
HETATM   22  C   UNL     1      24.492  47.334  49.862  1.00  0.00     0.011 A 
BRANCH  20  23
HETATM   23  N   UNL     1      21.437  49.161  48.893  1.00  0.00    -0.321 N 
HETATM   24  C   UNL     1      20.166  49.257  49.429  1.00  0.00     0.279 C 
HETATM   25  O   UNL     1      19.577  48.366  50.034  1.00  0.00    -0.265 OA
HETATM   26  H   UNL     1      21.750  49.994  48.404  1.00  0.00     0.169 HD
BRANCH  24  27
HETATM   27  C   UNL     1      19.569  50.564  49.213  1.00  0.00     0.142 A 
HETATM   28  O   UNL     1      18.590  51.009  50.067  1.00  0.00    -0.317 OA
HETATM   29  C   UNL     1      18.201  52.233  49.625  1.00  0.00     0.143 A 
HETATM   30  C   UNL     1      18.911  52.591  48.505  1.00  0.00     0.027 A 
HETATM   31  C   UNL     1      19.796  51.518  48.239  1.00  0.00     0.045 A 
ENDBRANCH  24  27
ENDBRANCH  20  23
ENDBRANCH   1  17
TORSDOF 6
ENDMDL
MODEL 5
REMARK VINA RESULT:      -9.0      1.565      2.021
REMARK  6 active torsions:
REMARK  status: ('A' for Active; 'I' for Inactive)
REMARK    1  A    between atoms: C_8  and  C_9 
REMARK    2  A    between atoms: C_9  and  C_10 
REMARK       I    between atoms: C_10  and  N_11 
REMARK    3  A    between atoms: N_11  and  C_12 
REMARK    4  A    between atoms: C_12  and  C_13 
REMARK    5  A    between atoms: C_16  and  N_17 
REMARK       I    between atoms: N_17  and  C_18 
REMARK    6  A    between atoms: C_18  and  C_19 
ROOT
HETATM    1  C   UNL     1      25.486  41.658  50.167  1.00  0.00     0.161 C 
ENDROOT
BRANCH   1   2
HETATM    2  N   UNL     1      26.115  41.595  51.462  1.00  0.00    -0.357 N 
HETATM    3  C   UNL     1      27.486  41.525  51.573  1.00  0.00     0.222 C 
HETATM    4  O   UNL     1      28.228  41.460  50.595  1.00  0.00    -0.273 OA
HETATM    5  H   UNL     1      25.538  41.591  52.294  1.00  0.00     0.162 HD
BRANCH   3   6
HETATM    6  C   UNL     1      28.011  41.574  52.990  1.00  0.00     0.143 C 
BRANCH   6   7
HETATM    7  C   UNL     1      28.047  42.922  53.649  1.00  0.00    -0.022 A 
HETATM    8  C   UNL     1      29.033  43.532  54.502  1.00  0.00    -0.001 A 
HETATM    9  C   UNL     1      30.293  43.151  55.016  1.00  0.00     0.014 A 
HETATM   10  C   UNL     1      28.550  44.796  54.857  1.00  0.00     0.042 A 
HETATM   11  C   UNL     1      30.998  44.015  55.863  1.00  0.00     0.001 A 
HETATM   12  C   UNL     1      30.478  45.258  56.201  1.00  0.00     0.002 A 
HETATM   13  C   UNL     1      29.245  45.675  55.699  1.00  0.00     0.030 A 
HETATM   14  N   UNL     1      27.341  44.964  54.230  1.00  0.00    -0.365 N 
HETATM   15  H   UNL     1      26.772  45.796  54.297  1.00  0.00     0.165 HD
HETATM   16  C   UNL     1      27.026  43.848  53.509  1.00  0.00     0.097 A 
ENDBRANCH   6   7
ENDBRANCH   3   6
ENDBRANCH   1   2
BRANCH   1  17
HETATM   17  C   UNL     1      24.890  43.012  49.897  1.00  0.00    -0.040 A 
HETATM   18  C   UNL     1      23.508  43.167  49.737  1.00  0.00     0.011 A 
HETATM   19  C   UNL     1      22.949  44.435  49.530  1.00  0.00     0.030 A 
HETATM   20  C   UNL     1      23.763  45.567  49.477  1.00  0.00     0.035 A 
HETATM   21  C   UNL     1      25.149  45.407  49.599  1.00  0.00     0.030 A 
HETATM   22  C   UNL     1      25.708  44.143  49.801  1.00  0.00     0.011 A 
BRANCH  20  23
HETATM   23  N   UNL     1      23.280  46.881  49.338  1.00  0.00    -0.321 N 
HETATM   24  C   UNL     1      22.588  47.438  48.278  1.00  0.00     0.279 C 
HETATM   25  O   UNL     1      22.341  46.878  47.214  1.00  0.00    -0.265 OA
HETATM   26  H   UNL     1      23.410  47.505  50.128  1.00  0.00     0.169 HD
BRANCH  24  27
HETATM   27  C   UNL     1      22.150  48.796  48.553  1.00  0.00     0.142 A 
HETATM   28  O   UNL     1      21.008  49.002  49.288  1.00  0.00    -0.317 OA
HETATM   29  C   UNL     1      20.825  50.345  49.373  1.00  0.00     0.143 A 
HETATM   30  C   UNL     1      21.827  51.013  48.711  1.00  0.00     0.027 A 
HETATM   31  C   UNL     1      22.684  50.016  48.184  1.00  0.00     0.045 A 
ENDBRANCH  24  27
ENDBRANCH  20  23
ENDBRANCH   1  17
TORSDOF 6
ENDMDL
MODEL 6
REMARK VINA RESULT:      -9.0      3.536      6.926
REMARK  6 active torsions:
REMARK  status: ('A' for Active; 'I' for Inactive)
REMARK    1  A    between atoms: C_8  and  C_9 
REMARK    2  A    between atoms: C_9  and  C_10 
REMARK       I    between atoms: C_10  and  N_11 
REMARK    3  A    between atoms: N_11  and  C_12 
REMARK    4  A    between atoms: C_12  and  C_13 
REMARK    5  A    between atoms: C_16  and  N_17 
REMARK       I    between atoms: N_17  and  C_18 
REMARK    6  A    between atoms: C_18  and  C_19 
ROOT
HETATM    1  C   UNL     1      25.373  46.665  52.040  1.00  0.00     0.161 C 
ENDROOT
BRANCH   1   2
HETATM    2  N   UNL     1      26.318  47.145  53.016  1.00  0.00    -0.357 N 
HETATM    3  C   UNL     1      26.263  46.705  54.321  1.00  0.00     0.222 C 
HETATM    4  O   UNL     1      25.392  45.937  54.726  1.00  0.00    -0.273 OA
HETATM    5  H   UNL     1      27.019  47.821  52.738  1.00  0.00     0.162 HD
BRANCH   3   6
HETATM    6  C   UNL     1      27.380  47.208  55.207  1.00  0.00     0.143 C 
BRANCH   6   7
HETATM    7  C   UNL     1      28.475  46.233  55.530  1.00  0.00    -0.022 A 
HETATM    8  C   UNL     1      28.928  45.057  54.836  1.00  0.00    -0.001 A 
HETATM    9  C   UNL     1      28.571  44.393  53.642  1.00  0.00     0.014 A 
HETATM   10  C   UNL     1      29.969  44.504  55.592  1.00  0.00     0.042 A 
HETATM   11  C   UNL     1      29.233  43.218  53.264  1.00  0.00     0.001 A 
HETATM   12  C   UNL     1      30.254  42.695  54.049  1.00  0.00     0.002 A 
HETATM   13  C   UNL     1      30.645  43.333  55.226  1.00  0.00     0.030 A 
HETATM   14  N   UNL     1      30.162  45.318  56.680  1.00  0.00    -0.365 N 
HETATM   15  H   UNL     1      30.864  45.167  57.390  1.00  0.00     0.165 HD
HETATM   16  C   UNL     1      29.271  46.352  56.658  1.00  0.00     0.097 A 
ENDBRANCH   6   7
ENDBRANCH   3   6
ENDBRANCH   1   2
BRANCH   1  17
HETATM   17  C   UNL     1      25.808  45.360  51.431  1.00  0.00    -0.040 A 
HETATM   18  C   UNL     1      25.137  44.169  51.733  1.00  0.00     0.011 A 
HETATM   19  C   UNL     1      25.516  42.963  51.130  1.00  0.00     0.030 A 
HETATM   20  C   UNL     1      26.572  42.927  50.219  1.00  0.00     0.035 A 
HETATM   21  C   UNL     1      27.268  44.111  49.947  1.00  0.00     0.030 A 
HETATM   22  C   UNL     1      26.894  45.315  50.551  1.00  0.00     0.011 A 
BRANCH  20  23
HETATM   23  N   UNL     1      26.974  41.774  49.522  1.00  0.00    -0.321 N 
HETATM   24  C   UNL     1      27.794  40.746  49.954  1.00  0.00     0.279 C 
HETATM   25  O   UNL     1      28.388  40.711  51.027  1.00  0.00    -0.265 OA
HETATM   26  H   UNL     1      26.588  41.639  48.593  1.00  0.00     0.169 HD
BRANCH  24  27
HETATM   27  C   UNL     1      27.882  39.664  48.989  1.00  0.00     0.142 A 
HETATM   28  O   UNL     1      27.248  39.786  47.777  1.00  0.00    -0.317 OA
HETATM   29  C   UNL     1      27.474  38.637  47.090  1.00  0.00     0.143 A 
HETATM   30  C   UNL     1      28.246  37.774  47.831  1.00  0.00     0.027 A 
HETATM   31  C   UNL     1      28.512  38.435  49.054  1.00  0.00     0.045 A 
ENDBRANCH  24  27
ENDBRANCH  20  23
ENDBRANCH   1  17
TORSDOF 6
ENDMDL
MODEL 7
REMARK VINA RESULT:      -9.0      2.133     10.783
REMARK  6 active torsions:
REMARK  status: ('A' for Active; 'I' for Inactive)
REMARK    1  A    between atoms: C_8  and  C_9 
REMARK    2  A    between atoms: C_9  and  C_10 
REMARK       I    between atoms: C_10  and  N_11 
REMARK    3  A    between atoms: N_11  and  C_12 
REMARK    4  A    between atoms: C_12  and  C_13 
REMARK    5  A    between atoms: C_16  and  N_17 
REMARK       I    between atoms: N_17  and  C_18 
REMARK    6  A    between atoms: C_18  and  C_19 
ROOT
HETATM    1  C   UNL     1      23.690  45.762  49.556  1.00  0.00     0.161 C 
ENDROOT
BRANCH   1   2
HETATM    2  N   UNL     1      23.279  47.143  49.564  1.00  0.00    -0.357 N 
HETATM    3  C   UNL     1      22.610  47.681  48.486  1.00  0.00     0.222 C 
HETATM    4  O   UNL     1      22.379  47.042  47.462  1.00  0.00    -0.273 OA
HETATM    5  H   UNL     1      23.498  47.722  50.365  1.00  0.00     0.162 HD
BRANCH   3   6
HETATM    6  C   UNL     1      22.146  49.108  48.676  1.00  0.00     0.143 C 
BRANCH   6   7
HETATM    7  C   UNL     1      20.701  49.306  49.029  1.00  0.00    -0.022 A 
HETATM    8  C   UNL     1      19.847  50.458  48.909  1.00  0.00    -0.001 A 
HETATM    9  C   UNL     1      19.999  51.777  48.426  1.00  0.00     0.014 A 
HETATM   10  C   UNL     1      18.592  50.099  49.412  1.00  0.00     0.042 A 
HETATM   11  C   UNL     1      18.926  52.675  48.480  1.00  0.00     0.001 A 
HETATM   12  C   UNL     1      17.698  52.281  48.998  1.00  0.00     0.002 A 
HETATM   13  C   UNL     1      17.505  50.983  49.469  1.00  0.00     0.030 A 
HETATM   14  N   UNL     1      18.665  48.783  49.795  1.00  0.00    -0.365 N 
HETATM   15  H   UNL     1      17.894  48.256  50.181  1.00  0.00     0.165 HD
HETATM   16  C   UNL     1      19.922  48.299  49.576  1.00  0.00     0.097 A 
ENDBRANCH   6   7
ENDBRANCH   3   6
ENDBRANCH   1   2
BRANCH   1  17
HETATM   17  C   UNL     1      24.658  45.458  50.666  1.00  0.00    -0.040 A 
HETATM   18  C   UNL     1      24.895  44.138  51.068  1.00  0.00     0.011 A 
HETATM   19  C   UNL     1      25.830  43.853  52.072  1.00  0.00     0.030 A 
HETATM   20  C   UNL     1      26.541  44.882  52.690  1.00  0.00     0.035 A 
HETATM   21  C   UNL     1      26.275  46.205  52.315  1.00  0.00     0.030 A 
HETATM   22  C   UNL     1      25.340  46.491  51.317  1.00  0.00     0.011 A 
BRANCH  20  23
HETATM   23  N   UNL     1      27.541  44.680  53.658  1.00  0.00    -0.321 N 
HETATM   24  C   UNL     1      28.759  44.039  53.518  1.00  0.00     0.279 C 
HETATM   25  O   UNL     1      29.146  43.452  52.512  1.00  0.00    -0.265 OA
HETATM   26  H   UNL     1      27.386  45.089  54.574  1.00  0.00     0.169 HD
BRANCH  24  27
HETATM   27  C   UNL     1      29.578  44.136  54.714  1.00  0.00     0.142 A 
HETATM   28  O   UNL     1      29.478  45.250  55.512  1.00  0.00    -0.317 OA
HETATM   29  C   UNL     1      30.358  45.089  56.534  1.00  0.00     0.143 A 
HETATM   30  C   UNL     1      31.024  43.893  56.416  1.00  0.00     0.027 A 
HETATM   31  C   UNL     1      30.521  43.277  55.245  1.00  0.00     0.045 A 
ENDBRANCH  24  27
ENDBRANCH  20  23
ENDBRANCH   1  17
TORSDOF 6
ENDMDL
MODEL 8
REMARK VINA RESULT:      -8.9      1.612      2.350
REMARK  6 active torsions:
REMARK  status: ('A' for Active; 'I' for Inactive)
REMARK    1  A    between atoms: C_8  and  C_9 
REMARK    2  A    between atoms: C_9  and  C_10 
REMARK       I    between atoms: C_10  and  N_11 
REMARK    3  A    between atoms: N_11  and  C_12 
REMARK    4  A    between atoms: C_12  and  C_13 
REMARK    5  A    between atoms: C_16  and  N_17 
REMARK       I    between atoms: N_17  and  C_18 
REMARK    6  A    between atoms: C_18  and  C_19 
ROOT
HETATM    1  C   UNL     1      26.308  44.791  50.596  1.00  0.00     0.161 C 
ENDROOT
BRANCH   1   2
HETATM    2  N   UNL     1      27.028  45.334  51.720  1.00  0.00    -0.357 N 
HETATM    3  C   UNL     1      26.736  44.926  53.003  1.00  0.00     0.222 C 
HETATM    4  O   UNL     1      25.830  44.135  53.258  1.00  0.00    -0.273 OA
HETATM    5  H   UNL     1      27.746  46.030  51.560  1.00  0.00     0.162 HD
BRANCH   3   6
HETATM    6  C   UNL     1      27.642  45.495  54.071  1.00  0.00     0.143 C 
BRANCH   6   7
HETATM    7  C   UNL     1      28.774  44.624  54.530  1.00  0.00    -0.022 A 
HETATM    8  C   UNL     1      29.588  44.677  55.716  1.00  0.00    -0.001 A 
HETATM    9  C   UNL     1      29.640  45.498  56.864  1.00  0.00     0.014 A 
HETATM   10  C   UNL     1      30.517  43.634  55.628  1.00  0.00     0.042 A 
HETATM   11  C   UNL     1      30.609  45.269  57.850  1.00  0.00     0.001 A 
HETATM   12  C   UNL     1      31.522  44.230  57.719  1.00  0.00     0.002 A 
HETATM   13  C   UNL     1      31.490  43.388  56.608  1.00  0.00     0.030 A 
HETATM   14  N   UNL     1      30.268  42.959  54.460  1.00  0.00    -0.365 N 
HETATM   15  H   UNL     1      30.781  42.147  54.148  1.00  0.00     0.165 HD
HETATM   16  C   UNL     1      29.231  43.544  53.792  1.00  0.00     0.097 A 
ENDBRANCH   6   7
ENDBRANCH   3   6
ENDBRANCH   1   2
BRANCH   1  17
HETATM   17  C   UNL     1      25.252  45.738  50.096  1.00  0.00    -0.040 A 
HETATM   18  C   UNL     1      24.185  45.276  49.316  1.00  0.00     0.011 A 
HETATM   19  C   UNL     1      23.179  46.151  48.888  1.00  0.00     0.030 A 
HETATM   20  C   UNL     1      23.224  47.503  49.230  1.00  0.00     0.035 A 
HETATM   21  C   UNL     1      24.311  47.973  49.977  1.00  0.00     0.030 A 
HETATM   22  C   UNL     1      25.318  47.102  50.401  1.00  0.00     0.011 A 
BRANCH  20  23
HETATM   23  N   UNL     1      22.225  48.435  48.898  1.00  0.00    -0.321 N 
HETATM   24  C   UNL     1      22.292  49.491  48.006  1.00  0.00     0.279 C 
HETATM   25  O   UNL     1      23.295  49.846  47.395  1.00  0.00    -0.265 OA
HETATM   26  H   UNL     1      21.314  48.307  49.327  1.00  0.00     0.169 HD
BRANCH  24  27
HETATM   27  C   UNL     1      21.013  50.161  47.841  1.00  0.00     0.142 A 
HETATM   28  O   UNL     1      20.012  49.540  47.135  1.00  0.00    -0.317 OA
HETATM   29  C   UNL     1      18.951  50.387  47.119  1.00  0.00     0.143 A 
HETATM   30  C   UNL     1      19.243  51.542  47.804  1.00  0.00     0.027 A 
HETATM   31  C   UNL     1      20.571  51.397  48.273  1.00  0.00     0.045 A 
ENDBRANCH  24  27
ENDBRANCH  20  23
ENDBRANCH   1  17
TORSDOF 6
ENDMDL
MODEL 9
REMARK VINA RESULT:      -8.8      2.277      3.842
REMARK  6 active torsions:
REMARK  status: ('A' for Active; 'I' for Inactive)
REMARK    1  A    between atoms: C_8  and  C_9 
REMARK    2  A    between atoms: C_9  and  C_10 
REMARK       I    between atoms: C_10  and  N_11 
REMARK    3  A    between atoms: N_11  and  C_12 
REMARK    4  A    between atoms: C_12  and  C_13 
REMARK    5  A    between atoms: C_16  and  N_17 
REMARK       I    between atoms: N_17  and  C_18 
REMARK    6  A    between atoms: C_18  and  C_19 
ROOT
HETATM    1  C   UNL     1      26.522  47.609  49.938  1.00  0.00     0.161 C 
ENDROOT
BRANCH   1   2
HETATM    2  N   UNL     1      26.348  46.403  50.708  1.00  0.00    -0.357 N 
HETATM    3  C   UNL     1      26.146  46.464  52.069  1.00  0.00     0.222 C 
HETATM    4  O   UNL     1      26.157  47.522  52.695  1.00  0.00    -0.273 OA
HETATM    5  H   UNL     1      26.387  45.506  50.240  1.00  0.00     0.162 HD
BRANCH   3   6
HETATM    6  C   UNL     1      25.871  45.131  52.729  1.00  0.00     0.143 C 
BRANCH   6   7
HETATM    7  C   UNL     1      27.066  44.314  53.121  1.00  0.00    -0.022 A 
HETATM    8  C   UNL     1      28.094  44.551  54.100  1.00  0.00    -0.001 A 
HETATM    9  C   UNL     1      28.372  45.566  55.042  1.00  0.00     0.014 A 
HETATM   10  C   UNL     1      28.985  43.473  54.036  1.00  0.00     0.042 A 
HETATM   11  C   UNL     1      29.512  45.484  55.851  1.00  0.00     0.001 A 
HETATM   12  C   UNL     1      30.378  44.402  55.748  1.00  0.00     0.002 A 
HETATM   13  C   UNL     1      30.127  43.372  54.842  1.00  0.00     0.030 A 
HETATM   14  N   UNL     1      28.510  42.605  53.085  1.00  0.00    -0.365 N 
HETATM   15  H   UNL     1      28.949  41.729  52.839  1.00  0.00     0.165 HD
HETATM   16  C   UNL     1      27.366  43.099  52.526  1.00  0.00     0.097 A 
ENDBRANCH   6   7
ENDBRANCH   3   6
ENDBRANCH   1   2
BRANCH   1  17
HETATM   17  C   UNL     1      25.211  48.155  49.444  1.00  0.00    -0.040 A 
HETATM   18  C   UNL     1      24.026  47.428  49.605  1.00  0.00     0.011 A 
HETATM   19  C   UNL     1      22.799  47.956  49.184  1.00  0.00     0.030 A 
HETATM   20  C   UNL     1      22.737  49.219  48.594  1.00  0.00     0.035 A 
HETATM   21  C   UNL     1      23.928  49.930  48.397  1.00  0.00     0.030 A 
HETATM   22  C   UNL     1      25.153  49.402  48.813  1.00  0.00     0.011 A 
BRANCH  20  23
HETATM   23  N   UNL     1      21.543  49.851  48.202  1.00  0.00    -0.321 N 
HETATM   24  C   UNL     1      20.670  50.597  48.973  1.00  0.00     0.279 C 
HETATM   25  O   UNL     1      20.757  50.771  50.185  1.00  0.00    -0.265 OA
HETATM   26  H   UNL     1      21.295  49.799  47.220  1.00  0.00     0.169 HD
BRANCH  24  27
HETATM   27  C   UNL     1      19.603  51.191  48.185  1.00  0.00     0.142 A 
HETATM   28  O   UNL     1      19.081  50.495  47.123  1.00  0.00    -0.317 OA
HETATM   29  C   UNL     1      18.128  51.282  46.559  1.00  0.00     0.143 A 
HETATM   30  C   UNL     1      18.021  52.473  47.237  1.00  0.00     0.027 A 
HETATM   31  C   UNL     1      18.969  52.415  48.287  1.00  0.00     0.045 A 
ENDBRANCH  24  27
ENDBRANCH  20  23
ENDBRANCH   1  17
TORSDOF 6
ENDMDL
MODEL 10
REMARK VINA RESULT:      -8.8      2.770      5.303
REMARK  6 active torsions:
REMARK  status: ('A' for Active; 'I' for Inactive)
REMARK    1  A    between atoms: C_8  and  C_9 
REMARK    2  A    between atoms: C_9  and  C_10 
REMARK       I    between atoms: C_10  and  N_11 
REMARK    3  A    between atoms: N_11  and  C_12 
REMARK    4  A    between atoms: C_12  and  C_13 
REMARK    5  A    between atoms: C_16  and  N_17 
REMARK       I    between atoms: N_17  and  C_18 
REMARK    6  A    between atoms: C_18  and  C_19 
ROOT
HETATM    1  C   UNL     1      24.498  48.407  49.367  1.00  0.00     0.161 C 
ENDROOT
BRANCH   1   2
HETATM    2  N   UNL     1      24.476  47.217  50.179  1.00  0.00    -0.357 N 
HETATM    3  C   UNL     1      25.453  46.997  51.126  1.00  0.00     0.222 C 
HETATM    4  O   UNL     1      26.403  47.760  51.288  1.00  0.00    -0.273 OA
HETATM    5  H   UNL     1      23.742  46.534  50.040  1.00  0.00     0.162 HD
BRANCH   3   6
HETATM    6  C   UNL     1      25.245  45.764  51.977  1.00  0.00     0.143 C 
BRANCH   6   7
HETATM    7  C   UNL     1      26.262  45.507  53.050  1.00  0.00    -0.022 A 
HETATM    8  C   UNL     1      27.426  44.661  53.066  1.00  0.00    -0.001 A 
HETATM    9  C   UNL     1      28.059  43.803  52.139  1.00  0.00     0.014 A 
HETATM   10  C   UNL     1      28.007  44.778  54.333  1.00  0.00     0.042 A 
HETATM   11  C   UNL     1      29.208  43.092  52.508  1.00  0.00     0.001 A 
HETATM   12  C   UNL     1      29.747  43.228  53.782  1.00  0.00     0.002 A 
HETATM   13  C   UNL     1      29.159  44.079  54.718  1.00  0.00     0.030 A 
HETATM   14  N   UNL     1      27.252  45.673  55.049  1.00  0.00    -0.365 N 
HETATM   15  H   UNL     1      27.452  45.961  55.997  1.00  0.00     0.165 HD
HETATM   16  C   UNL     1      26.202  46.112  54.295  1.00  0.00     0.097 A 
ENDBRANCH   6   7
ENDBRANCH   3   6
ENDBRANCH   1   2
BRANCH   1  17
HETATM   17  C   UNL     1      23.116  48.958  49.142  1.00  0.00    -0.040 A 
HETATM   18  C   UNL     1      22.039  48.106  48.873  1.00  0.00     0.011 A 
HETATM   19  C   UNL     1      20.746  48.617  48.708  1.00  0.00     0.030 A 
HETATM   20  C   UNL     1      20.509  49.989  48.807  1.00  0.00     0.035 A 
HETATM   21  C   UNL     1      21.592  50.845  49.038  1.00  0.00     0.030 A 
HETATM   22  C   UNL     1      22.884  50.336  49.199  1.00  0.00     0.011 A 
BRANCH  20  23
HETATM   23  N   UNL     1      19.235  50.578  48.720  1.00  0.00    -0.321 N 
HETATM   24  C   UNL     1      18.252  50.656  49.691  1.00  0.00     0.279 C 
HETATM   25  O   UNL     1      18.303  50.137  50.802  1.00  0.00    -0.265 OA
HETATM   26  H   UNL     1      19.005  51.052  47.852  1.00  0.00     0.169 HD
BRANCH  24  27
HETATM   27  C   UNL     1      17.113  51.451  49.265  1.00  0.00     0.142 A 
HETATM   28  O   UNL     1      16.652  51.334  47.976  1.00  0.00    -0.317 OA
HETATM   29  C   UNL     1      15.609  52.194  47.846  1.00  0.00     0.143 A 
HETATM   30  C   UNL     1      15.383  52.862  49.025  1.00  0.00     0.027 A 
HETATM   31  C   UNL     1      16.349  52.383  49.941  1.00  0.00     0.045 A 
ENDBRANCH  24  27
ENDBRANCH  20  23
ENDBRANCH   1  17
TORSDOF 6
ENDMDL
