MODEL 1
REMARK VINA RESULT:      -9.5      0.000      0.000
REMARK  7 active torsions:
REMARK  status: ('A' for Active; 'I' for Inactive)
REMARK    1  A    between atoms: C_4  and  N_5 
REMARK    2  A    between atoms: C_6  and  S_7 
REMARK    3  A    between atoms: S_7  and  C_8 
REMARK    4  A    between atoms: C_8  and  C_9 
REMARK       I    between atoms: C_9  and  N_10 
REMARK    5  A    between atoms: N_10  and  C_11 
REMARK    6  A    between atoms: C_24  and  C_25 
REMARK    7  A    between atoms: C_26  and  O_27 
ROOT
HETATM    1  N   UNL     1      25.088  45.658  50.701  1.00  0.00    -0.271 N 
HETATM    2  C   UNL     1      24.189  44.726  50.199  1.00  0.00     0.197 A 
HETATM    3  N   UNL     1      23.975  43.778  51.084  1.00  0.00    -0.122 NA
HETATM    4  N   UNL     1      24.692  44.073  52.200  1.00  0.00    -0.128 NA
HETATM    5  C   UNL     1      25.306  45.230  52.014  1.00  0.00     0.172 A 
ENDROOT
BRANCH   2   6
HETATM    6  S   UNL     1      23.547  44.661  48.582  1.00  0.00    -0.080 SA
BRANCH   6   7
HETATM    7  C   UNL     1      21.766  44.607  48.966  1.00  0.00     0.185 C 
BRANCH   7   8
HETATM    8  C   UNL     1      21.026  45.851  48.503  1.00  0.00     0.231 C 
HETATM    9  N   UNL     1      21.671  47.038  48.807  1.00  0.00    -0.326 N 
HETATM   10  H   UNL     1      22.651  46.956  49.052  1.00  0.00     0.169 HD
HETATM   11  O   UNL     1      19.913  45.751  47.991  1.00  0.00    -0.272 OA
BRANCH   9  12
HETATM   12  C   UNL     1      21.142  48.342  48.734  1.00  0.00     0.037 A 
HETATM   13  C   UNL     1      19.895  48.705  49.251  1.00  0.00     0.069 A 
HETATM   14  C   UNL     1      19.466  50.033  49.192  1.00  0.00     0.104 A 
HETATM   15  C   UNL     1      20.260  51.003  48.577  1.00  0.00     0.102 A 
HETATM   16  O   UNL     1      18.250  50.314  49.764  1.00  0.00    -0.346 OA
HETATM   17  O   UNL     1      19.887  52.317  48.455  1.00  0.00    -0.346 OA
HETATM   18  C   UNL     1      21.506  50.655  48.066  1.00  0.00     0.042 A 
HETATM   19  C   UNL     1      18.490  52.491  48.727  1.00  0.00     0.202 C 
HETATM   20  C   UNL     1      18.085  51.720  49.972  1.00  0.00     0.202 C 
HETATM   21  C   UNL     1      21.948  49.330  48.150  1.00  0.00     0.032 A 
ENDBRANCH   9  12
ENDBRANCH   7   8
ENDBRANCH   6   7
ENDBRANCH   2   6
BRANCH   1  22
HETATM   22  C   UNL     1      25.704  46.759  50.040  1.00  0.00     0.043 A 
HETATM   23  C   UNL     1      24.974  47.914  49.729  1.00  0.00     0.030 A 
HETATM   24  C   UNL     1      25.604  48.991  49.101  1.00  0.00     0.002 A 
HETATM   25  C   UNL     1      26.959  48.924  48.779  1.00  0.00     0.000 A 
HETATM   26  C   UNL     1      27.689  47.778  49.083  1.00  0.00     0.002 A 
HETATM   27  C   UNL     1      27.067  46.697  49.711  1.00  0.00     0.030 A 
ENDBRANCH   1  22
BRANCH   5  28
HETATM   28  C   UNL     1      26.036  45.910  53.090  1.00  0.00     0.045 A 
HETATM   29  C   UNL     1      27.108  45.269  53.733  1.00  0.00     0.079 A 
HETATM   30  C   UNL     1      27.815  45.897  54.757  1.00  0.00     0.037 A 
HETATM   31  C   UNL     1      27.438  47.169  55.181  1.00  0.00     0.003 A 
HETATM   32  C   UNL     1      26.353  47.807  54.583  1.00  0.00     0.001 A 
HETATM   33  C   UNL     1      25.652  47.180  53.548  1.00  0.00     0.018 A 
BRANCH  29  34
HETATM   34  O   UNL     1      27.516  44.003  53.402  1.00  0.00    -0.360 OA
HETATM   35  H   UNL     1      27.826  43.561  54.218  1.00  0.00     0.217 HD
ENDBRANCH  29  34
ENDBRANCH   5  28
TORSDOF 7
ENDMDL
MODEL 2
REMARK VINA RESULT:      -9.4      5.772      8.575
REMARK  7 active torsions:
REMARK  status: ('A' for Active; 'I' for Inactive)
REMARK    1  A    between atoms: C_4  and  N_5 
REMARK    2  A    between atoms: C_6  and  S_7 
REMARK    3  A    between atoms: S_7  and  C_8 
REMARK    4  A    between atoms: C_8  and  C_9 
REMARK       I    between atoms: C_9  and  N_10 
REMARK    5  A    between atoms: N_10  and  C_11 
REMARK    6  A    between atoms: C_24  and  C_25 
REMARK    7  A    between atoms: C_26  and  O_27 
ROOT
HETATM    1  N   UNL     1      27.931  45.150  54.074  1.00  0.00    -0.271 N 
HETATM    2  C   UNL     1      27.124  46.078  53.428  1.00  0.00     0.197 A 
HETATM    3  N   UNL     1      26.975  47.149  54.175  1.00  0.00    -0.122 NA
HETATM    4  N   UNL     1      27.703  46.977  55.310  1.00  0.00    -0.128 NA
HETATM    5  C   UNL     1      28.337  45.819  55.233  1.00  0.00     0.172 A 
ENDROOT
BRANCH   2   6
HETATM    6  S   UNL     1      26.256  45.847  51.937  1.00  0.00    -0.080 SA
BRANCH   6   7
HETATM    7  C   UNL     1      24.995  44.659  52.501  1.00  0.00     0.185 C 
BRANCH   7   8
HETATM    8  C   UNL     1      24.877  43.447  51.592  1.00  0.00     0.231 C 
HETATM    9  N   UNL     1      26.088  42.842  51.298  1.00  0.00    -0.326 N 
HETATM   10  H   UNL     1      26.862  43.089  51.903  1.00  0.00     0.169 HD
HETATM   11  O   UNL     1      23.787  43.134  51.119  1.00  0.00    -0.272 OA
BRANCH   9  12
HETATM   12  C   UNL     1      26.341  41.869  50.310  1.00  0.00     0.037 A 
HETATM   13  C   UNL     1      26.797  42.170  49.023  1.00  0.00     0.069 A 
HETATM   14  C   UNL     1      27.081  41.143  48.119  1.00  0.00     0.104 A 
HETATM   15  C   UNL     1      26.871  39.810  48.477  1.00  0.00     0.102 A 
HETATM   16  O   UNL     1      27.569  41.520  46.892  1.00  0.00    -0.346 OA
HETATM   17  O   UNL     1      27.098  38.756  47.629  1.00  0.00    -0.346 OA
HETATM   18  C   UNL     1      26.425  39.500  49.757  1.00  0.00     0.042 A 
HETATM   19  C   UNL     1      27.249  39.199  46.274  1.00  0.00     0.202 C 
HETATM   20  C   UNL     1      28.159  40.414  46.203  1.00  0.00     0.202 C 
HETATM   21  C   UNL     1      26.167  40.526  50.673  1.00  0.00     0.032 A 
ENDBRANCH   9  12
ENDBRANCH   7   8
ENDBRANCH   6   7
ENDBRANCH   2   6
BRANCH   1  22
HETATM   22  C   UNL     1      28.239  43.811  53.699  1.00  0.00     0.043 A 
HETATM   23  C   UNL     1      29.217  43.539  52.734  1.00  0.00     0.030 A 
HETATM   24  C   UNL     1      29.518  42.217  52.397  1.00  0.00     0.002 A 
HETATM   25  C   UNL     1      28.849  41.163  53.017  1.00  0.00     0.000 A 
HETATM   26  C   UNL     1      27.874  41.426  53.976  1.00  0.00     0.002 A 
HETATM   27  C   UNL     1      27.567  42.745  54.317  1.00  0.00     0.030 A 
ENDBRANCH   1  22
BRANCH   5  28
HETATM   28  C   UNL     1      29.333  45.405  56.228  1.00  0.00     0.045 A 
HETATM   29  C   UNL     1      29.244  45.866  57.552  1.00  0.00     0.079 A 
HETATM   30  C   UNL     1      30.180  45.485  58.513  1.00  0.00     0.037 A 
HETATM   31  C   UNL     1      31.244  44.660  58.156  1.00  0.00     0.003 A 
HETATM   32  C   UNL     1      31.371  44.222  56.839  1.00  0.00     0.001 A 
HETATM   33  C   UNL     1      30.426  44.596  55.879  1.00  0.00     0.018 A 
BRANCH  29  34
HETATM   34  O   UNL     1      28.251  46.711  57.974  1.00  0.00    -0.360 OA
HETATM   35  H   UNL     1      28.481  47.618  57.686  1.00  0.00     0.217 HD
ENDBRANCH  29  34
ENDBRANCH   5  28
TORSDOF 7
ENDMDL
MODEL 3
REMARK VINA RESULT:      -9.1      2.426      9.482
REMARK  7 active torsions:
REMARK  status: ('A' for Active; 'I' for Inactive)
REMARK    1  A    between atoms: C_4  and  N_5 
REMARK    2  A    between atoms: C_6  and  S_7 
REMARK    3  A    between atoms: S_7  and  C_8 
REMARK    4  A    between atoms: C_8  and  C_9 
REMARK       I    between atoms: C_9  and  N_10 
REMARK    5  A    between atoms: N_10  and  C_11 
REMARK    6  A    between atoms: C_24  and  C_25 
REMARK    7  A    between atoms: C_26  and  O_27 
ROOT
HETATM    1  N   UNL     1      22.435  47.665  48.812  1.00  0.00    -0.271 N 
HETATM    2  C   UNL     1      23.634  47.275  49.397  1.00  0.00     0.197 A 
HETATM    3  N   UNL     1      24.291  48.327  49.831  1.00  0.00    -0.122 NA
HETATM    4  N   UNL     1      23.537  49.430  49.581  1.00  0.00    -0.128 NA
HETATM    5  C   UNL     1      22.393  49.044  49.038  1.00  0.00     0.172 A 
ENDROOT
BRANCH   2   6
HETATM    6  S   UNL     1      24.310  45.672  49.420  1.00  0.00    -0.080 SA
BRANCH   6   7
HETATM    7  C   UNL     1      24.546  45.468  51.216  1.00  0.00     0.185 C 
BRANCH   7   8
HETATM    8  C   UNL     1      25.950  45.012  51.578  1.00  0.00     0.231 C 
HETATM    9  N   UNL     1      26.066  44.507  52.863  1.00  0.00    -0.326 N 
HETATM   10  H   UNL     1      25.196  44.252  53.316  1.00  0.00     0.169 HD
HETATM   11  O   UNL     1      26.877  45.185  50.791  1.00  0.00    -0.272 OA
BRANCH   9  12
HETATM   12  C   UNL     1      27.253  44.234  53.571  1.00  0.00     0.037 A 
HETATM   13  C   UNL     1      27.890  45.159  54.405  1.00  0.00     0.069 A 
HETATM   14  C   UNL     1      29.033  44.792  55.119  1.00  0.00     0.104 A 
HETATM   15  C   UNL     1      29.575  43.513  54.976  1.00  0.00     0.102 A 
HETATM   16  O   UNL     1      29.570  45.743  55.951  1.00  0.00    -0.346 OA
HETATM   17  O   UNL     1      30.711  43.098  55.622  1.00  0.00    -0.346 OA
HETATM   18  C   UNL     1      28.945  42.584  54.155  1.00  0.00     0.042 A 
HETATM   19  C   UNL     1      31.431  44.207  56.177  1.00  0.00     0.202 C 
HETATM   20  C   UNL     1      30.484  45.162  56.886  1.00  0.00     0.202 C 
HETATM   21  C   UNL     1      27.784  42.941  53.460  1.00  0.00     0.032 A 
ENDBRANCH   9  12
ENDBRANCH   7   8
ENDBRANCH   6   7
ENDBRANCH   2   6
BRANCH   1  22
HETATM   22  C   UNL     1      21.487  46.880  48.096  1.00  0.00     0.043 A 
HETATM   23  C   UNL     1      21.693  46.553  46.749  1.00  0.00     0.030 A 
HETATM   24  C   UNL     1      20.760  45.763  46.071  1.00  0.00     0.002 A 
HETATM   25  C   UNL     1      19.622  45.298  46.728  1.00  0.00     0.000 A 
HETATM   26  C   UNL     1      19.411  45.622  48.066  1.00  0.00     0.002 A 
HETATM   27  C   UNL     1      20.338  46.411  48.750  1.00  0.00     0.030 A 
ENDBRANCH   1  22
BRANCH   5  28
HETATM   28  C   UNL     1      21.290  49.979  48.792  1.00  0.00     0.045 A 
HETATM   29  C   UNL     1      20.809  50.795  49.830  1.00  0.00     0.079 A 
HETATM   30  C   UNL     1      19.761  51.690  49.618  1.00  0.00     0.037 A 
HETATM   31  C   UNL     1      19.151  51.759  48.368  1.00  0.00     0.003 A 
HETATM   32  C   UNL     1      19.588  50.932  47.335  1.00  0.00     0.001 A 
HETATM   33  C   UNL     1      20.646  50.042  47.547  1.00  0.00     0.018 A 
BRANCH  29  34
HETATM   34  O   UNL     1      21.328  50.759  51.098  1.00  0.00    -0.360 OA
HETATM   35  H   UNL     1      21.372  51.677  51.434  1.00  0.00     0.217 HD
ENDBRANCH  29  34
ENDBRANCH   5  28
TORSDOF 7
ENDMDL
MODEL 4
REMARK VINA RESULT:      -8.9      2.375      3.835
REMARK  7 active torsions:
REMARK  status: ('A' for Active; 'I' for Inactive)
REMARK    1  A    between atoms: C_4  and  N_5 
REMARK    2  A    between atoms: C_6  and  S_7 
REMARK    3  A    between atoms: S_7  and  C_8 
REMARK    4  A    between atoms: C_8  and  C_9 
REMARK       I    between atoms: C_9  and  N_10 
REMARK    5  A    between atoms: N_10  and  C_11 
REMARK    6  A    between atoms: C_24  and  C_25 
REMARK    7  A    between atoms: C_26  and  O_27 
ROOT
HETATM    1  N   UNL     1      24.932  45.472  50.821  1.00  0.00    -0.271 N 
HETATM    2  C   UNL     1      24.561  46.764  50.472  1.00  0.00     0.197 A 
HETATM    3  N   UNL     1      24.957  47.614  51.391  1.00  0.00    -0.122 NA
HETATM    4  N   UNL     1      25.628  46.921  52.348  1.00  0.00    -0.128 NA
HETATM    5  C   UNL     1      25.684  45.650  51.986  1.00  0.00     0.172 A 
ENDROOT
BRANCH   2   6
HETATM    6  S   UNL     1      23.560  47.235  49.128  1.00  0.00    -0.080 SA
BRANCH   6   7
HETATM    7  C   UNL     1      24.235  48.899  48.816  1.00  0.00     0.185 C 
BRANCH   7   8
HETATM    8  C   UNL     1      23.227  49.831  48.165  1.00  0.00     0.231 C 
HETATM    9  N   UNL     1      21.978  49.820  48.763  1.00  0.00    -0.326 N 
HETATM   10  H   UNL     1      21.939  49.418  49.692  1.00  0.00     0.169 HD
HETATM   11  O   UNL     1      23.527  50.448  47.145  1.00  0.00    -0.272 OA
BRANCH   9  12
HETATM   12  C   UNL     1      20.784  50.374  48.261  1.00  0.00     0.037 A 
HETATM   13  C   UNL     1      19.938  49.714  47.364  1.00  0.00     0.069 A 
HETATM   14  C   UNL     1      18.741  50.308  46.958  1.00  0.00     0.104 A 
HETATM   15  C   UNL     1      18.397  51.584  47.410  1.00  0.00     0.102 A 
HETATM   16  O   UNL     1      17.945  49.574  46.113  1.00  0.00    -0.346 OA
HETATM   17  O   UNL     1      17.254  52.237  47.028  1.00  0.00    -0.346 OA
HETATM   18  C   UNL     1      19.227  52.245  48.309  1.00  0.00     0.042 A 
HETATM   19  C   UNL     1      16.650  51.611  45.889  1.00  0.00     0.202 C 
HETATM   20  C   UNL     1      16.616  50.101  46.061  1.00  0.00     0.202 C 
HETATM   21  C   UNL     1      20.413  51.640  48.738  1.00  0.00     0.032 A 
ENDBRANCH   9  12
ENDBRANCH   7   8
ENDBRANCH   6   7
ENDBRANCH   2   6
BRANCH   1  22
HETATM   22  C   UNL     1      24.592  44.238  50.195  1.00  0.00     0.043 A 
HETATM   23  C   UNL     1      23.311  43.689  50.332  1.00  0.00     0.030 A 
HETATM   24  C   UNL     1      22.992  42.489  49.691  1.00  0.00     0.002 A 
HETATM   25  C   UNL     1      23.945  41.831  48.915  1.00  0.00     0.000 A 
HETATM   26  C   UNL     1      25.222  42.371  48.777  1.00  0.00     0.002 A 
HETATM   27  C   UNL     1      25.547  43.570  49.414  1.00  0.00     0.030 A 
ENDBRANCH   1  22
BRANCH   5  28
HETATM   28  C   UNL     1      26.477  44.660  52.725  1.00  0.00     0.045 A 
HETATM   29  C   UNL     1      25.989  44.112  53.922  1.00  0.00     0.079 A 
HETATM   30  C   UNL     1      26.726  43.171  54.639  1.00  0.00     0.037 A 
HETATM   31  C   UNL     1      27.986  42.787  54.186  1.00  0.00     0.003 A 
HETATM   32  C   UNL     1      28.506  43.347  53.021  1.00  0.00     0.001 A 
HETATM   33  C   UNL     1      27.760  44.283  52.297  1.00  0.00     0.018 A 
BRANCH  29  34
HETATM   34  O   UNL     1      24.777  44.467  54.455  1.00  0.00    -0.360 OA
HETATM   35  H   UNL     1      24.437  45.235  53.952  1.00  0.00     0.217 HD
ENDBRANCH  29  34
ENDBRANCH   5  28
TORSDOF 7
ENDMDL
MODEL 5
REMARK VINA RESULT:      -8.8      3.179      5.075
REMARK  7 active torsions:
REMARK  status: ('A' for Active; 'I' for Inactive)
REMARK    1  A    between atoms: C_4  and  N_5 
REMARK    2  A    between atoms: C_6  and  S_7 
REMARK    3  A    between atoms: S_7  and  C_8 
REMARK    4  A    between atoms: C_8  and  C_9 
REMARK       I    between atoms: C_9  and  N_10 
REMARK    5  A    between atoms: N_10  and  C_11 
REMARK    6  A    between atoms: C_24  and  C_25 
REMARK    7  A    between atoms: C_26  and  O_27 
ROOT
HETATM    1  N   UNL     1      27.652  45.213  53.977  1.00  0.00    -0.271 N 
HETATM    2  C   UNL     1      26.819  46.169  53.409  1.00  0.00     0.197 A 
HETATM    3  N   UNL     1      26.744  47.225  54.187  1.00  0.00    -0.122 NA
HETATM    4  N   UNL     1      27.547  47.016  55.263  1.00  0.00    -0.128 NA
HETATM    5  C   UNL     1      28.152  45.848  55.117  1.00  0.00     0.172 A 
ENDROOT
BRANCH   2   6
HETATM    6  S   UNL     1      25.844  45.986  51.980  1.00  0.00    -0.080 SA
BRANCH   6   7
HETATM    7  C   UNL     1      26.534  47.336  50.968  1.00  0.00     0.185 C 
BRANCH   7   8
HETATM    8  C   UNL     1      25.516  47.940  50.015  1.00  0.00     0.231 C 
HETATM    9  N   UNL     1      24.231  47.448  50.177  1.00  0.00    -0.326 N 
HETATM   10  H   UNL     1      24.051  46.963  51.048  1.00  0.00     0.169 HD
HETATM   11  O   UNL     1      25.878  48.722  49.140  1.00  0.00    -0.272 OA
BRANCH   9  12
HETATM   12  C   UNL     1      23.134  47.620  49.309  1.00  0.00     0.037 A 
HETATM   13  C   UNL     1      22.380  48.795  49.232  1.00  0.00     0.069 A 
HETATM   14  C   UNL     1      21.344  48.907  48.303  1.00  0.00     0.104 A 
HETATM   15  C   UNL     1      21.022  47.832  47.471  1.00  0.00     0.102 A 
HETATM   16  O   UNL     1      20.683  50.110  48.259  1.00  0.00    -0.346 OA
HETATM   17  O   UNL     1      19.998  47.863  46.560  1.00  0.00    -0.346 OA
HETATM   18  C   UNL     1      21.770  46.662  47.534  1.00  0.00     0.042 A 
HETATM   19  C   UNL     1      19.121  48.972  46.797  1.00  0.00     0.202 C 
HETATM   20  C   UNL     1      19.916  50.240  47.058  1.00  0.00     0.202 C 
HETATM   21  C   UNL     1      22.827  46.558  48.445  1.00  0.00     0.032 A 
ENDBRANCH   9  12
ENDBRANCH   7   8
ENDBRANCH   6   7
ENDBRANCH   2   6
BRANCH   1  22
HETATM   22  C   UNL     1      27.907  43.877  53.553  1.00  0.00     0.043 A 
HETATM   23  C   UNL     1      28.743  43.614  52.459  1.00  0.00     0.030 A 
HETATM   24  C   UNL     1      28.996  42.295  52.074  1.00  0.00     0.002 A 
HETATM   25  C   UNL     1      28.420  41.235  52.773  1.00  0.00     0.000 A 
HETATM   26  C   UNL     1      27.587  41.490  53.859  1.00  0.00     0.002 A 
HETATM   27  C   UNL     1      27.328  42.805  54.249  1.00  0.00     0.030 A 
ENDBRANCH   1  22
BRANCH   5  28
HETATM   28  C   UNL     1      29.208  45.395  56.030  1.00  0.00     0.045 A 
HETATM   29  C   UNL     1      29.226  45.832  57.364  1.00  0.00     0.079 A 
HETATM   30  C   UNL     1      30.220  45.413  58.248  1.00  0.00     0.037 A 
HETATM   31  C   UNL     1      31.237  44.574  57.799  1.00  0.00     0.003 A 
HETATM   32  C   UNL     1      31.259  44.158  56.469  1.00  0.00     0.001 A 
HETATM   33  C   UNL     1      30.255  44.571  55.588  1.00  0.00     0.018 A 
BRANCH  29  34
HETATM   34  O   UNL     1      28.285  46.689  57.872  1.00  0.00    -0.360 OA
HETATM   35  H   UNL     1      27.400  46.313  57.687  1.00  0.00     0.217 HD
ENDBRANCH  29  34
ENDBRANCH   5  28
TORSDOF 7
ENDMDL
MODEL 6
REMARK VINA RESULT:      -8.7      2.225      3.068
REMARK  7 active torsions:
REMARK  status: ('A' for Active; 'I' for Inactive)
REMARK    1  A    between atoms: C_4  and  N_5 
REMARK    2  A    between atoms: C_6  and  S_7 
REMARK    3  A    between atoms: S_7  and  C_8 
REMARK    4  A    between atoms: C_8  and  C_9 
REMARK       I    between atoms: C_9  and  N_10 
REMARK    5  A    between atoms: N_10  and  C_11 
REMARK    6  A    between atoms: C_24  and  C_25 
REMARK    7  A    between atoms: C_26  and  O_27 
ROOT
HETATM    1  N   UNL     1      26.498  43.512  50.785  1.00  0.00    -0.271 N 
HETATM    2  C   UNL     1      26.056  42.439  50.021  1.00  0.00     0.197 A 
HETATM    3  N   UNL     1      26.591  41.321  50.456  1.00  0.00    -0.122 NA
HETATM    4  N   UNL     1      27.367  41.614  51.533  1.00  0.00    -0.128 NA
HETATM    5  C   UNL     1      27.265  42.909  51.786  1.00  0.00     0.172 A 
ENDROOT
BRANCH   2   6
HETATM    6  S   UNL     1      25.086  42.515  48.578  1.00  0.00    -0.080 SA
BRANCH   6   7
HETATM    7  C   UNL     1      23.458  42.100  49.285  1.00  0.00     0.185 C 
BRANCH   7   8
HETATM    8  C   UNL     1      22.629  43.329  49.618  1.00  0.00     0.231 C 
HETATM    9  N   UNL     1      22.252  44.073  48.512  1.00  0.00    -0.326 N 
HETATM   10  H   UNL     1      22.329  43.602  47.618  1.00  0.00     0.169 HD
HETATM   11  O   UNL     1      22.421  43.634  50.790  1.00  0.00    -0.272 OA
BRANCH   9  12
HETATM   12  C   UNL     1      21.700  45.370  48.500  1.00  0.00     0.037 A 
HETATM   13  C   UNL     1      20.333  45.633  48.632  1.00  0.00     0.069 A 
HETATM   14  C   UNL     1      19.871  46.951  48.670  1.00  0.00     0.104 A 
HETATM   15  C   UNL     1      20.763  48.016  48.534  1.00  0.00     0.102 A 
HETATM   16  O   UNL     1      18.520  47.124  48.848  1.00  0.00    -0.346 OA
HETATM   17  O   UNL     1      20.374  49.331  48.532  1.00  0.00    -0.346 OA
HETATM   18  C   UNL     1      22.125  47.765  48.412  1.00  0.00     0.042 A 
HETATM   19  C   UNL     1      18.957  49.456  48.352  1.00  0.00     0.202 C 
HETATM   20  C   UNL     1      18.214  48.467  49.235  1.00  0.00     0.202 C 
HETATM   21  C   UNL     1      22.593  46.446  48.401  1.00  0.00     0.032 A 
ENDBRANCH   9  12
ENDBRANCH   7   8
ENDBRANCH   6   7
ENDBRANCH   2   6
BRANCH   1  22
HETATM   22  C   UNL     1      26.286  44.906  50.584  1.00  0.00     0.043 A 
HETATM   23  C   UNL     1      27.123  45.649  49.741  1.00  0.00     0.030 A 
HETATM   24  C   UNL     1      26.883  47.012  49.542  1.00  0.00     0.002 A 
HETATM   25  C   UNL     1      25.814  47.639  50.179  1.00  0.00     0.000 A 
HETATM   26  C   UNL     1      24.980  46.906  51.021  1.00  0.00     0.002 A 
HETATM   27  C   UNL     1      25.213  45.545  51.225  1.00  0.00     0.030 A 
ENDBRANCH   1  22
BRANCH   5  28
HETATM   28  C   UNL     1      27.856  43.521  52.982  1.00  0.00     0.045 A 
HETATM   29  C   UNL     1      29.189  43.252  53.329  1.00  0.00     0.079 A 
HETATM   30  C   UNL     1      29.770  43.823  54.461  1.00  0.00     0.037 A 
HETATM   31  C   UNL     1      29.011  44.649  55.287  1.00  0.00     0.003 A 
HETATM   32  C   UNL     1      27.675  44.899  54.981  1.00  0.00     0.001 A 
HETATM   33  C   UNL     1      27.098  44.334  53.839  1.00  0.00     0.018 A 
BRANCH  29  34
HETATM   34  O   UNL     1      29.990  42.419  52.592  1.00  0.00    -0.360 OA
HETATM   35  H   UNL     1      29.928  41.520  52.975  1.00  0.00     0.217 HD
ENDBRANCH  29  34
ENDBRANCH   5  28
TORSDOF 7
ENDMDL
MODEL 7
REMARK VINA RESULT:      -8.7     10.522     11.908
REMARK  7 active torsions:
REMARK  status: ('A' for Active; 'I' for Inactive)
REMARK    1  A    between atoms: C_4  and  N_5 
REMARK    2  A    between atoms: C_6  and  S_7 
REMARK    3  A    between atoms: S_7  and  C_8 
REMARK    4  A    between atoms: C_8  and  C_9 
REMARK       I    between atoms: C_9  and  N_10 
REMARK    5  A    between atoms: N_10  and  C_11 
REMARK    6  A    between atoms: C_24  and  C_25 
REMARK    7  A    between atoms: C_26  and  O_27 
ROOT
HETATM    1  N   UNL     1      31.106  48.774  40.263  1.00  0.00    -0.271 N 
HETATM    2  C   UNL     1      30.971  47.451  39.861  1.00  0.00     0.197 A 
HETATM    3  N   UNL     1      31.929  46.719  40.383  1.00  0.00    -0.122 NA
HETATM    4  N   UNL     1      32.697  47.521  41.166  1.00  0.00    -0.128 NA
HETATM    5  C   UNL     1      32.176  48.737  41.162  1.00  0.00     0.172 A 
ENDROOT
BRANCH   2   6
HETATM    6  S   UNL     1      29.839  46.824  38.698  1.00  0.00    -0.080 SA
BRANCH   6   7
HETATM    7  C   UNL     1      28.653  46.026  39.829  1.00  0.00     0.185 C 
BRANCH   7   8
HETATM    8  C   UNL     1      27.466  46.914  40.162  1.00  0.00     0.231 C 
HETATM    9  N   UNL     1      26.546  47.035  39.134  1.00  0.00    -0.326 N 
HETATM   10  H   UNL     1      26.612  46.340  38.399  1.00  0.00     0.169 HD
HETATM   11  O   UNL     1      27.427  47.517  41.232  1.00  0.00    -0.272 OA
BRANCH   9  12
HETATM   12  C   UNL     1      25.485  47.958  39.039  1.00  0.00     0.037 A 
HETATM   13  C   UNL     1      24.275  47.825  39.727  1.00  0.00     0.069 A 
HETATM   14  C   UNL     1      23.295  48.815  39.626  1.00  0.00     0.104 A 
HETATM   15  C   UNL     1      23.497  49.926  38.804  1.00  0.00     0.102 A 
HETATM   16  O   UNL     1      22.156  48.632  40.370  1.00  0.00    -0.346 OA
HETATM   17  O   UNL     1      22.565  50.918  38.634  1.00  0.00    -0.346 OA
HETATM   18  C   UNL     1      24.699  50.072  38.121  1.00  0.00     0.042 A 
HETATM   19  C   UNL     1      21.279  50.516  39.122  1.00  0.00     0.202 C 
HETATM   20  C   UNL     1      21.405  49.845  40.480  1.00  0.00     0.202 C 
HETATM   21  C   UNL     1      25.693  49.095  38.243  1.00  0.00     0.032 A 
ENDBRANCH   9  12
ENDBRANCH   7   8
ENDBRANCH   6   7
ENDBRANCH   2   6
BRANCH   1  22
HETATM   22  C   UNL     1      30.382  49.923  39.832  1.00  0.00     0.043 A 
HETATM   23  C   UNL     1      29.229  50.343  40.507  1.00  0.00     0.030 A 
HETATM   24  C   UNL     1      28.546  51.486  40.081  1.00  0.00     0.002 A 
HETATM   25  C   UNL     1      29.006  52.211  38.983  1.00  0.00     0.000 A 
HETATM   26  C   UNL     1      30.151  51.797  38.306  1.00  0.00     0.002 A 
HETATM   27  C   UNL     1      30.838  50.657  38.727  1.00  0.00     0.030 A 
ENDBRANCH   1  22
BRANCH   5  28
HETATM   28  C   UNL     1      32.676  49.805  42.035  1.00  0.00     0.045 A 
HETATM   29  C   UNL     1      33.976  50.308  41.865  1.00  0.00     0.079 A 
HETATM   30  C   UNL     1      34.471  51.322  42.684  1.00  0.00     0.037 A 
HETATM   31  C   UNL     1      33.682  51.828  43.714  1.00  0.00     0.003 A 
HETATM   32  C   UNL     1      32.402  51.317  43.925  1.00  0.00     0.001 A 
HETATM   33  C   UNL     1      31.904  50.307  43.095  1.00  0.00     0.018 A 
BRANCH  29  34
HETATM   34  O   UNL     1      34.829  49.837  40.901  1.00  0.00    -0.360 OA
HETATM   35  H   UNL     1      34.491  50.126  40.029  1.00  0.00     0.217 HD
ENDBRANCH  29  34
ENDBRANCH   5  28
TORSDOF 7
ENDMDL
MODEL 8
REMARK VINA RESULT:      -8.7      3.300      9.486
REMARK  7 active torsions:
REMARK  status: ('A' for Active; 'I' for Inactive)
REMARK    1  A    between atoms: C_4  and  N_5 
REMARK    2  A    between atoms: C_6  and  S_7 
REMARK    3  A    between atoms: S_7  and  C_8 
REMARK    4  A    between atoms: C_8  and  C_9 
REMARK       I    between atoms: C_9  and  N_10 
REMARK    5  A    between atoms: N_10  and  C_11 
REMARK    6  A    between atoms: C_24  and  C_25 
REMARK    7  A    between atoms: C_26  and  O_27 
ROOT
HETATM    1  N   UNL     1      21.810  48.393  48.968  1.00  0.00    -0.271 N 
HETATM    2  C   UNL     1      23.075  48.022  49.406  1.00  0.00     0.197 A 
HETATM    3  N   UNL     1      23.723  49.069  49.864  1.00  0.00    -0.122 NA
HETATM    4  N   UNL     1      22.899  50.147  49.778  1.00  0.00    -0.128 NA
HETATM    5  C   UNL     1      21.728  49.746  49.312  1.00  0.00     0.172 A 
ENDROOT
BRANCH   2   6
HETATM    6  S   UNL     1      23.823  46.460  49.231  1.00  0.00    -0.080 SA
BRANCH   6   7
HETATM    7  C   UNL     1      24.692  46.360  50.830  1.00  0.00     0.185 C 
BRANCH   7   8
HETATM    8  C   UNL     1      25.121  44.945  51.180  1.00  0.00     0.231 C 
HETATM    9  N   UNL     1      26.353  44.583  50.660  1.00  0.00    -0.326 N 
HETATM   10  H   UNL     1      26.938  45.347  50.342  1.00  0.00     0.169 HD
HETATM   11  O   UNL     1      24.359  44.204  51.798  1.00  0.00    -0.272 OA
BRANCH   9  12
HETATM   12  C   UNL     1      26.909  43.290  50.598  1.00  0.00     0.037 A 
HETATM   13  C   UNL     1      26.847  42.470  49.467  1.00  0.00     0.069 A 
HETATM   14  C   UNL     1      27.475  41.223  49.466  1.00  0.00     0.104 A 
HETATM   15  C   UNL     1      28.134  40.764  50.608  1.00  0.00     0.102 A 
HETATM   16  O   UNL     1      27.406  40.500  48.301  1.00  0.00    -0.346 OA
HETATM   17  O   UNL     1      28.744  39.538  50.686  1.00  0.00    -0.346 OA
HETATM   18  C   UNL     1      28.209  41.574  51.736  1.00  0.00     0.042 A 
HETATM   19  C   UNL     1      28.343  38.685  49.606  1.00  0.00     0.202 C 
HETATM   20  C   UNL     1      28.368  39.440  48.287  1.00  0.00     0.202 C 
HETATM   21  C   UNL     1      27.604  42.836  51.729  1.00  0.00     0.032 A 
ENDBRANCH   9  12
ENDBRANCH   7   8
ENDBRANCH   6   7
ENDBRANCH   2   6
BRANCH   1  22
HETATM   22  C   UNL     1      20.834  47.619  48.277  1.00  0.00     0.043 A 
HETATM   23  C   UNL     1      19.878  46.872  48.978  1.00  0.00     0.030 A 
HETATM   24  C   UNL     1      18.917  46.137  48.281  1.00  0.00     0.002 A 
HETATM   25  C   UNL     1      18.903  46.140  46.887  1.00  0.00     0.000 A 
HETATM   26  C   UNL     1      19.852  46.878  46.184  1.00  0.00     0.002 A 
HETATM   27  C   UNL     1      20.817  47.615  46.875  1.00  0.00     0.030 A 
ENDBRANCH   1  22
BRANCH   5  28
HETATM   28  C   UNL     1      20.565  50.638  49.248  1.00  0.00     0.045 A 
HETATM   29  C   UNL     1      19.512  50.495  50.166  1.00  0.00     0.079 A 
HETATM   30  C   UNL     1      18.397  51.332  50.123  1.00  0.00     0.037 A 
HETATM   31  C   UNL     1      18.301  52.308  49.134  1.00  0.00     0.003 A 
HETATM   32  C   UNL     1      19.317  52.442  48.189  1.00  0.00     0.001 A 
HETATM   33  C   UNL     1      20.439  51.609  48.241  1.00  0.00     0.018 A 
BRANCH  29  34
HETATM   34  O   UNL     1      19.511  49.535  51.144  1.00  0.00    -0.360 OA
HETATM   35  H   UNL     1      20.439  49.377  51.415  1.00  0.00     0.217 HD
ENDBRANCH  29  34
ENDBRANCH   5  28
TORSDOF 7
ENDMDL
MODEL 9
REMARK VINA RESULT:      -8.7      5.331      7.572
REMARK  7 active torsions:
REMARK  status: ('A' for Active; 'I' for Inactive)
REMARK    1  A    between atoms: C_4  and  N_5 
REMARK    2  A    between atoms: C_6  and  S_7 
REMARK    3  A    between atoms: S_7  and  C_8 
REMARK    4  A    between atoms: C_8  and  C_9 
REMARK       I    between atoms: C_9  and  N_10 
REMARK    5  A    between atoms: N_10  and  C_11 
REMARK    6  A    between atoms: C_24  and  C_25 
REMARK    7  A    between atoms: C_26  and  O_27 
ROOT
HETATM    1  N   UNL     1      27.977  45.315  54.271  1.00  0.00    -0.271 N 
HETATM    2  C   UNL     1      27.220  46.432  53.941  1.00  0.00     0.197 A 
HETATM    3  N   UNL     1      27.356  47.361  54.859  1.00  0.00    -0.122 NA
HETATM    4  N   UNL     1      28.227  46.905  55.797  1.00  0.00    -0.128 NA
HETATM    5  C   UNL     1      28.663  45.713  55.423  1.00  0.00     0.172 A 
ENDROOT
BRANCH   2   6
HETATM    6  S   UNL     1      26.093  46.575  52.622  1.00  0.00    -0.080 SA
BRANCH   6   7
HETATM    7  C   UNL     1      25.138  45.043  52.872  1.00  0.00     0.185 C 
BRANCH   7   8
HETATM    8  C   UNL     1      24.590  44.472  51.574  1.00  0.00     0.231 C 
HETATM    9  N   UNL     1      24.683  43.093  51.480  1.00  0.00    -0.326 N 
HETATM   10  H   UNL     1      24.849  42.602  52.351  1.00  0.00     0.169 HD
HETATM   11  O   UNL     1      24.194  45.225  50.687  1.00  0.00    -0.272 OA
BRANCH   9  12
HETATM   12  C   UNL     1      24.494  42.299  50.331  1.00  0.00     0.037 A 
HETATM   13  C   UNL     1      23.291  42.236  49.621  1.00  0.00     0.069 A 
HETATM   14  C   UNL     1      23.200  41.470  48.456  1.00  0.00     0.104 A 
HETATM   15  C   UNL     1      24.297  40.727  48.014  1.00  0.00     0.102 A 
HETATM   16  O   UNL     1      21.999  41.498  47.793  1.00  0.00    -0.346 OA
HETATM   17  O   UNL     1      24.267  39.930  46.898  1.00  0.00    -0.346 OA
HETATM   18  C   UNL     1      25.500  40.789  48.708  1.00  0.00     0.042 A 
HETATM   19  C   UNL     1      22.923  39.702  46.454  1.00  0.00     0.202 C 
HETATM   20  C   UNL     1      22.128  40.997  46.459  1.00  0.00     0.202 C 
HETATM   21  C   UNL     1      25.600  41.578  49.859  1.00  0.00     0.032 A 
ENDBRANCH   9  12
ENDBRANCH   7   8
ENDBRANCH   6   7
ENDBRANCH   2   6
BRANCH   1  22
HETATM   22  C   UNL     1      28.019  44.038  53.642  1.00  0.00     0.043 A 
HETATM   23  C   UNL     1      28.609  43.874  52.382  1.00  0.00     0.030 A 
HETATM   24  C   UNL     1      28.658  42.608  51.792  1.00  0.00     0.002 A 
HETATM   25  C   UNL     1      28.120  41.504  52.451  1.00  0.00     0.000 A 
HETATM   26  C   UNL     1      27.530  41.661  53.703  1.00  0.00     0.002 A 
HETATM   27  C   UNL     1      27.477  42.923  54.298  1.00  0.00     0.030 A 
ENDBRANCH   1  22
BRANCH   5  28
HETATM   28  C   UNL     1      29.738  45.014  56.137  1.00  0.00     0.045 A 
HETATM   29  C   UNL     1      30.022  45.331  57.475  1.00  0.00     0.079 A 
HETATM   30  C   UNL     1      31.039  44.679  58.171  1.00  0.00     0.037 A 
HETATM   31  C   UNL     1      31.814  43.719  57.527  1.00  0.00     0.003 A 
HETATM   32  C   UNL     1      31.574  43.415  56.188  1.00  0.00     0.001 A 
HETATM   33  C   UNL     1      30.546  44.063  55.494  1.00  0.00     0.018 A 
BRANCH  29  34
HETATM   34  O   UNL     1      29.332  46.292  58.168  1.00  0.00    -0.360 OA
HETATM   35  H   UNL     1      29.970  46.781  58.726  1.00  0.00     0.217 HD
ENDBRANCH  29  34
ENDBRANCH   5  28
TORSDOF 7
ENDMDL
MODEL 10
REMARK VINA RESULT:      -8.6      4.195      6.073
REMARK  7 active torsions:
REMARK  status: ('A' for Active; 'I' for Inactive)
REMARK    1  A    between atoms: C_4  and  N_5 
REMARK    2  A    between atoms: C_6  and  S_7 
REMARK    3  A    between atoms: S_7  and  C_8 
REMARK    4  A    between atoms: C_8  and  C_9 
REMARK       I    between atoms: C_9  and  N_10 
REMARK    5  A    between atoms: N_10  and  C_11 
REMARK    6  A    between atoms: C_24  and  C_25 
REMARK    7  A    between atoms: C_26  and  O_27 
ROOT
HETATM    1  N   UNL     1      27.838  45.354  54.093  1.00  0.00    -0.271 N 
HETATM    2  C   UNL     1      27.068  46.367  53.536  1.00  0.00     0.197 A 
HETATM    3  N   UNL     1      27.029  47.403  54.343  1.00  0.00    -0.122 NA
HETATM    4  N   UNL     1      27.795  47.122  55.429  1.00  0.00    -0.128 NA
HETATM    5  C   UNL     1      28.344  45.930  55.262  1.00  0.00     0.172 A 
ENDROOT
BRANCH   2   6
HETATM    6  S   UNL     1      26.118  46.275  52.081  1.00  0.00    -0.080 SA
BRANCH   6   7
HETATM    7  C   UNL     1      24.934  44.980  52.574  1.00  0.00     0.185 C 
BRANCH   7   8
HETATM    8  C   UNL     1      24.354  44.228  51.387  1.00  0.00     0.231 C 
HETATM    9  N   UNL     1      23.914  45.047  50.360  1.00  0.00    -0.326 N 
HETATM   10  H   UNL     1      24.252  46.001  50.383  1.00  0.00     0.169 HD
HETATM   11  O   UNL     1      24.231  43.006  51.432  1.00  0.00    -0.272 OA
BRANCH   9  12
HETATM   12  C   UNL     1      23.122  44.680  49.254  1.00  0.00     0.037 A 
HETATM   13  C   UNL     1      21.726  44.764  49.236  1.00  0.00     0.069 A 
HETATM   14  C   UNL     1      21.016  44.437  48.078  1.00  0.00     0.104 A 
HETATM   15  C   UNL     1      21.689  43.983  46.942  1.00  0.00     0.102 A 
HETATM   16  O   UNL     1      19.652  44.590  48.129  1.00  0.00    -0.346 OA
HETATM   17  O   UNL     1      21.052  43.615  45.784  1.00  0.00    -0.346 OA
HETATM   18  C   UNL     1      23.077  43.904  46.947  1.00  0.00     0.042 A 
HETATM   19  C   UNL     1      19.645  43.442  45.995  1.00  0.00     0.202 C 
HETATM   20  C   UNL     1      19.079  44.587  46.818  1.00  0.00     0.202 C 
HETATM   21  C   UNL     1      23.792  44.257  48.096  1.00  0.00     0.032 A 
ENDBRANCH   9  12
ENDBRANCH   7   8
ENDBRANCH   6   7
ENDBRANCH   2   6
BRANCH   1  22
HETATM   22  C   UNL     1      28.035  44.019  53.636  1.00  0.00     0.043 A 
HETATM   23  C   UNL     1      28.890  43.744  52.561  1.00  0.00     0.030 A 
HETATM   24  C   UNL     1      29.085  42.424  52.143  1.00  0.00     0.002 A 
HETATM   25  C   UNL     1      28.431  41.377  52.789  1.00  0.00     0.000 A 
HETATM   26  C   UNL     1      27.577  41.645  53.857  1.00  0.00     0.002 A 
HETATM   27  C   UNL     1      27.377  42.961  54.280  1.00  0.00     0.030 A 
ENDBRANCH   1  22
BRANCH   5  28
HETATM   28  C   UNL     1      29.354  45.398  56.183  1.00  0.00     0.045 A 
HETATM   29  C   UNL     1      29.336  45.760  57.540  1.00  0.00     0.079 A 
HETATM   30  C   UNL     1      30.286  45.266  58.432  1.00  0.00     0.037 A 
HETATM   31  C   UNL     1      31.296  44.424  57.973  1.00  0.00     0.003 A 
HETATM   32  C   UNL     1      31.355  44.082  56.623  1.00  0.00     0.001 A 
HETATM   33  C   UNL     1      30.394  44.570  55.732  1.00  0.00     0.018 A 
BRANCH  29  34
HETATM   34  O   UNL     1      28.400  46.614  58.063  1.00  0.00    -0.360 OA
HETATM   35  H   UNL     1      27.815  46.098  58.655  1.00  0.00     0.217 HD
ENDBRANCH  29  34
ENDBRANCH   5  28
TORSDOF 7
ENDMDL
