MODEL 1
REMARK VINA RESULT:      -8.5      0.000      0.000
REMARK  6 active torsions:
REMARK  status: ('A' for Active; 'I' for Inactive)
REMARK    1  A    between atoms: C_6  and  O_7 
REMARK    2  A    between atoms: C_8  and  C_9 
REMARK    3  A    between atoms: C_9  and  N_10 
REMARK    4  A    between atoms: N_10  and  C_12 
REMARK    5  A    between atoms: C_12  and  C_13 
REMARK    6  A    between atoms: C_12  and  C_16 
REMARK       I    between atoms: C_13  and  N_14 
ROOT
HETATM    1  N   UNL     1      26.734  43.055  52.390  1.00  0.00    -0.054 N 
HETATM    2  H   UNL     1      26.921  42.548  53.267  1.00  0.00     0.281 HD
HETATM    3  C   UNL     1      26.614  42.068  51.264  1.00  0.00     0.271 C 
ENDROOT
BRANCH   1   4
HETATM    4  C   UNL     1      27.982  43.914  52.243  1.00  0.00     0.277 C 
BRANCH   4   5
HETATM    5  C   UNL     1      28.868  43.836  53.457  1.00  0.00     0.001 A 
HETATM    6  C   UNL     1      29.790  42.799  53.604  1.00  0.00     0.074 A 
HETATM    7  C   UNL     1      30.647  42.743  54.700  1.00  0.00     0.044 A 
HETATM    8  C   UNL     1      30.605  43.748  55.678  1.00  0.00    -0.053 A 
HETATM    9  C   UNL     1      29.662  44.790  55.562  1.00  0.00    -0.055 A 
HETATM   10  C   UNL     1      31.558  43.682  56.842  1.00  0.00     0.049 C 
HETATM   11  C   UNL     1      29.588  45.902  56.576  1.00  0.00     0.049 C 
HETATM   12  C   UNL     1      28.804  44.824  54.450  1.00  0.00     0.019 A 
BRANCH   6  13
HETATM   13  O   UNL     1      29.871  41.860  52.609  1.00  0.00    -0.360 OA
HETATM   14  H   UNL     1      29.940  40.982  53.039  1.00  0.00     0.217 HD
ENDBRANCH   6  13
ENDBRANCH   4   5
ENDBRANCH   1   4
BRANCH   1  15
HETATM   15  C   UNL     1      25.479  43.911  52.622  1.00  0.00     0.312 C 
BRANCH  15  16
HETATM   16  C   UNL     1      25.382  44.313  54.125  1.00  0.00     0.251 C 
HETATM   17  N   UNL     1      25.555  43.343  55.074  1.00  0.00    -0.368 N 
HETATM   18  H   UNL     1      26.094  42.500  54.908  1.00  0.00     0.159 HD
HETATM   19  H   UNL     1      25.522  43.655  56.041  1.00  0.00     0.159 HD
HETATM   20  O   UNL     1      24.999  45.432  54.463  1.00  0.00    -0.271 OA
ENDBRANCH  15  16
BRANCH  15  21
HETATM   21  C   UNL     1      25.277  45.074  51.645  1.00  0.00    -0.016 A 
HETATM   22  C   UNL     1      26.131  46.189  51.588  1.00  0.00     0.052 A 
HETATM   23  C   UNL     1      25.904  47.211  50.666  1.00  0.00     0.117 A 
HETATM   24  F   UNL     1      26.726  48.267  50.654  1.00  0.00    -0.206 F 
HETATM   25  C   UNL     1      24.847  47.153  49.771  1.00  0.00     0.042 A 
HETATM   26  C   UNL     1      24.012  46.042  49.781  1.00  0.00     0.004 A 
HETATM   27  C   UNL     1      24.233  45.008  50.697  1.00  0.00     0.010 A 
ENDBRANCH  15  21
ENDBRANCH   1  15
TORSDOF 6
ENDMDL
MODEL 2
REMARK VINA RESULT:      -8.3      2.138      3.407
REMARK  6 active torsions:
REMARK  status: ('A' for Active; 'I' for Inactive)
REMARK    1  A    between atoms: C_6  and  O_7 
REMARK    2  A    between atoms: C_8  and  C_9 
REMARK    3  A    between atoms: C_9  and  N_10 
REMARK    4  A    between atoms: N_10  and  C_12 
REMARK    5  A    between atoms: C_12  and  C_13 
REMARK    6  A    between atoms: C_12  and  C_16 
REMARK       I    between atoms: C_13  and  N_14 
ROOT
HETATM    1  N   UNL     1      28.078  42.538  52.773  1.00  0.00    -0.054 N 
HETATM    2  H   UNL     1      27.517  43.273  53.225  1.00  0.00     0.281 HD
HETATM    3  C   UNL     1      27.941  41.261  53.552  1.00  0.00     0.271 C 
ENDROOT
BRANCH   1   4
HETATM    4  C   UNL     1      29.489  43.101  52.878  1.00  0.00     0.277 C 
BRANCH   4   5
HETATM    5  C   UNL     1      29.729  43.781  54.199  1.00  0.00     0.001 A 
HETATM    6  C   UNL     1      28.935  44.855  54.605  1.00  0.00     0.074 A 
HETATM    7  C   UNL     1      29.117  45.460  55.845  1.00  0.00     0.044 A 
HETATM    8  C   UNL     1      30.104  44.985  56.721  1.00  0.00    -0.053 A 
HETATM    9  C   UNL     1      30.934  43.919  56.320  1.00  0.00    -0.055 A 
HETATM   10  C   UNL     1      30.267  45.639  58.069  1.00  0.00     0.049 C 
HETATM   11  C   UNL     1      31.997  43.362  57.230  1.00  0.00     0.049 C 
HETATM   12  C   UNL     1      30.735  43.326  55.062  1.00  0.00     0.019 A 
BRANCH   6  13
HETATM   13  O   UNL     1      27.929  45.266  53.770  1.00  0.00    -0.360 OA
HETATM   14  H   UNL     1      27.311  45.810  54.302  1.00  0.00     0.217 HD
ENDBRANCH   6  13
ENDBRANCH   4   5
ENDBRANCH   1   4
BRANCH   1  15
HETATM   15  C   UNL     1      27.611  42.446  51.312  1.00  0.00     0.312 C 
BRANCH  15  16
HETATM   16  C   UNL     1      27.508  40.950  50.882  1.00  0.00     0.251 C 
HETATM   17  N   UNL     1      28.609  40.352  50.331  1.00  0.00    -0.368 N 
HETATM   18  H   UNL     1      29.556  40.662  50.519  1.00  0.00     0.159 HD
HETATM   19  H   UNL     1      28.511  39.367  50.101  1.00  0.00     0.159 HD
HETATM   20  O   UNL     1      26.430  40.360  50.880  1.00  0.00    -0.271 OA
ENDBRANCH  15  16
BRANCH  15  21
HETATM   21  C   UNL     1      26.383  43.289  50.951  1.00  0.00    -0.016 A 
HETATM   22  C   UNL     1      25.959  43.505  49.629  1.00  0.00     0.052 A 
HETATM   23  C   UNL     1      24.823  44.272  49.363  1.00  0.00     0.117 A 
HETATM   24  F   UNL     1      24.461  44.473  48.091  1.00  0.00    -0.206 F 
HETATM   25  C   UNL     1      24.072  44.825  50.387  1.00  0.00     0.042 A 
HETATM   26  C   UNL     1      24.448  44.592  51.705  1.00  0.00     0.004 A 
HETATM   27  C   UNL     1      25.582  43.821  51.984  1.00  0.00     0.010 A 
ENDBRANCH  15  21
ENDBRANCH   1  15
TORSDOF 6
ENDMDL
MODEL 3
REMARK VINA RESULT:      -8.1      2.913      4.433
REMARK  6 active torsions:
REMARK  status: ('A' for Active; 'I' for Inactive)
REMARK    1  A    between atoms: C_6  and  O_7 
REMARK    2  A    between atoms: C_8  and  C_9 
REMARK    3  A    between atoms: C_9  and  N_10 
REMARK    4  A    between atoms: N_10  and  C_12 
REMARK    5  A    between atoms: C_12  and  C_13 
REMARK    6  A    between atoms: C_12  and  C_16 
REMARK       I    between atoms: C_13  and  N_14 
ROOT
HETATM    1  N   UNL     1      27.537  42.937  53.182  1.00  0.00    -0.054 N 
HETATM    2  H   UNL     1      27.062  43.560  53.850  1.00  0.00     0.281 HD
HETATM    3  C   UNL     1      27.633  41.559  53.770  1.00  0.00     0.271 C 
ENDROOT
BRANCH   1   4
HETATM    4  C   UNL     1      28.910  43.584  53.061  1.00  0.00     0.277 C 
BRANCH   4   5
HETATM    5  C   UNL     1      29.383  44.154  54.371  1.00  0.00     0.001 A 
HETATM    6  C   UNL     1      28.762  45.272  54.930  1.00  0.00     0.074 A 
HETATM    7  C   UNL     1      29.160  45.778  56.164  1.00  0.00     0.044 A 
HETATM    8  C   UNL     1      30.195  45.156  56.879  1.00  0.00    -0.053 A 
HETATM    9  C   UNL     1      30.852  44.042  56.320  1.00  0.00    -0.055 A 
HETATM   10  C   UNL     1      30.593  45.705  58.225  1.00  0.00     0.049 C 
HETATM   11  C   UNL     1      31.958  43.328  57.055  1.00  0.00     0.049 C 
HETATM   12  C   UNL     1      30.437  43.550  55.071  1.00  0.00     0.019 A 
BRANCH   6  13
HETATM   13  O   UNL     1      27.708  45.830  54.256  1.00  0.00    -0.360 OA
HETATM   14  H   UNL     1      27.127  45.097  53.962  1.00  0.00     0.217 HD
ENDBRANCH   6  13
ENDBRANCH   4   5
ENDBRANCH   1   4
BRANCH   1  15
HETATM   15  C   UNL     1      26.756  43.012  51.860  1.00  0.00     0.312 C 
BRANCH  15  16
HETATM   16  C   UNL     1      27.018  44.384  51.167  1.00  0.00     0.251 C 
HETATM   17  N   UNL     1      26.440  45.505  51.697  1.00  0.00    -0.368 N 
HETATM   18  H   UNL     1      26.181  45.581  52.675  1.00  0.00     0.159 HD
HETATM   19  H   UNL     1      26.667  46.383  51.238  1.00  0.00     0.159 HD
HETATM   20  O   UNL     1      27.589  44.451  50.080  1.00  0.00    -0.271 OA
ENDBRANCH  15  16
BRANCH  15  21
HETATM   21  C   UNL     1      26.899  41.801  50.933  1.00  0.00    -0.016 A 
HETATM   22  C   UNL     1      28.100  41.090  50.775  1.00  0.00     0.052 A 
HETATM   23  C   UNL     1      28.166  39.985  49.925  1.00  0.00     0.117 A 
HETATM   24  F   UNL     1      29.332  39.345  49.784  1.00  0.00    -0.206 F 
HETATM   25  C   UNL     1      27.052  39.545  49.228  1.00  0.00     0.042 A 
HETATM   26  C   UNL     1      25.842  40.207  49.398  1.00  0.00     0.004 A 
HETATM   27  C   UNL     1      25.763  41.313  50.252  1.00  0.00     0.010 A 
ENDBRANCH  15  21
ENDBRANCH   1  15
TORSDOF 6
ENDMDL
MODEL 4
REMARK VINA RESULT:      -8.0      1.902      3.157
REMARK  6 active torsions:
REMARK  status: ('A' for Active; 'I' for Inactive)
REMARK    1  A    between atoms: C_6  and  O_7 
REMARK    2  A    between atoms: C_8  and  C_9 
REMARK    3  A    between atoms: C_9  and  N_10 
REMARK    4  A    between atoms: N_10  and  C_12 
REMARK    5  A    between atoms: C_12  and  C_13 
REMARK    6  A    between atoms: C_12  and  C_16 
REMARK       I    between atoms: C_13  and  N_14 
ROOT
HETATM    1  N   UNL     1      28.131  42.797  52.793  1.00  0.00    -0.054 N 
HETATM    2  H   UNL     1      27.584  43.584  53.169  1.00  0.00     0.281 HD
HETATM    3  C   UNL     1      27.886  41.577  53.634  1.00  0.00     0.271 C 
ENDROOT
BRANCH   1   4
HETATM    4  C   UNL     1      29.561  43.297  52.946  1.00  0.00     0.277 C 
BRANCH   4   5
HETATM    5  C   UNL     1      29.805  43.899  54.304  1.00  0.00     0.001 A 
HETATM    6  C   UNL     1      29.025  44.960  54.766  1.00  0.00     0.074 A 
HETATM    7  C   UNL     1      29.211  45.493  56.038  1.00  0.00     0.044 A 
HETATM    8  C   UNL     1      30.188  44.957  56.890  1.00  0.00    -0.053 A 
HETATM    9  C   UNL     1      31.005  43.903  56.432  1.00  0.00    -0.055 A 
HETATM   10  C   UNL     1      30.356  45.532  58.272  1.00  0.00     0.049 C 
HETATM   11  C   UNL     1      32.057  43.281  57.314  1.00  0.00     0.049 C 
HETATM   12  C   UNL     1      30.802  43.383  55.143  1.00  0.00     0.019 A 
BRANCH   6  13
HETATM   13  O   UNL     1      28.028  45.431  53.953  1.00  0.00    -0.360 OA
HETATM   14  H   UNL     1      27.922  46.387  54.141  1.00  0.00     0.217 HD
ENDBRANCH   6  13
ENDBRANCH   4   5
ENDBRANCH   1   4
BRANCH   1  15
HETATM   15  C   UNL     1      27.740  42.640  51.315  1.00  0.00     0.312 C 
BRANCH  15  16
HETATM   16  C   UNL     1      27.515  41.133  50.984  1.00  0.00     0.251 C 
HETATM   17  N   UNL     1      28.553  40.418  50.452  1.00  0.00    -0.368 N 
HETATM   18  H   UNL     1      29.526  40.666  50.601  1.00  0.00     0.159 HD
HETATM   19  H   UNL     1      28.376  39.431  50.287  1.00  0.00     0.159 HD
HETATM   20  O   UNL     1      26.395  40.628  51.039  1.00  0.00    -0.271 OA
ENDBRANCH  15  16
BRANCH  15  21
HETATM   21  C   UNL     1      26.624  43.566  50.819  1.00  0.00    -0.016 A 
HETATM   22  C   UNL     1      26.107  44.626  51.582  1.00  0.00     0.052 A 
HETATM   23  C   UNL     1      25.100  45.445  51.071  1.00  0.00     0.117 A 
HETATM   24  F   UNL     1      24.618  46.432  51.834  1.00  0.00    -0.206 F 
HETATM   25  C   UNL     1      24.593  45.253  49.796  1.00  0.00     0.042 A 
HETATM   26  C   UNL     1      25.116  44.236  49.006  1.00  0.00     0.004 A 
HETATM   27  C   UNL     1      26.130  43.411  49.506  1.00  0.00     0.010 A 
ENDBRANCH  15  21
ENDBRANCH   1  15
TORSDOF 6
ENDMDL
MODEL 5
REMARK VINA RESULT:      -7.9      2.305      6.855
REMARK  6 active torsions:
REMARK  status: ('A' for Active; 'I' for Inactive)
REMARK    1  A    between atoms: C_6  and  O_7 
REMARK    2  A    between atoms: C_8  and  C_9 
REMARK    3  A    between atoms: C_9  and  N_10 
REMARK    4  A    between atoms: N_10  and  C_12 
REMARK    5  A    between atoms: C_12  and  C_13 
REMARK    6  A    between atoms: C_12  and  C_16 
REMARK       I    between atoms: C_13  and  N_14 
ROOT
HETATM    1  N   UNL     1      27.219  44.039  52.651  1.00  0.00    -0.054 N 
HETATM    2  H   UNL     1      27.482  45.010  52.872  1.00  0.00     0.281 HD
HETATM    3  C   UNL     1      27.699  43.698  51.270  1.00  0.00     0.271 C 
ENDROOT
BRANCH   1   4
HETATM    4  C   UNL     1      25.698  44.098  52.710  1.00  0.00     0.277 C 
BRANCH   4   5
HETATM    5  C   UNL     1      25.136  45.127  51.767  1.00  0.00     0.001 A 
HETATM    6  C   UNL     1      25.465  46.477  51.904  1.00  0.00     0.074 A 
HETATM    7  C   UNL     1      24.989  47.431  51.009  1.00  0.00     0.044 A 
HETATM    8  C   UNL     1      24.173  47.043  49.935  1.00  0.00    -0.053 A 
HETATM    9  C   UNL     1      23.809  45.688  49.794  1.00  0.00    -0.055 A 
HETATM   10  C   UNL     1      23.690  48.088  48.963  1.00  0.00     0.049 C 
HETATM   11  C   UNL     1      22.950  45.219  48.649  1.00  0.00     0.049 C 
HETATM   12  C   UNL     1      24.297  44.743  50.712  1.00  0.00     0.019 A 
BRANCH   6  13
HETATM   13  O   UNL     1      26.317  46.835  52.915  1.00  0.00    -0.360 OA
HETATM   14  H   UNL     1      26.654  47.732  52.711  1.00  0.00     0.217 HD
ENDBRANCH   6  13
ENDBRANCH   4   5
ENDBRANCH   1   4
BRANCH   1  15
HETATM   15  C   UNL     1      27.797  43.150  53.764  1.00  0.00     0.312 C 
BRANCH  15  16
HETATM   16  C   UNL     1      28.260  41.787  53.165  1.00  0.00     0.251 C 
HETATM   17  N   UNL     1      27.443  40.699  53.308  1.00  0.00    -0.368 N 
HETATM   18  H   UNL     1      26.438  40.776  53.426  1.00  0.00     0.159 HD
HETATM   19  H   UNL     1      27.764  39.840  52.870  1.00  0.00     0.159 HD
HETATM   20  O   UNL     1      29.396  41.639  52.719  1.00  0.00    -0.271 OA
ENDBRANCH  15  16
BRANCH  15  21
HETATM   21  C   UNL     1      28.827  43.816  54.681  1.00  0.00    -0.016 A 
HETATM   22  C   UNL     1      29.954  43.147  55.187  1.00  0.00     0.052 A 
HETATM   23  C   UNL     1      30.866  43.812  56.008  1.00  0.00     0.117 A 
HETATM   24  F   UNL     1      31.917  43.137  56.487  1.00  0.00    -0.206 F 
HETATM   25  C   UNL     1      30.702  45.148  56.334  1.00  0.00     0.042 A 
HETATM   26  C   UNL     1      29.616  45.843  55.813  1.00  0.00     0.004 A 
HETATM   27  C   UNL     1      28.698  45.189  54.985  1.00  0.00     0.010 A 
ENDBRANCH  15  21
ENDBRANCH   1  15
TORSDOF 6
ENDMDL
MODEL 6
REMARK VINA RESULT:      -7.8      1.730      2.186
REMARK  6 active torsions:
REMARK  status: ('A' for Active; 'I' for Inactive)
REMARK    1  A    between atoms: C_6  and  O_7 
REMARK    2  A    between atoms: C_8  and  C_9 
REMARK    3  A    between atoms: C_9  and  N_10 
REMARK    4  A    between atoms: N_10  and  C_12 
REMARK    5  A    between atoms: C_12  and  C_13 
REMARK    6  A    between atoms: C_12  and  C_16 
REMARK       I    between atoms: C_13  and  N_14 
ROOT
HETATM    1  N   UNL     1      27.019  42.712  51.664  1.00  0.00    -0.054 N 
HETATM    2  H   UNL     1      26.680  43.039  52.579  1.00  0.00     0.281 HD
HETATM    3  C   UNL     1      26.978  41.210  51.629  1.00  0.00     0.271 C 
ENDROOT
BRANCH   1   4
HETATM    4  C   UNL     1      28.452  43.227  51.650  1.00  0.00     0.277 C 
BRANCH   4   5
HETATM    5  C   UNL     1      28.912  43.652  53.018  1.00  0.00     0.001 A 
HETATM    6  C   UNL     1      29.996  43.025  53.635  1.00  0.00     0.074 A 
HETATM    7  C   UNL     1      30.460  43.442  54.879  1.00  0.00     0.044 A 
HETATM    8  C   UNL     1      29.846  44.521  55.533  1.00  0.00    -0.053 A 
HETATM    9  C   UNL     1      28.734  45.151  54.939  1.00  0.00    -0.055 A 
HETATM   10  C   UNL     1      30.380  44.972  56.868  1.00  0.00     0.049 C 
HETATM   11  C   UNL     1      28.050  46.323  55.593  1.00  0.00     0.049 C 
HETATM   12  C   UNL     1      28.280  44.710  53.685  1.00  0.00     0.019 A 
BRANCH   6  13
HETATM   13  O   UNL     1      30.631  42.018  52.957  1.00  0.00    -0.360 OA
HETATM   14  H   UNL     1      30.862  41.325  53.610  1.00  0.00     0.217 HD
ENDBRANCH   6  13
ENDBRANCH   4   5
ENDBRANCH   1   4
BRANCH   1  15
HETATM   15  C   UNL     1      26.159  43.397  50.590  1.00  0.00     0.312 C 
BRANCH  15  16
HETATM   16  C   UNL     1      24.742  42.745  50.553  1.00  0.00     0.251 C 
HETATM   17  N   UNL     1      24.297  42.217  49.371  1.00  0.00    -0.368 N 
HETATM   18  H   UNL     1      24.924  41.881  48.648  1.00  0.00     0.159 HD
HETATM   19  H   UNL     1      23.386  41.768  49.400  1.00  0.00     0.159 HD
HETATM   20  O   UNL     1      23.970  42.843  51.504  1.00  0.00    -0.271 OA
ENDBRANCH  15  16
BRANCH  15  21
HETATM   21  C   UNL     1      26.145  44.928  50.624  1.00  0.00    -0.016 A 
HETATM   22  C   UNL     1      26.796  45.725  49.668  1.00  0.00     0.052 A 
HETATM   23  C   UNL     1      26.736  47.118  49.743  1.00  0.00     0.117 A 
HETATM   24  F   UNL     1      27.386  47.844  48.826  1.00  0.00    -0.206 F 
HETATM   25  C   UNL     1      26.024  47.755  50.745  1.00  0.00     0.042 A 
HETATM   26  C   UNL     1      25.338  46.989  51.681  1.00  0.00     0.004 A 
HETATM   27  C   UNL     1      25.386  45.592  51.612  1.00  0.00     0.010 A 
ENDBRANCH  15  21
ENDBRANCH   1  15
TORSDOF 6
ENDMDL
MODEL 7
REMARK VINA RESULT:      -7.8     12.323     14.577
REMARK  6 active torsions:
REMARK  status: ('A' for Active; 'I' for Inactive)
REMARK    1  A    between atoms: C_6  and  O_7 
REMARK    2  A    between atoms: C_8  and  C_9 
REMARK    3  A    between atoms: C_9  and  N_10 
REMARK    4  A    between atoms: N_10  and  C_12 
REMARK    5  A    between atoms: C_12  and  C_13 
REMARK    6  A    between atoms: C_12  and  C_16 
REMARK       I    between atoms: C_13  and  N_14 
ROOT
HETATM    1  N   UNL     1      27.526  48.404  39.136  1.00  0.00    -0.054 N 
HETATM    2  H   UNL     1      28.394  48.450  38.584  1.00  0.00     0.281 HD
HETATM    3  C   UNL     1      26.554  47.483  38.454  1.00  0.00     0.271 C 
ENDROOT
BRANCH   1   4
HETATM    4  C   UNL     1      27.043  49.847  39.095  1.00  0.00     0.277 C 
BRANCH   4   5
HETATM    5  C   UNL     1      28.137  50.818  39.448  1.00  0.00     0.001 A 
HETATM    6  C   UNL     1      27.975  51.729  40.493  1.00  0.00     0.074 A 
HETATM    7  C   UNL     1      28.997  52.600  40.858  1.00  0.00     0.044 A 
HETATM    8  C   UNL     1      30.226  52.564  40.182  1.00  0.00    -0.053 A 
HETATM    9  C   UNL     1      30.401  51.669  39.107  1.00  0.00    -0.055 A 
HETATM   10  C   UNL     1      31.329  53.497  40.611  1.00  0.00     0.049 C 
HETATM   11  C   UNL     1      31.707  51.581  38.360  1.00  0.00     0.049 C 
HETATM   12  C   UNL     1      29.354  50.803  38.753  1.00  0.00     0.019 A 
BRANCH   6  13
HETATM   13  O   UNL     1      26.795  51.709  41.190  1.00  0.00    -0.360 OA
HETATM   14  H   UNL     1      26.923  51.123  41.965  1.00  0.00     0.217 HD
ENDBRANCH   6  13
ENDBRANCH   4   5
ENDBRANCH   1   4
BRANCH   1  15
HETATM   15  C   UNL     1      27.917  47.975  40.559  1.00  0.00     0.312 C 
BRANCH  15  16
HETATM   16  C   UNL     1      27.346  46.555  40.860  1.00  0.00     0.251 C 
HETATM   17  N   UNL     1      26.259  46.449  41.684  1.00  0.00    -0.368 N 
HETATM   18  H   UNL     1      25.585  47.197  41.805  1.00  0.00     0.159 HD
HETATM   19  H   UNL     1      25.896  45.510  41.822  1.00  0.00     0.159 HD
HETATM   20  O   UNL     1      27.944  45.540  40.508  1.00  0.00    -0.271 OA
ENDBRANCH  15  16
BRANCH  15  21
HETATM   21  C   UNL     1      29.394  48.149  40.925  1.00  0.00    -0.016 A 
HETATM   22  C   UNL     1      29.827  48.822  42.080  1.00  0.00     0.052 A 
HETATM   23  C   UNL     1      31.188  48.936  42.368  1.00  0.00     0.117 A 
HETATM   24  F   UNL     1      31.564  49.601  43.466  1.00  0.00    -0.206 F 
HETATM   25  C   UNL     1      32.149  48.379  41.540  1.00  0.00     0.042 A 
HETATM   26  C   UNL     1      31.744  47.674  40.412  1.00  0.00     0.004 A 
HETATM   27  C   UNL     1      30.383  47.548  40.116  1.00  0.00     0.010 A 
ENDBRANCH  15  21
ENDBRANCH   1  15
TORSDOF 6
ENDMDL
MODEL 8
REMARK VINA RESULT:      -7.7      1.967      3.526
REMARK  6 active torsions:
REMARK  status: ('A' for Active; 'I' for Inactive)
REMARK    1  A    between atoms: C_6  and  O_7 
REMARK    2  A    between atoms: C_8  and  C_9 
REMARK    3  A    between atoms: C_9  and  N_10 
REMARK    4  A    between atoms: N_10  and  C_12 
REMARK    5  A    between atoms: C_12  and  C_13 
REMARK    6  A    between atoms: C_12  and  C_16 
REMARK       I    between atoms: C_13  and  N_14 
ROOT
HETATM    1  N   UNL     1      25.272  45.062  51.715  1.00  0.00    -0.054 N 
HETATM    2  H   UNL     1      25.204  45.864  52.358  1.00  0.00     0.281 HD
HETATM    3  C   UNL     1      23.905  44.740  51.180  1.00  0.00     0.271 C 
ENDROOT
BRANCH   1   4
HETATM    4  C   UNL     1      25.782  43.958  52.631  1.00  0.00     0.277 C 
BRANCH   4   5
HETATM    5  C   UNL     1      26.904  44.432  53.514  1.00  0.00     0.001 A 
HETATM    6  C   UNL     1      26.758  45.570  54.308  1.00  0.00     0.074 A 
HETATM    7  C   UNL     1      27.772  45.990  55.164  1.00  0.00     0.044 A 
HETATM    8  C   UNL     1      28.965  45.258  55.254  1.00  0.00    -0.053 A 
HETATM    9  C   UNL     1      29.143  44.119  54.442  1.00  0.00    -0.055 A 
HETATM   10  C   UNL     1      30.039  45.715  56.206  1.00  0.00     0.049 C 
HETATM   11  C   UNL     1      30.399  43.289  54.513  1.00  0.00     0.049 C 
HETATM   12  C   UNL     1      28.108  43.717  53.581  1.00  0.00     0.019 A 
BRANCH   6  13
HETATM   13  O   UNL     1      25.563  46.239  54.263  1.00  0.00    -0.360 OA
HETATM   14  H   UNL     1      24.883  45.605  53.954  1.00  0.00     0.217 HD
ENDBRANCH   6  13
ENDBRANCH   4   5
ENDBRANCH   1   4
BRANCH   1  15
HETATM   15  C   UNL     1      26.305  45.431  50.639  1.00  0.00     0.312 C 
BRANCH  15  16
HETATM   16  C   UNL     1      26.408  44.283  49.588  1.00  0.00     0.251 C 
HETATM   17  N   UNL     1      25.378  44.112  48.704  1.00  0.00    -0.368 N 
HETATM   18  H   UNL     1      24.757  44.866  48.430  1.00  0.00     0.159 HD
HETATM   19  H   UNL     1      25.502  43.378  48.012  1.00  0.00     0.159 HD
HETATM   20  O   UNL     1      27.305  43.443  49.646  1.00  0.00    -0.271 OA
ENDBRANCH  15  16
BRANCH  15  21
HETATM   21  C   UNL     1      26.163  46.829  50.030  1.00  0.00    -0.016 A 
HETATM   22  C   UNL     1      27.261  47.621  49.654  1.00  0.00     0.052 A 
HETATM   23  C   UNL     1      27.067  48.883  49.090  1.00  0.00     0.117 A 
HETATM   24  F   UNL     1      28.137  49.617  48.764  1.00  0.00    -0.206 F 
HETATM   25  C   UNL     1      25.795  49.386  48.868  1.00  0.00     0.042 A 
HETATM   26  C   UNL     1      24.693  48.605  49.194  1.00  0.00     0.004 A 
HETATM   27  C   UNL     1      24.874  47.336  49.755  1.00  0.00     0.010 A 
ENDBRANCH  15  21
ENDBRANCH   1  15
TORSDOF 6
ENDMDL
MODEL 9
REMARK VINA RESULT:      -7.7      2.543      6.863
REMARK  6 active torsions:
REMARK  status: ('A' for Active; 'I' for Inactive)
REMARK    1  A    between atoms: C_6  and  O_7 
REMARK    2  A    between atoms: C_8  and  C_9 
REMARK    3  A    between atoms: C_9  and  N_10 
REMARK    4  A    between atoms: N_10  and  C_12 
REMARK    5  A    between atoms: C_12  and  C_13 
REMARK    6  A    between atoms: C_12  and  C_16 
REMARK       I    between atoms: C_13  and  N_14 
ROOT
HETATM    1  N   UNL     1      26.077  45.422  52.226  1.00  0.00    -0.054 N 
HETATM    2  H   UNL     1      25.062  45.465  52.065  1.00  0.00     0.281 HD
HETATM    3  C   UNL     1      26.479  46.532  53.155  1.00  0.00     0.271 C 
ENDROOT
BRANCH   1   4
HETATM    4  C   UNL     1      26.634  45.642  50.827  1.00  0.00     0.277 C 
BRANCH   4   5
HETATM    5  C   UNL     1      25.949  46.779  50.119  1.00  0.00     0.001 A 
HETATM    6  C   UNL     1      24.560  46.802  49.981  1.00  0.00     0.074 A 
HETATM    7  C   UNL     1      23.912  47.871  49.370  1.00  0.00     0.044 A 
HETATM    8  C   UNL     1      24.653  48.962  48.891  1.00  0.00    -0.053 A 
HETATM    9  C   UNL     1      26.058  48.946  48.996  1.00  0.00    -0.055 A 
HETATM   10  C   UNL     1      23.929  50.121  48.255  1.00  0.00     0.049 C 
HETATM   11  C   UNL     1      26.898  50.100  48.512  1.00  0.00     0.049 C 
HETATM   12  C   UNL     1      26.692  47.854  49.613  1.00  0.00     0.019 A 
BRANCH   6  13
HETATM   13  O   UNL     1      23.841  45.764  50.514  1.00  0.00    -0.360 OA
HETATM   14  H   UNL     1      23.566  45.186  49.772  1.00  0.00     0.217 HD
ENDBRANCH   6  13
ENDBRANCH   4   5
ENDBRANCH   1   4
BRANCH   1  15
HETATM   15  C   UNL     1      26.393  44.011  52.749  1.00  0.00     0.312 C 
BRANCH  15  16
HETATM   16  C   UNL     1      25.919  42.945  51.714  1.00  0.00     0.251 C 
HETATM   17  N   UNL     1      24.585  42.870  51.419  1.00  0.00    -0.368 N 
HETATM   18  H   UNL     1      23.954  43.658  51.515  1.00  0.00     0.159 HD
HETATM   19  H   UNL     1      24.324  42.188  50.711  1.00  0.00     0.159 HD
HETATM   20  O   UNL     1      26.685  42.080  51.292  1.00  0.00    -0.271 OA
ENDBRANCH  15  16
BRANCH  15  21
HETATM   21  C   UNL     1      27.820  43.796  53.264  1.00  0.00    -0.016 A 
HETATM   22  C   UNL     1      28.235  44.157  54.557  1.00  0.00     0.052 A 
HETATM   23  C   UNL     1      29.545  43.922  54.975  1.00  0.00     0.117 A 
HETATM   24  F   UNL     1      29.909  44.298  56.206  1.00  0.00    -0.206 F 
HETATM   25  C   UNL     1      30.469  43.313  54.141  1.00  0.00     0.042 A 
HETATM   26  C   UNL     1      30.073  42.910  52.871  1.00  0.00     0.004 A 
HETATM   27  C   UNL     1      28.760  43.135  52.443  1.00  0.00     0.010 A 
ENDBRANCH  15  21
ENDBRANCH   1  15
TORSDOF 6
ENDMDL
MODEL 10
REMARK VINA RESULT:      -7.6      1.917      2.741
REMARK  6 active torsions:
REMARK  status: ('A' for Active; 'I' for Inactive)
REMARK    1  A    between atoms: C_6  and  O_7 
REMARK    2  A    between atoms: C_8  and  C_9 
REMARK    3  A    between atoms: C_9  and  N_10 
REMARK    4  A    between atoms: N_10  and  C_12 
REMARK    5  A    between atoms: C_12  and  C_13 
REMARK    6  A    between atoms: C_12  and  C_16 
REMARK       I    between atoms: C_13  and  N_14 
ROOT
HETATM    1  N   UNL     1      26.508  44.628  51.851  1.00  0.00    -0.054 N 
HETATM    2  H   UNL     1      27.152  45.347  52.208  1.00  0.00     0.281 HD
HETATM    3  C   UNL     1      25.216  44.697  52.615  1.00  0.00     0.271 C 
ENDROOT
BRANCH   1   4
HETATM    4  C   UNL     1      27.262  43.341  52.153  1.00  0.00     0.277 C 
BRANCH   4   5
HETATM    5  C   UNL     1      28.271  43.524  53.255  1.00  0.00     0.001 A 
HETATM    6  C   UNL     1      29.371  42.672  53.367  1.00  0.00     0.074 A 
HETATM    7  C   UNL     1      30.334  42.861  54.353  1.00  0.00     0.044 A 
HETATM    8  C   UNL     1      30.220  43.932  55.252  1.00  0.00    -0.053 A 
HETATM    9  C   UNL     1      29.103  44.788  55.174  1.00  0.00    -0.055 A 
HETATM   10  C   UNL     1      31.287  44.133  56.297  1.00  0.00     0.049 C 
HETATM   11  C   UNL     1      28.942  45.961  56.105  1.00  0.00     0.049 C 
HETATM   12  C   UNL     1      28.140  44.576  54.173  1.00  0.00     0.019 A 
BRANCH   6  13
HETATM   13  O   UNL     1      29.509  41.671  52.441  1.00  0.00    -0.360 OA
HETATM   14  H   UNL     1      30.248  41.099  52.735  1.00  0.00     0.217 HD
ENDBRANCH   6  13
ENDBRANCH   4   5
ENDBRANCH   1   4
BRANCH   1  15
HETATM   15  C   UNL     1      26.364  44.861  50.338  1.00  0.00     0.312 C 
BRANCH  15  16
HETATM   16  C   UNL     1      25.638  43.647  49.682  1.00  0.00     0.251 C 
HETATM   17  N   UNL     1      26.294  42.939  48.712  1.00  0.00    -0.368 N 
HETATM   18  H   UNL     1      27.306  42.894  48.653  1.00  0.00     0.159 HD
HETATM   19  H   UNL     1      25.801  42.133  48.339  1.00  0.00     0.159 HD
HETATM   20  O   UNL     1      24.449  43.421  49.901  1.00  0.00    -0.271 OA
ENDBRANCH  15  16
BRANCH  15  21
HETATM   21  C   UNL     1      25.805  46.226  49.925  1.00  0.00    -0.016 A 
HETATM   22  C   UNL     1      24.430  46.502  49.839  1.00  0.00     0.052 A 
HETATM   23  C   UNL     1      23.981  47.771  49.470  1.00  0.00     0.117 A 
HETATM   24  F   UNL     1      22.665  47.990  49.379  1.00  0.00    -0.206 F 
HETATM   25  C   UNL     1      24.870  48.798  49.196  1.00  0.00     0.042 A 
HETATM   26  C   UNL     1      26.234  48.562  49.313  1.00  0.00     0.004 A 
HETATM   27  C   UNL     1      26.697  47.295  49.687  1.00  0.00     0.010 A 
ENDBRANCH  15  21
ENDBRANCH   1  15
TORSDOF 6
ENDMDL
