MODEL 1
REMARK VINA RESULT:     -10.2      0.000      0.000
REMARK  5 active torsions:
REMARK  status: ('A' for Active; 'I' for Inactive)
REMARK    1  A    between atoms: C_4  and  C_5 
REMARK    2  A    between atoms: C_10  and  C_11 
REMARK    3  A    between atoms: N_12  and  N_13 
REMARK       I    between atoms: N_13  and  C_14 
REMARK    4  A    between atoms: C_14  and  C_15 
REMARK    5  A    between atoms: C_16  and  O_17 
ROOT
HETATM    1  C   UNL     1      28.268  44.980  54.439  1.00  0.00     0.055 A 
HETATM    2  N   UNL     1      28.465  45.629  55.636  1.00  0.00    -0.354 N 
HETATM    3  H   UNL     1      27.884  46.378  55.984  1.00  0.00     0.166 HD
HETATM    4  C   UNL     1      29.538  45.105  56.312  1.00  0.00     0.043 A 
HETATM    5  C   UNL     1      30.055  44.077  55.523  1.00  0.00     0.005 A 
HETATM    6  C   UNL     1      29.254  44.004  54.333  1.00  0.00     0.023 A 
HETATM    7  C   UNL     1      30.080  45.462  57.553  1.00  0.00     0.030 A 
HETATM    8  C   UNL     1      31.192  44.746  58.005  1.00  0.00     0.002 A 
HETATM    9  C   UNL     1      31.735  43.715  57.245  1.00  0.00     0.001 A 
HETATM   10  C   UNL     1      31.179  43.372  56.007  1.00  0.00     0.014 A 
ENDROOT
BRANCH   6  11
HETATM   11  C   UNL     1      29.405  43.117  53.194  1.00  0.00     0.153 C 
HETATM   12  N   UNL     1      29.055  41.875  53.287  1.00  0.00    -0.183 NA
BRANCH  12  13
HETATM   13  N   UNL     1      29.232  41.114  52.168  1.00  0.00    -0.243 N 
HETATM   14  C   UNL     1      28.131  40.773  51.399  1.00  0.00     0.274 C 
HETATM   15  O   UNL     1      26.974  41.133  51.613  1.00  0.00    -0.266 OA
HETATM   16  H   UNL     1      30.174  40.914  51.855  1.00  0.00     0.192 HD
BRANCH  14  17
HETATM   17  C   UNL     1      28.399  39.955  50.185  1.00  0.00     0.066 A 
HETATM   18  C   UNL     1      29.062  38.724  50.319  1.00  0.00     0.081 A 
HETATM   19  C   UNL     1      29.305  37.924  49.205  1.00  0.00     0.037 A 
HETATM   20  C   UNL     1      28.909  38.354  47.939  1.00  0.00     0.003 A 
HETATM   21  C   UNL     1      28.278  39.588  47.787  1.00  0.00     0.001 A 
HETATM   22  C   UNL     1      28.026  40.391  48.905  1.00  0.00     0.020 A 
BRANCH  18  23
HETATM   23  O   UNL     1      29.504  38.239  51.522  1.00  0.00    -0.360 OA
HETATM   24  H   UNL     1      30.464  38.041  51.431  1.00  0.00     0.217 HD
ENDBRANCH  18  23
ENDBRANCH  14  17
ENDBRANCH  12  13
ENDBRANCH   6  11
BRANCH   1  25
HETATM   25  C   UNL     1      27.163  45.343  53.555  1.00  0.00    -0.009 A 
HETATM   26  C   UNL     1      26.860  46.689  53.316  1.00  0.00     0.014 A 
HETATM   27  C   UNL     1      25.800  47.036  52.475  1.00  0.00     0.001 A 
HETATM   28  C   UNL     1      25.038  46.039  51.867  1.00  0.00     0.000 A 
HETATM   29  C   UNL     1      25.331  44.696  52.101  1.00  0.00     0.001 A 
HETATM   30  C   UNL     1      26.389  44.349  52.943  1.00  0.00     0.014 A 
ENDBRANCH   1  25
TORSDOF 5
ENDMDL
MODEL 2
REMARK VINA RESULT:      -9.9      0.836      1.664
REMARK  5 active torsions:
REMARK  status: ('A' for Active; 'I' for Inactive)
REMARK    1  A    between atoms: C_4  and  C_5 
REMARK    2  A    between atoms: C_10  and  C_11 
REMARK    3  A    between atoms: N_12  and  N_13 
REMARK       I    between atoms: N_13  and  C_14 
REMARK    4  A    between atoms: C_14  and  C_15 
REMARK    5  A    between atoms: C_16  and  O_17 
ROOT
HETATM    1  C   UNL     1      28.211  45.079  54.482  1.00  0.00     0.055 A 
HETATM    2  N   UNL     1      28.417  45.709  55.688  1.00  0.00    -0.354 N 
HETATM    3  H   UNL     1      27.841  46.455  56.050  1.00  0.00     0.166 HD
HETATM    4  C   UNL     1      29.492  45.171  56.349  1.00  0.00     0.043 A 
HETATM    5  C   UNL     1      30.001  44.154  55.542  1.00  0.00     0.005 A 
HETATM    6  C   UNL     1      29.193  44.100  54.356  1.00  0.00     0.023 A 
HETATM    7  C   UNL     1      30.043  45.508  57.592  1.00  0.00     0.030 A 
HETATM    8  C   UNL     1      31.155  44.782  58.027  1.00  0.00     0.002 A 
HETATM    9  C   UNL     1      31.690  43.761  57.249  1.00  0.00     0.001 A 
HETATM   10  C   UNL     1      31.125  43.437  56.010  1.00  0.00     0.014 A 
ENDROOT
BRANCH   6  11
HETATM   11  C   UNL     1      29.335  43.230  53.204  1.00  0.00     0.153 C 
HETATM   12  N   UNL     1      28.912  42.009  53.257  1.00  0.00    -0.183 NA
BRANCH  12  13
HETATM   13  N   UNL     1      29.086  41.262  52.127  1.00  0.00    -0.243 N 
HETATM   14  C   UNL     1      27.999  41.016  51.304  1.00  0.00     0.274 C 
HETATM   15  O   UNL     1      26.861  41.451  51.477  1.00  0.00    -0.266 OA
HETATM   16  H   UNL     1      30.025  41.003  51.850  1.00  0.00     0.192 HD
BRANCH  14  17
HETATM   17  C   UNL     1      28.264  40.208  50.082  1.00  0.00     0.066 A 
HETATM   18  C   UNL     1      27.946  40.742  48.823  1.00  0.00     0.081 A 
HETATM   19  C   UNL     1      28.206  40.021  47.660  1.00  0.00     0.037 A 
HETATM   20  C   UNL     1      28.764  38.747  47.741  1.00  0.00     0.003 A 
HETATM   21  C   UNL     1      29.056  38.191  48.986  1.00  0.00     0.001 A 
HETATM   22  C   UNL     1      28.804  38.915  50.156  1.00  0.00     0.020 A 
BRANCH  18  23
HETATM   23  O   UNL     1      27.374  41.976  48.656  1.00  0.00    -0.360 OA
HETATM   24  H   UNL     1      27.567  42.508  49.462  1.00  0.00     0.217 HD
ENDBRANCH  18  23
ENDBRANCH  14  17
ENDBRANCH  12  13
ENDBRANCH   6  11
BRANCH   1  25
HETATM   25  C   UNL     1      27.103  45.459  53.610  1.00  0.00    -0.009 A 
HETATM   26  C   UNL     1      26.244  44.483  53.089  1.00  0.00     0.014 A 
HETATM   27  C   UNL     1      25.188  44.847  52.251  1.00  0.00     0.001 A 
HETATM   28  C   UNL     1      24.983  46.188  51.929  1.00  0.00     0.000 A 
HETATM   29  C   UNL     1      25.835  47.166  52.442  1.00  0.00     0.001 A 
HETATM   30  C   UNL     1      26.892  46.803  53.278  1.00  0.00     0.014 A 
ENDBRANCH   1  25
TORSDOF 5
ENDMDL
MODEL 3
REMARK VINA RESULT:      -9.1      1.503      1.911
REMARK  5 active torsions:
REMARK  status: ('A' for Active; 'I' for Inactive)
REMARK    1  A    between atoms: C_4  and  C_5 
REMARK    2  A    between atoms: C_10  and  C_11 
REMARK    3  A    between atoms: N_12  and  N_13 
REMARK       I    between atoms: N_13  and  C_14 
REMARK    4  A    between atoms: C_14  and  C_15 
REMARK    5  A    between atoms: C_16  and  O_17 
ROOT
HETATM    1  C   UNL     1      27.530  44.633  53.182  1.00  0.00     0.055 A 
HETATM    2  N   UNL     1      27.772  45.426  54.280  1.00  0.00    -0.354 N 
HETATM    3  H   UNL     1      27.213  46.223  54.546  1.00  0.00     0.166 HD
HETATM    4  C   UNL     1      28.858  44.972  54.987  1.00  0.00     0.043 A 
HETATM    5  C   UNL     1      29.335  43.843  54.321  1.00  0.00     0.005 A 
HETATM    6  C   UNL     1      28.498  43.633  53.174  1.00  0.00     0.023 A 
HETATM    7  C   UNL     1      29.443  45.475  56.156  1.00  0.00     0.030 A 
HETATM    8  C   UNL     1      30.557  44.802  56.664  1.00  0.00     0.002 A 
HETATM    9  C   UNL     1      31.062  43.673  56.027  1.00  0.00     0.001 A 
HETATM   10  C   UNL     1      30.463  43.185  54.860  1.00  0.00     0.014 A 
ENDROOT
BRANCH   6  11
HETATM   11  C   UNL     1      28.601  42.606  52.154  1.00  0.00     0.153 C 
HETATM   12  N   UNL     1      28.028  41.459  52.328  1.00  0.00    -0.183 NA
BRANCH  12  13
HETATM   13  N   UNL     1      28.178  40.553  51.318  1.00  0.00    -0.243 N 
HETATM   14  C   UNL     1      27.081  40.221  50.537  1.00  0.00     0.274 C 
HETATM   15  O   UNL     1      25.957  40.709  50.645  1.00  0.00    -0.266 OA
HETATM   16  H   UNL     1      29.108  40.231  51.081  1.00  0.00     0.192 HD
BRANCH  14  17
HETATM   17  C   UNL     1      27.320  39.238  49.446  1.00  0.00     0.066 A 
HETATM   18  C   UNL     1      27.986  39.653  48.281  1.00  0.00     0.081 A 
HETATM   19  C   UNL     1      28.247  38.751  47.253  1.00  0.00     0.037 A 
HETATM   20  C   UNL     1      27.824  37.428  47.364  1.00  0.00     0.003 A 
HETATM   21  C   UNL     1      27.133  37.009  48.500  1.00  0.00     0.001 A 
HETATM   22  C   UNL     1      26.876  37.911  49.538  1.00  0.00     0.020 A 
BRANCH  18  23
HETATM   23  O   UNL     1      28.415  40.940  48.082  1.00  0.00    -0.360 OA
HETATM   24  H   UNL     1      29.209  41.082  48.648  1.00  0.00     0.217 HD
ENDBRANCH  18  23
ENDBRANCH  14  17
ENDBRANCH  12  13
ENDBRANCH   6  11
BRANCH   1  25
HETATM   25  C   UNL     1      26.404  44.901  52.290  1.00  0.00    -0.009 A 
HETATM   26  C   UNL     1      26.254  46.160  51.697  1.00  0.00     0.014 A 
HETATM   27  C   UNL     1      25.174  46.417  50.849  1.00  0.00     0.001 A 
HETATM   28  C   UNL     1      24.239  45.417  50.588  1.00  0.00     0.000 A 
HETATM   29  C   UNL     1      24.379  44.161  51.177  1.00  0.00     0.001 A 
HETATM   30  C   UNL     1      25.457  43.904  52.026  1.00  0.00     0.014 A 
ENDBRANCH   1  25
TORSDOF 5
ENDMDL
MODEL 4
REMARK VINA RESULT:      -8.8      3.666      7.123
REMARK  5 active torsions:
REMARK  status: ('A' for Active; 'I' for Inactive)
REMARK    1  A    between atoms: C_4  and  C_5 
REMARK    2  A    between atoms: C_10  and  C_11 
REMARK    3  A    between atoms: N_12  and  N_13 
REMARK       I    between atoms: N_13  and  C_14 
REMARK    4  A    between atoms: C_14  and  C_15 
REMARK    5  A    between atoms: C_16  and  O_17 
ROOT
HETATM    1  C   UNL     1      27.530  43.346  52.324  1.00  0.00     0.055 A 
HETATM    2  N   UNL     1      28.525  42.898  53.162  1.00  0.00    -0.354 N 
HETATM    3  H   UNL     1      28.977  41.998  53.085  1.00  0.00     0.166 HD
HETATM    4  C   UNL     1      28.846  43.847  54.100  1.00  0.00     0.043 A 
HETATM    5  C   UNL     1      28.029  44.951  53.860  1.00  0.00     0.005 A 
HETATM    6  C   UNL     1      27.191  44.630  52.739  1.00  0.00     0.023 A 
HETATM    7  C   UNL     1      29.793  43.807  55.132  1.00  0.00     0.030 A 
HETATM    8  C   UNL     1      29.909  44.934  55.949  1.00  0.00     0.002 A 
HETATM    9  C   UNL     1      29.109  46.054  55.740  1.00  0.00     0.001 A 
HETATM   10  C   UNL     1      28.170  46.075  54.703  1.00  0.00     0.014 A 
ENDROOT
BRANCH   6  11
HETATM   11  C   UNL     1      26.155  45.440  52.122  1.00  0.00     0.153 C 
HETATM   12  N   UNL     1      26.477  46.444  51.374  1.00  0.00    -0.183 NA
BRANCH  12  13
HETATM   13  N   UNL     1      25.439  47.149  50.835  1.00  0.00    -0.243 N 
HETATM   14  C   UNL     1      25.645  47.876  49.673  1.00  0.00     0.274 C 
HETATM   15  O   UNL     1      26.697  47.918  49.036  1.00  0.00    -0.266 OA
HETATM   16  H   UNL     1      24.512  47.034  51.225  1.00  0.00     0.192 HD
BRANCH  14  17
HETATM   17  C   UNL     1      24.467  48.608  49.133  1.00  0.00     0.066 A 
HETATM   18  C   UNL     1      23.221  47.963  49.083  1.00  0.00     0.081 A 
HETATM   19  C   UNL     1      22.094  48.631  48.608  1.00  0.00     0.037 A 
HETATM   20  C   UNL     1      22.203  49.944  48.154  1.00  0.00     0.003 A 
HETATM   21  C   UNL     1      23.441  50.586  48.168  1.00  0.00     0.001 A 
HETATM   22  C   UNL     1      24.572  49.922  48.652  1.00  0.00     0.020 A 
BRANCH  18  23
HETATM   23  O   UNL     1      23.031  46.668  49.489  1.00  0.00    -0.360 OA
HETATM   24  H   UNL     1      22.132  46.391  49.199  1.00  0.00     0.217 HD
ENDBRANCH  18  23
ENDBRANCH  14  17
ENDBRANCH  12  13
ENDBRANCH   6  11
BRANCH   1  25
HETATM   25  C   UNL     1      27.041  42.520  51.223  1.00  0.00    -0.009 A 
HETATM   26  C   UNL     1      26.924  43.054  49.934  1.00  0.00     0.014 A 
HETATM   27  C   UNL     1      26.451  42.265  48.883  1.00  0.00     0.001 A 
HETATM   28  C   UNL     1      26.091  40.938  49.114  1.00  0.00     0.000 A 
HETATM   29  C   UNL     1      26.202  40.399  50.396  1.00  0.00     0.001 A 
HETATM   30  C   UNL     1      26.673  41.187  51.447  1.00  0.00     0.014 A 
ENDBRANCH   1  25
TORSDOF 5
ENDMDL
MODEL 5
REMARK VINA RESULT:      -8.8      2.080      7.389
REMARK  5 active torsions:
REMARK  status: ('A' for Active; 'I' for Inactive)
REMARK    1  A    between atoms: C_4  and  C_5 
REMARK    2  A    between atoms: C_10  and  C_11 
REMARK    3  A    between atoms: N_12  and  N_13 
REMARK       I    between atoms: N_13  and  C_14 
REMARK    4  A    between atoms: C_14  and  C_15 
REMARK    5  A    between atoms: C_16  and  O_17 
ROOT
HETATM    1  C   UNL     1      26.964  42.009  50.085  1.00  0.00     0.055 A 
HETATM    2  N   UNL     1      26.541  41.300  48.984  1.00  0.00    -0.354 N 
HETATM    3  H   UNL     1      25.823  41.610  48.345  1.00  0.00     0.166 HD
HETATM    4  C   UNL     1      27.243  40.129  48.850  1.00  0.00     0.043 A 
HETATM    5  C   UNL     1      28.156  40.078  49.903  1.00  0.00     0.005 A 
HETATM    6  C   UNL     1      27.974  41.266  50.689  1.00  0.00     0.023 A 
HETATM    7  C   UNL     1      27.137  39.124  47.881  1.00  0.00     0.030 A 
HETATM    8  C   UNL     1      27.993  38.024  47.991  1.00  0.00     0.002 A 
HETATM    9  C   UNL     1      28.916  37.939  49.029  1.00  0.00     0.001 A 
HETATM   10  C   UNL     1      29.008  38.954  49.987  1.00  0.00     0.014 A 
ENDROOT
BRANCH   6  11
HETATM   11  C   UNL     1      28.665  41.663  51.902  1.00  0.00     0.153 C 
HETATM   12  N   UNL     1      27.989  42.000  52.952  1.00  0.00    -0.183 NA
BRANCH  12  13
HETATM   13  N   UNL     1      28.721  42.360  54.048  1.00  0.00    -0.243 N 
HETATM   14  C   UNL     1      29.045  43.694  54.237  1.00  0.00     0.274 C 
HETATM   15  O   UNL     1      28.694  44.623  53.510  1.00  0.00    -0.266 OA
HETATM   16  H   UNL     1      28.910  41.667  54.761  1.00  0.00     0.192 HD
BRANCH  14  17
HETATM   17  C   UNL     1      29.831  44.017  55.459  1.00  0.00     0.066 A 
HETATM   18  C   UNL     1      29.539  45.190  56.173  1.00  0.00     0.081 A 
HETATM   19  C   UNL     1      30.239  45.507  57.335  1.00  0.00     0.037 A 
HETATM   20  C   UNL     1      31.256  44.667  57.786  1.00  0.00     0.003 A 
HETATM   21  C   UNL     1      31.578  43.515  57.069  1.00  0.00     0.001 A 
HETATM   22  C   UNL     1      30.872  43.190  55.907  1.00  0.00     0.020 A 
BRANCH  18  23
HETATM   23  O   UNL     1      28.571  46.081  55.787  1.00  0.00    -0.360 OA
HETATM   24  H   UNL     1      28.841  46.459  54.919  1.00  0.00     0.217 HD
ENDBRANCH  18  23
ENDBRANCH  14  17
ENDBRANCH  12  13
ENDBRANCH   6  11
BRANCH   1  25
HETATM   25  C   UNL     1      26.383  43.307  50.417  1.00  0.00    -0.009 A 
HETATM   26  C   UNL     1      25.151  43.384  51.078  1.00  0.00     0.014 A 
HETATM   27  C   UNL     1      24.594  44.626  51.391  1.00  0.00     0.001 A 
HETATM   28  C   UNL     1      25.264  45.798  51.045  1.00  0.00     0.000 A 
HETATM   29  C   UNL     1      26.490  45.731  50.384  1.00  0.00     0.001 A 
HETATM   30  C   UNL     1      27.047  44.490  50.069  1.00  0.00     0.014 A 
ENDBRANCH   1  25
TORSDOF 5
ENDMDL
MODEL 6
REMARK VINA RESULT:      -8.5      4.359      8.771
REMARK  5 active torsions:
REMARK  status: ('A' for Active; 'I' for Inactive)
REMARK    1  A    between atoms: C_4  and  C_5 
REMARK    2  A    between atoms: C_10  and  C_11 
REMARK    3  A    between atoms: N_12  and  N_13 
REMARK       I    between atoms: N_13  and  C_14 
REMARK    4  A    between atoms: C_14  and  C_15 
REMARK    5  A    between atoms: C_16  and  O_17 
ROOT
HETATM    1  C   UNL     1      23.107  46.311  48.808  1.00  0.00     0.055 A 
HETATM    2  N   UNL     1      22.153  46.953  48.052  1.00  0.00    -0.354 N 
HETATM    3  H   UNL     1      21.462  46.485  47.484  1.00  0.00     0.166 HD
HETATM    4  C   UNL     1      22.245  48.315  48.192  1.00  0.00     0.043 A 
HETATM    5  C   UNL     1      23.297  48.564  49.074  1.00  0.00     0.005 A 
HETATM    6  C   UNL     1      23.847  47.295  49.458  1.00  0.00     0.023 A 
HETATM    7  C   UNL     1      21.479  49.332  47.610  1.00  0.00     0.030 A 
HETATM    8  C   UNL     1      21.798  50.653  47.937  1.00  0.00     0.002 A 
HETATM    9  C   UNL     1      22.841  50.940  48.812  1.00  0.00     0.001 A 
HETATM   10  C   UNL     1      23.595  49.909  49.385  1.00  0.00     0.014 A 
ENDROOT
BRANCH   6  11
HETATM   11  C   UNL     1      24.970  47.024  50.336  1.00  0.00     0.153 C 
HETATM   12  N   UNL     1      24.873  47.257  51.604  1.00  0.00    -0.183 NA
BRANCH  12  13
HETATM   13  N   UNL     1      25.978  46.973  52.354  1.00  0.00    -0.243 N 
HETATM   14  C   UNL     1      25.973  45.854  53.172  1.00  0.00     0.274 C 
HETATM   15  O   UNL     1      25.053  45.042  53.262  1.00  0.00    -0.266 OA
HETATM   16  H   UNL     1      26.822  47.515  52.211  1.00  0.00     0.192 HD
BRANCH  14  17
HETATM   17  C   UNL     1      27.216  45.596  53.949  1.00  0.00     0.066 A 
HETATM   18  C   UNL     1      27.882  44.370  53.794  1.00  0.00     0.081 A 
HETATM   19  C   UNL     1      29.062  44.110  54.488  1.00  0.00     0.037 A 
HETATM   20  C   UNL     1      29.578  45.062  55.365  1.00  0.00     0.003 A 
HETATM   21  C   UNL     1      28.910  46.271  55.554  1.00  0.00     0.001 A 
HETATM   22  C   UNL     1      27.729  46.539  54.852  1.00  0.00     0.020 A 
BRANCH  18  23
HETATM   23  O   UNL     1      27.431  43.372  52.970  1.00  0.00    -0.360 OA
HETATM   24  H   UNL     1      26.578  43.669  52.578  1.00  0.00     0.217 HD
ENDBRANCH  18  23
ENDBRANCH  14  17
ENDBRANCH  12  13
ENDBRANCH   6  11
BRANCH   1  25
HETATM   25  C   UNL     1      23.187  44.853  48.845  1.00  0.00    -0.009 A 
HETATM   26  C   UNL     1      23.562  44.136  47.702  1.00  0.00     0.014 A 
HETATM   27  C   UNL     1      23.634  42.741  47.736  1.00  0.00     0.001 A 
HETATM   28  C   UNL     1      23.332  42.056  48.912  1.00  0.00     0.000 A 
HETATM   29  C   UNL     1      22.955  42.762  50.054  1.00  0.00     0.001 A 
HETATM   30  C   UNL     1      22.882  44.156  50.020  1.00  0.00     0.014 A 
ENDBRANCH   1  25
TORSDOF 5
ENDMDL
MODEL 7
REMARK VINA RESULT:      -8.4      3.183      6.636
REMARK  5 active torsions:
REMARK  status: ('A' for Active; 'I' for Inactive)
REMARK    1  A    between atoms: C_4  and  C_5 
REMARK    2  A    between atoms: C_10  and  C_11 
REMARK    3  A    between atoms: N_12  and  N_13 
REMARK       I    between atoms: N_13  and  C_14 
REMARK    4  A    between atoms: C_14  and  C_15 
REMARK    5  A    between atoms: C_16  and  O_17 
ROOT
HETATM    1  C   UNL     1      28.017  42.389  52.457  1.00  0.00     0.055 A 
HETATM    2  N   UNL     1      29.123  42.087  53.217  1.00  0.00    -0.354 N 
HETATM    3  H   UNL     1      29.677  41.249  53.115  1.00  0.00     0.166 HD
HETATM    4  C   UNL     1      29.394  43.089  54.114  1.00  0.00     0.043 A 
HETATM    5  C   UNL     1      28.428  44.078  53.927  1.00  0.00     0.005 A 
HETATM    6  C   UNL     1      27.552  43.630  52.882  1.00  0.00     0.023 A 
HETATM    7  C   UNL     1      30.417  43.190  55.066  1.00  0.00     0.030 A 
HETATM    8  C   UNL     1      30.454  44.342  55.858  1.00  0.00     0.002 A 
HETATM    9  C   UNL     1      29.506  45.348  55.700  1.00  0.00     0.001 A 
HETATM   10  C   UNL     1      28.492  45.229  54.742  1.00  0.00     0.014 A 
ENDROOT
BRANCH   6  11
HETATM   11  C   UNL     1      26.377  44.290  52.341  1.00  0.00     0.153 C 
HETATM   12  N   UNL     1      26.510  45.317  51.567  1.00  0.00    -0.183 NA
BRANCH  12  13
HETATM   13  N   UNL     1      25.352  45.875  51.104  1.00  0.00    -0.243 N 
HETATM   14  C   UNL     1      25.019  45.734  49.766  1.00  0.00     0.274 C 
HETATM   15  O   UNL     1      25.668  45.100  48.934  1.00  0.00    -0.266 OA
HETATM   16  H   UNL     1      24.702  46.278  51.768  1.00  0.00     0.192 HD
BRANCH  14  17
HETATM   17  C   UNL     1      23.737  46.354  49.335  1.00  0.00     0.066 A 
HETATM   18  C   UNL     1      23.575  47.744  49.444  1.00  0.00     0.081 A 
HETATM   19  C   UNL     1      22.397  48.357  49.025  1.00  0.00     0.037 A 
HETATM   20  C   UNL     1      21.356  47.586  48.512  1.00  0.00     0.003 A 
HETATM   21  C   UNL     1      21.490  46.201  48.426  1.00  0.00     0.001 A 
HETATM   22  C   UNL     1      22.675  45.583  48.840  1.00  0.00     0.020 A 
BRANCH  18  23
HETATM   23  O   UNL     1      24.540  48.572  49.958  1.00  0.00    -0.360 OA
HETATM   24  H   UNL     1      25.407  48.117  49.864  1.00  0.00     0.217 HD
ENDBRANCH  18  23
ENDBRANCH  14  17
ENDBRANCH  12  13
ENDBRANCH   6  11
BRANCH   1  25
HETATM   25  C   UNL     1      27.550  41.484  51.409  1.00  0.00    -0.009 A 
HETATM   26  C   UNL     1      28.363  40.435  50.965  1.00  0.00     0.014 A 
HETATM   27  C   UNL     1      27.918  39.574  49.959  1.00  0.00     0.001 A 
HETATM   28  C   UNL     1      26.657  39.755  49.393  1.00  0.00     0.000 A 
HETATM   29  C   UNL     1      25.841  40.799  49.829  1.00  0.00     0.001 A 
HETATM   30  C   UNL     1      26.286  41.661  50.832  1.00  0.00     0.014 A 
ENDBRANCH   1  25
TORSDOF 5
ENDMDL
MODEL 8
REMARK VINA RESULT:      -8.3      5.120      9.382
REMARK  5 active torsions:
REMARK  status: ('A' for Active; 'I' for Inactive)
REMARK    1  A    between atoms: C_4  and  C_5 
REMARK    2  A    between atoms: C_10  and  C_11 
REMARK    3  A    between atoms: N_12  and  N_13 
REMARK       I    between atoms: N_13  and  C_14 
REMARK    4  A    between atoms: C_14  and  C_15 
REMARK    5  A    between atoms: C_16  and  O_17 
ROOT
HETATM    1  C   UNL     1      22.382  47.047  48.228  1.00  0.00     0.055 A 
HETATM    2  N   UNL     1      21.557  46.388  47.346  1.00  0.00    -0.354 N 
HETATM    3  H   UNL     1      20.834  46.830  46.798  1.00  0.00     0.166 HD
HETATM    4  C   UNL     1      21.867  45.052  47.285  1.00  0.00     0.043 A 
HETATM    5  C   UNL     1      22.932  44.839  48.159  1.00  0.00     0.005 A 
HETATM    6  C   UNL     1      23.254  46.102  48.761  1.00  0.00     0.023 A 
HETATM    7  C   UNL     1      21.286  44.029  46.524  1.00  0.00     0.030 A 
HETATM    8  C   UNL     1      21.812  42.741  46.661  1.00  0.00     0.002 A 
HETATM    9  C   UNL     1      22.873  42.491  47.525  1.00  0.00     0.001 A 
HETATM   10  C   UNL     1      23.441  43.527  48.276  1.00  0.00     0.014 A 
ENDROOT
BRANCH   6  11
HETATM   11  C   UNL     1      24.268  46.398  49.757  1.00  0.00     0.153 C 
HETATM   12  N   UNL     1      24.327  45.706  50.848  1.00  0.00    -0.183 NA
BRANCH  12  13
HETATM   13  N   UNL     1      25.312  46.054  51.727  1.00  0.00    -0.243 N 
HETATM   14  C   UNL     1      25.457  45.332  52.902  1.00  0.00     0.274 C 
HETATM   15  O   UNL     1      24.786  44.351  53.222  1.00  0.00    -0.266 OA
HETATM   16  H   UNL     1      25.991  46.753  51.453  1.00  0.00     0.192 HD
BRANCH  14  17
HETATM   17  C   UNL     1      26.559  45.756  53.807  1.00  0.00     0.066 A 
HETATM   18  C   UNL     1      26.524  47.037  54.380  1.00  0.00     0.081 A 
HETATM   19  C   UNL     1      27.528  47.454  55.251  1.00  0.00     0.037 A 
HETATM   20  C   UNL     1      28.593  46.604  55.543  1.00  0.00     0.003 A 
HETATM   21  C   UNL     1      28.658  45.340  54.957  1.00  0.00     0.001 A 
HETATM   22  C   UNL     1      27.647  44.916  54.088  1.00  0.00     0.020 A 
BRANCH  18  23
HETATM   23  O   UNL     1      25.526  47.943  54.128  1.00  0.00    -0.360 OA
HETATM   24  H   UNL     1      24.768  47.452  53.734  1.00  0.00     0.217 HD
ENDBRANCH  18  23
ENDBRANCH  14  17
ENDBRANCH  12  13
ENDBRANCH   6  11
BRANCH   1  25
HETATM   25  C   UNL     1      22.263  48.488  48.440  1.00  0.00    -0.009 A 
HETATM   26  C   UNL     1      21.153  49.016  49.110  1.00  0.00     0.014 A 
HETATM   27  C   UNL     1      21.038  50.394  49.308  1.00  0.00     0.001 A 
HETATM   28  C   UNL     1      22.032  51.251  48.839  1.00  0.00     0.000 A 
HETATM   29  C   UNL     1      23.140  50.734  48.170  1.00  0.00     0.001 A 
HETATM   30  C   UNL     1      23.255  49.357  47.970  1.00  0.00     0.014 A 
ENDBRANCH   1  25
TORSDOF 5
ENDMDL
MODEL 9
REMARK VINA RESULT:      -8.2      2.926      7.887
REMARK  5 active torsions:
REMARK  status: ('A' for Active; 'I' for Inactive)
REMARK    1  A    between atoms: C_4  and  C_5 
REMARK    2  A    between atoms: C_10  and  C_11 
REMARK    3  A    between atoms: N_12  and  N_13 
REMARK       I    between atoms: N_13  and  C_14 
REMARK    4  A    between atoms: C_14  and  C_15 
REMARK    5  A    between atoms: C_16  and  O_17 
ROOT
HETATM    1  C   UNL     1      25.385  43.708  49.553  1.00  0.00     0.055 A 
HETATM    2  N   UNL     1      24.461  44.013  48.580  1.00  0.00    -0.354 N 
HETATM    3  H   UNL     1      24.158  43.376  47.858  1.00  0.00     0.166 HD
HETATM    4  C   UNL     1      23.981  45.289  48.738  1.00  0.00     0.043 A 
HETATM    5  C   UNL     1      24.617  45.830  49.855  1.00  0.00     0.005 A 
HETATM    6  C   UNL     1      25.511  44.831  50.367  1.00  0.00     0.023 A 
HETATM    7  C   UNL     1      23.037  45.994  47.980  1.00  0.00     0.030 A 
HETATM    8  C   UNL     1      22.732  47.299  48.375  1.00  0.00     0.002 A 
HETATM    9  C   UNL     1      23.347  47.872  49.483  1.00  0.00     0.001 A 
HETATM   10  C   UNL     1      24.287  47.152  50.229  1.00  0.00     0.014 A 
ENDROOT
BRANCH   6  11
HETATM   11  C   UNL     1      26.415  44.920  51.499  1.00  0.00     0.153 C 
HETATM   12  N   UNL     1      26.164  44.260  52.583  1.00  0.00    -0.183 NA
BRANCH  12  13
HETATM   13  N   UNL     1      27.066  44.403  53.597  1.00  0.00    -0.243 N 
HETATM   14  C   UNL     1      28.345  43.890  53.443  1.00  0.00     0.274 C 
HETATM   15  O   UNL     1      28.772  43.333  52.432  1.00  0.00    -0.266 OA
HETATM   16  H   UNL     1      26.825  44.983  54.392  1.00  0.00     0.192 HD
BRANCH  14  17
HETATM   17  C   UNL     1      29.281  44.095  54.582  1.00  0.00     0.066 A 
HETATM   18  C   UNL     1      29.282  45.325  55.258  1.00  0.00     0.081 A 
HETATM   19  C   UNL     1      30.128  45.538  56.344  1.00  0.00     0.037 A 
HETATM   20  C   UNL     1      31.002  44.533  56.753  1.00  0.00     0.003 A 
HETATM   21  C   UNL     1      31.035  43.317  56.071  1.00  0.00     0.001 A 
HETATM   22  C   UNL     1      30.181  43.097  54.985  1.00  0.00     0.020 A 
BRANCH  18  23
HETATM   23  O   UNL     1      28.471  46.373  54.907  1.00  0.00    -0.360 OA
HETATM   24  H   UNL     1      28.825  46.761  54.075  1.00  0.00     0.217 HD
ENDBRANCH  18  23
ENDBRANCH  14  17
ENDBRANCH  12  13
ENDBRANCH   6  11
BRANCH   1  25
HETATM   25  C   UNL     1      26.016  42.392  49.611  1.00  0.00    -0.009 A 
HETATM   26  C   UNL     1      25.552  41.423  50.508  1.00  0.00     0.014 A 
HETATM   27  C   UNL     1      26.159  40.166  50.566  1.00  0.00     0.001 A 
HETATM   28  C   UNL     1      27.233  39.871  49.727  1.00  0.00     0.000 A 
HETATM   29  C   UNL     1      27.703  40.832  48.832  1.00  0.00     0.001 A 
HETATM   30  C   UNL     1      27.097  42.088  48.775  1.00  0.00     0.014 A 
ENDBRANCH   1  25
TORSDOF 5
ENDMDL
MODEL 10
REMARK VINA RESULT:      -8.1      2.045      3.378
REMARK  5 active torsions:
REMARK  status: ('A' for Active; 'I' for Inactive)
REMARK    1  A    between atoms: C_4  and  C_5 
REMARK    2  A    between atoms: C_10  and  C_11 
REMARK    3  A    between atoms: N_12  and  N_13 
REMARK       I    between atoms: N_13  and  C_14 
REMARK    4  A    between atoms: C_14  and  C_15 
REMARK    5  A    between atoms: C_16  and  O_17 
ROOT
HETATM    1  C   UNL     1      25.778  46.047  52.053  1.00  0.00     0.055 A 
HETATM    2  N   UNL     1      26.021  47.041  52.973  1.00  0.00    -0.354 N 
HETATM    3  H   UNL     1      25.592  47.955  52.956  1.00  0.00     0.166 HD
HETATM    4  C   UNL     1      26.900  46.617  53.938  1.00  0.00     0.043 A 
HETATM    5  C   UNL     1      27.238  45.299  53.631  1.00  0.00     0.005 A 
HETATM    6  C   UNL     1      26.533  44.941  52.433  1.00  0.00     0.023 A 
HETATM    7  C   UNL     1      27.411  47.298  55.049  1.00  0.00     0.030 A 
HETATM    8  C   UNL     1      28.303  46.610  55.877  1.00  0.00     0.002 A 
HETATM    9  C   UNL     1      28.665  45.296  55.602  1.00  0.00     0.001 A 
HETATM   10  C   UNL     1      28.142  44.631  54.487  1.00  0.00     0.014 A 
ENDROOT
BRANCH   6  11
HETATM   11  C   UNL     1      26.573  43.690  51.699  1.00  0.00     0.153 C 
HETATM   12  N   UNL     1      27.653  43.332  51.084  1.00  0.00    -0.183 NA
BRANCH  12  13
HETATM   13  N   UNL     1      27.601  42.141  50.419  1.00  0.00    -0.243 N 
HETATM   14  C   UNL     1      28.172  41.017  50.996  1.00  0.00     0.274 C 
HETATM   15  O   UNL     1      28.707  40.979  52.103  1.00  0.00    -0.266 OA
HETATM   16  H   UNL     1      27.044  42.073  49.576  1.00  0.00     0.192 HD
BRANCH  14  17
HETATM   17  C   UNL     1      28.065  39.750  50.223  1.00  0.00     0.066 A 
HETATM   18  C   UNL     1      26.813  39.350  49.729  1.00  0.00     0.081 A 
HETATM   19  C   UNL     1      26.685  38.182  48.980  1.00  0.00     0.037 A 
HETATM   20  C   UNL     1      27.803  37.387  48.735  1.00  0.00     0.003 A 
HETATM   21  C   UNL     1      29.047  37.755  49.246  1.00  0.00     0.001 A 
HETATM   22  C   UNL     1      29.180  38.931  49.992  1.00  0.00     0.020 A 
BRANCH  18  23
HETATM   23  O   UNL     1      25.662  40.062  49.944  1.00  0.00    -0.360 OA
HETATM   24  H   UNL     1      25.903  41.015  49.995  1.00  0.00     0.217 HD
ENDBRANCH  18  23
ENDBRANCH  14  17
ENDBRANCH  12  13
ENDBRANCH   6  11
BRANCH   1  25
HETATM   25  C   UNL     1      24.849  46.254  50.944  1.00  0.00    -0.009 A 
HETATM   26  C   UNL     1      24.163  45.170  50.383  1.00  0.00     0.014 A 
HETATM   27  C   UNL     1      23.279  45.368  49.320  1.00  0.00     0.001 A 
HETATM   28  C   UNL     1      23.074  46.650  48.813  1.00  0.00     0.000 A 
HETATM   29  C   UNL     1      23.755  47.735  49.365  1.00  0.00     0.001 A 
HETATM   30  C   UNL     1      24.640  47.538  50.426  1.00  0.00     0.014 A 
ENDBRANCH   1  25
TORSDOF 5
ENDMDL
