MODEL 1
REMARK VINA RESULT:      -9.2      0.000      0.000
REMARK  7 active torsions:
REMARK  status: ('A' for Active; 'I' for Inactive)
REMARK    1  A    between atoms: C_4  and  C_5 
REMARK    2  A    between atoms: C_8  and  C_9 
REMARK    3  A    between atoms: C_9  and  C_10 
REMARK       I    between atoms: C_10  and  N_11 
REMARK    4  A    between atoms: N_11  and  N_12 
REMARK       I    between atoms: N_12  and  C_13 
REMARK    5  A    between atoms: C_13  and  C_14 
REMARK    6  A    between atoms: C_14  and  C_15 
REMARK    7  A    between atoms: C_16  and  O_17 
ROOT
HETATM    1  C   UNL     1      25.191  44.519  50.367  1.00  0.00     0.241 C 
HETATM    2  N   UNL     1      24.099  45.359  50.451  1.00  0.00    -0.267 N 
HETATM    3  O   UNL     1      26.116  44.725  49.578  1.00  0.00    -0.271 OA
HETATM    4  H   UNL     1      23.224  45.080  50.899  1.00  0.00     0.190 HD
ENDROOT
BRANCH   1   5
HETATM    5  C   UNL     1      25.165  43.345  51.322  1.00  0.00     0.164 C 
BRANCH   5   6
HETATM    6  C   UNL     1      26.504  43.040  51.912  1.00  0.00     0.051 A 
HETATM    7  C   UNL     1      27.412  42.077  51.516  1.00  0.00     0.079 A 
HETATM    8  S   UNL     1      28.816  42.146  52.490  1.00  0.00    -0.079 SA
HETATM    9  C   UNL     1      28.146  43.471  53.366  1.00  0.00     0.108 A 
HETATM   10  N   UNL     1      26.943  43.837  52.962  1.00  0.00    -0.244 NA
BRANCH   9  11
HETATM   11  C   UNL     1      28.911  44.153  54.424  1.00  0.00     0.000 A 
HETATM   12  C   UNL     1      29.952  43.460  55.067  1.00  0.00     0.021 A 
HETATM   13  C   UNL     1      30.710  44.056  56.086  1.00  0.00    -0.061 A 
HETATM   14  C   UNL     1      31.782  43.284  56.794  1.00  0.00     0.048 C 
HETATM   15  C   UNL     1      30.415  45.367  56.472  1.00  0.00     0.007 A 
HETATM   16  C   UNL     1      29.397  46.075  55.837  1.00  0.00     0.001 A 
HETATM   17  C   UNL     1      28.653  45.474  54.818  1.00  0.00     0.014 A 
ENDBRANCH   9  11
ENDBRANCH   5   6
ENDBRANCH   1   5
BRANCH   2  18
HETATM   18  N   UNL     1      24.006  46.404  49.523  1.00  0.00    -0.267 N 
HETATM   19  C   UNL     1      24.342  47.677  49.934  1.00  0.00     0.240 C 
HETATM   20  O   UNL     1      24.821  47.900  51.047  1.00  0.00    -0.272 OA
HETATM   21  H   UNL     1      23.480  46.210  48.670  1.00  0.00     0.190 HD
BRANCH  19  22
HETATM   22  C   UNL     1      24.109  48.754  48.895  1.00  0.00     0.146 C 
BRANCH  22  23
HETATM   23  C   UNL     1      22.714  49.350  48.850  1.00  0.00    -0.016 A 
HETATM   24  C   UNL     1      21.758  48.786  47.979  1.00  0.00     0.074 A 
HETATM   25  C   UNL     1      20.470  49.328  47.908  1.00  0.00     0.037 A 
HETATM   26  C   UNL     1      20.120  50.422  48.702  1.00  0.00     0.003 A 
HETATM   27  C   UNL     1      21.054  50.981  49.566  1.00  0.00     0.001 A 
HETATM   28  C   UNL     1      22.343  50.451  49.640  1.00  0.00     0.010 A 
BRANCH  24  29
HETATM   29  O   UNL     1      22.191  47.721  47.230  1.00  0.00    -0.355 OA
HETATM   30  C   UNL     1      21.276  46.647  47.040  1.00  0.00     0.210 C 
ENDBRANCH  24  29
ENDBRANCH  22  23
ENDBRANCH  19  22
ENDBRANCH   2  18
TORSDOF 7
ENDMDL
MODEL 2
REMARK VINA RESULT:      -9.1      1.163      1.734
REMARK  7 active torsions:
REMARK  status: ('A' for Active; 'I' for Inactive)
REMARK    1  A    between atoms: C_4  and  C_5 
REMARK    2  A    between atoms: C_8  and  C_9 
REMARK    3  A    between atoms: C_9  and  C_10 
REMARK       I    between atoms: C_10  and  N_11 
REMARK    4  A    between atoms: N_11  and  N_12 
REMARK       I    between atoms: N_12  and  C_13 
REMARK    5  A    between atoms: C_13  and  C_14 
REMARK    6  A    between atoms: C_14  and  C_15 
REMARK    7  A    between atoms: C_16  and  O_17 
ROOT
HETATM    1  C   UNL     1      25.032  44.566  50.526  1.00  0.00     0.241 C 
HETATM    2  N   UNL     1      23.881  45.311  50.686  1.00  0.00    -0.267 N 
HETATM    3  O   UNL     1      25.898  44.868  49.702  1.00  0.00    -0.271 OA
HETATM    4  H   UNL     1      23.054  44.949  51.164  1.00  0.00     0.190 HD
ENDROOT
BRANCH   1   5
HETATM    5  C   UNL     1      25.146  43.368  51.444  1.00  0.00     0.164 C 
BRANCH   5   6
HETATM    6  C   UNL     1      26.532  43.156  51.960  1.00  0.00     0.051 A 
HETATM    7  C   UNL     1      27.518  42.335  51.448  1.00  0.00     0.079 A 
HETATM    8  S   UNL     1      28.946  42.466  52.379  1.00  0.00    -0.079 SA
HETATM    9  C   UNL     1      28.179  43.628  53.396  1.00  0.00     0.108 A 
HETATM   10  N   UNL     1      26.929  43.899  53.065  1.00  0.00    -0.244 NA
BRANCH   9  11
HETATM   11  C   UNL     1      28.913  44.291  54.488  1.00  0.00     0.000 A 
HETATM   12  C   UNL     1      29.973  43.608  55.110  1.00  0.00     0.021 A 
HETATM   13  C   UNL     1      30.702  44.186  56.160  1.00  0.00    -0.061 A 
HETATM   14  C   UNL     1      31.796  43.422  56.844  1.00  0.00     0.048 C 
HETATM   15  C   UNL     1      30.358  45.468  56.599  1.00  0.00     0.007 A 
HETATM   16  C   UNL     1      29.320  46.167  55.986  1.00  0.00     0.001 A 
HETATM   17  C   UNL     1      28.605  45.584  54.936  1.00  0.00     0.014 A 
ENDBRANCH   9  11
ENDBRANCH   5   6
ENDBRANCH   1   5
BRANCH   2  18
HETATM   18  N   UNL     1      23.660  46.370  49.795  1.00  0.00    -0.267 N 
HETATM   19  C   UNL     1      22.668  46.230  48.845  1.00  0.00     0.240 C 
HETATM   20  O   UNL     1      21.909  45.260  48.831  1.00  0.00    -0.272 OA
HETATM   21  H   UNL     1      24.387  47.083  49.745  1.00  0.00     0.190 HD
BRANCH  19  22
HETATM   22  C   UNL     1      22.575  47.379  47.863  1.00  0.00     0.146 C 
BRANCH  22  23
HETATM   23  C   UNL     1      21.961  48.662  48.390  1.00  0.00    -0.016 A 
HETATM   24  C   UNL     1      22.605  49.888  48.119  1.00  0.00     0.074 A 
HETATM   25  C   UNL     1      22.068  51.084  48.609  1.00  0.00     0.037 A 
HETATM   26  C   UNL     1      20.892  51.074  49.360  1.00  0.00     0.003 A 
HETATM   27  C   UNL     1      20.249  49.872  49.629  1.00  0.00     0.001 A 
HETATM   28  C   UNL     1      20.780  48.673  49.150  1.00  0.00     0.010 A 
BRANCH  24  29
HETATM   29  O   UNL     1      23.760  49.804  47.382  1.00  0.00    -0.355 OA
HETATM   30  C   UNL     1      24.986  50.020  48.070  1.00  0.00     0.210 C 
ENDBRANCH  24  29
ENDBRANCH  22  23
ENDBRANCH  19  22
ENDBRANCH   2  18
TORSDOF 7
ENDMDL
MODEL 3
REMARK VINA RESULT:      -9.1      1.953      2.966
REMARK  7 active torsions:
REMARK  status: ('A' for Active; 'I' for Inactive)
REMARK    1  A    between atoms: C_4  and  C_5 
REMARK    2  A    between atoms: C_8  and  C_9 
REMARK    3  A    between atoms: C_9  and  C_10 
REMARK       I    between atoms: C_10  and  N_11 
REMARK    4  A    between atoms: N_11  and  N_12 
REMARK       I    between atoms: N_12  and  C_13 
REMARK    5  A    between atoms: C_13  and  C_14 
REMARK    6  A    between atoms: C_14  and  C_15 
REMARK    7  A    between atoms: C_16  and  O_17 
ROOT
HETATM    1  C   UNL     1      24.296  45.957  49.513  1.00  0.00     0.241 C 
HETATM    2  N   UNL     1      23.726  47.199  49.708  1.00  0.00    -0.267 N 
HETATM    3  O   UNL     1      23.680  45.030  48.983  1.00  0.00    -0.271 OA
HETATM    4  H   UNL     1      24.113  47.885  50.358  1.00  0.00     0.190 HD
ENDROOT
BRANCH   1   5
HETATM    5  C   UNL     1      25.728  45.834  49.987  1.00  0.00     0.164 C 
BRANCH   5   6
HETATM    6  C   UNL     1      25.839  45.347  51.395  1.00  0.00     0.051 A 
HETATM    7  C   UNL     1      24.823  44.951  52.244  1.00  0.00     0.079 A 
HETATM    8  S   UNL     1      25.465  44.445  53.746  1.00  0.00    -0.079 SA
HETATM    9  C   UNL     1      27.061  44.756  53.172  1.00  0.00     0.108 A 
HETATM   10  N   UNL     1      27.113  45.217  51.935  1.00  0.00    -0.244 NA
BRANCH   9  11
HETATM   11  C   UNL     1      28.243  44.456  53.998  1.00  0.00     0.000 A 
HETATM   12  C   UNL     1      28.511  45.257  55.122  1.00  0.00     0.021 A 
HETATM   13  C   UNL     1      29.626  45.023  55.940  1.00  0.00    -0.061 A 
HETATM   14  C   UNL     1      29.924  45.920  57.104  1.00  0.00     0.048 C 
HETATM   15  C   UNL     1      30.491  43.970  55.623  1.00  0.00     0.007 A 
HETATM   16  C   UNL     1      30.233  43.156  54.523  1.00  0.00     0.001 A 
HETATM   17  C   UNL     1      29.116  43.394  53.718  1.00  0.00     0.014 A 
ENDBRANCH   9  11
ENDBRANCH   5   6
ENDBRANCH   1   5
BRANCH   2  18
HETATM   18  N   UNL     1      22.369  47.351  49.392  1.00  0.00    -0.267 N 
HETATM   19  C   UNL     1      22.031  48.179  48.341  1.00  0.00     0.240 C 
HETATM   20  O   UNL     1      22.882  48.693  47.614  1.00  0.00    -0.272 OA
HETATM   21  H   UNL     1      21.699  47.030  50.092  1.00  0.00     0.190 HD
BRANCH  19  22
HETATM   22  C   UNL     1      20.541  48.363  48.144  1.00  0.00     0.146 C 
BRANCH  22  23
HETATM   23  C   UNL     1      19.966  49.692  48.596  1.00  0.00    -0.016 A 
HETATM   24  C   UNL     1      19.027  49.706  49.649  1.00  0.00     0.074 A 
HETATM   25  C   UNL     1      18.469  50.918  50.074  1.00  0.00     0.037 A 
HETATM   26  C   UNL     1      18.842  52.118  49.467  1.00  0.00     0.003 A 
HETATM   27  C   UNL     1      19.770  52.114  48.432  1.00  0.00     0.001 A 
HETATM   28  C   UNL     1      20.327  50.911  47.997  1.00  0.00     0.010 A 
BRANCH  24  29
HETATM   29  O   UNL     1      18.711  48.481  50.182  1.00  0.00    -0.355 OA
HETATM   30  C   UNL     1      18.514  48.417  51.590  1.00  0.00     0.210 C 
ENDBRANCH  24  29
ENDBRANCH  22  23
ENDBRANCH  19  22
ENDBRANCH   2  18
TORSDOF 7
ENDMDL
MODEL 4
REMARK VINA RESULT:      -9.0      1.659      2.796
REMARK  7 active torsions:
REMARK  status: ('A' for Active; 'I' for Inactive)
REMARK    1  A    between atoms: C_4  and  C_5 
REMARK    2  A    between atoms: C_8  and  C_9 
REMARK    3  A    between atoms: C_9  and  C_10 
REMARK       I    between atoms: C_10  and  N_11 
REMARK    4  A    between atoms: N_11  and  N_12 
REMARK       I    between atoms: N_12  and  C_13 
REMARK    5  A    between atoms: C_13  and  C_14 
REMARK    6  A    between atoms: C_14  and  C_15 
REMARK    7  A    between atoms: C_16  and  O_17 
ROOT
HETATM    1  C   UNL     1      25.716  43.992  50.400  1.00  0.00     0.241 C 
HETATM    2  N   UNL     1      24.647  44.583  51.043  1.00  0.00    -0.267 N 
HETATM    3  O   UNL     1      26.487  44.635  49.685  1.00  0.00    -0.271 OA
HETATM    4  H   UNL     1      23.866  44.043  51.422  1.00  0.00     0.190 HD
ENDROOT
BRANCH   1   5
HETATM    5  C   UNL     1      25.867  42.507  50.653  1.00  0.00     0.164 C 
BRANCH   5   6
HETATM    6  C   UNL     1      26.941  42.188  51.642  1.00  0.00     0.051 A 
HETATM    7  C   UNL     1      27.658  41.014  51.774  1.00  0.00     0.079 A 
HETATM    8  S   UNL     1      28.802  41.155  53.038  1.00  0.00    -0.079 SA
HETATM    9  C   UNL     1      28.295  42.779  53.320  1.00  0.00     0.108 A 
HETATM   10  N   UNL     1      27.326  43.191  52.523  1.00  0.00    -0.244 NA
BRANCH   9  11
HETATM   11  C   UNL     1      28.959  43.624  54.327  1.00  0.00     0.000 A 
HETATM   12  C   UNL     1      30.039  43.094  55.055  1.00  0.00     0.021 A 
HETATM   13  C   UNL     1      30.706  43.850  56.032  1.00  0.00    -0.061 A 
HETATM   14  C   UNL     1      31.822  43.250  56.833  1.00  0.00     0.048 C 
HETATM   15  C   UNL     1      30.277  45.156  56.288  1.00  0.00     0.007 A 
HETATM   16  C   UNL     1      29.219  45.703  55.566  1.00  0.00     0.001 A 
HETATM   17  C   UNL     1      28.567  44.945  54.591  1.00  0.00     0.014 A 
ENDBRANCH   9  11
ENDBRANCH   5   6
ENDBRANCH   1   5
BRANCH   2  18
HETATM   18  N   UNL     1      24.384  45.931  50.767  1.00  0.00    -0.267 N 
HETATM   19  C   UNL     1      23.745  46.244  49.585  1.00  0.00     0.240 C 
HETATM   20  O   UNL     1      23.307  45.377  48.829  1.00  0.00    -0.272 OA
HETATM   21  H   UNL     1      24.879  46.618  51.336  1.00  0.00     0.190 HD
BRANCH  19  22
HETATM   22  C   UNL     1      23.600  47.729  49.326  1.00  0.00     0.146 C 
BRANCH  22  23
HETATM   23  C   UNL     1      24.886  48.493  49.073  1.00  0.00    -0.016 A 
HETATM   24  C   UNL     1      24.872  49.572  48.164  1.00  0.00     0.074 A 
HETATM   25  C   UNL     1      26.049  50.282  47.902  1.00  0.00     0.037 A 
HETATM   26  C   UNL     1      27.240  49.935  48.541  1.00  0.00     0.003 A 
HETATM   27  C   UNL     1      27.263  48.876  49.442  1.00  0.00     0.001 A 
HETATM   28  C   UNL     1      26.095  48.158  49.705  1.00  0.00     0.010 A 
BRANCH  24  29
HETATM   29  O   UNL     1      23.662  49.838  47.575  1.00  0.00    -0.355 OA
HETATM   30  C   UNL     1      22.893  50.903  48.124  1.00  0.00     0.210 C 
ENDBRANCH  24  29
ENDBRANCH  22  23
ENDBRANCH  19  22
ENDBRANCH   2  18
TORSDOF 7
ENDMDL
MODEL 5
REMARK VINA RESULT:      -8.9      2.910     10.654
REMARK  7 active torsions:
REMARK  status: ('A' for Active; 'I' for Inactive)
REMARK    1  A    between atoms: C_4  and  C_5 
REMARK    2  A    between atoms: C_8  and  C_9 
REMARK    3  A    between atoms: C_9  and  C_10 
REMARK       I    between atoms: C_10  and  N_11 
REMARK    4  A    between atoms: N_11  and  N_12 
REMARK       I    between atoms: N_12  and  C_13 
REMARK    5  A    between atoms: C_13  and  C_14 
REMARK    6  A    between atoms: C_14  and  C_15 
REMARK    7  A    between atoms: C_16  and  O_17 
ROOT
HETATM    1  C   UNL     1      24.802  46.756  50.808  1.00  0.00     0.241 C 
HETATM    2  N   UNL     1      25.454  45.563  51.048  1.00  0.00    -0.267 N 
HETATM    3  O   UNL     1      24.898  47.719  51.572  1.00  0.00    -0.271 OA
HETATM    4  H   UNL     1      25.193  44.691  50.582  1.00  0.00     0.190 HD
ENDROOT
BRANCH   1   5
HETATM    5  C   UNL     1      23.980  46.787  49.538  1.00  0.00     0.164 C 
BRANCH   5   6
HETATM    6  C   UNL     1      23.649  48.173  49.088  1.00  0.00     0.051 A 
HETATM    7  C   UNL     1      24.497  49.118  48.541  1.00  0.00     0.079 A 
HETATM    8  S   UNL     1      23.632  50.543  48.159  1.00  0.00    -0.079 SA
HETATM    9  C   UNL     1      22.174  49.811  48.719  1.00  0.00     0.108 A 
HETATM   10  N   UNL     1      22.323  48.579  49.170  1.00  0.00    -0.244 NA
BRANCH   9  11
HETATM   11  C   UNL     1      20.881  50.511  48.620  1.00  0.00     0.000 A 
HETATM   12  C   UNL     1      20.165  50.453  47.411  1.00  0.00     0.021 A 
HETATM   13  C   UNL     1      18.933  51.105  47.257  1.00  0.00    -0.061 A 
HETATM   14  C   UNL     1      18.210  51.074  45.944  1.00  0.00     0.048 C 
HETATM   15  C   UNL     1      18.412  51.834  48.331  1.00  0.00     0.007 A 
HETATM   16  C   UNL     1      19.099  51.890  49.541  1.00  0.00     0.001 A 
HETATM   17  C   UNL     1      20.323  51.231  49.686  1.00  0.00     0.014 A 
ENDBRANCH   9  11
ENDBRANCH   5   6
ENDBRANCH   1   5
BRANCH   2  18
HETATM   18  N   UNL     1      26.144  45.428  52.259  1.00  0.00    -0.267 N 
HETATM   19  C   UNL     1      25.612  44.601  53.227  1.00  0.00     0.240 C 
HETATM   20  O   UNL     1      24.620  43.903  53.017  1.00  0.00    -0.272 OA
HETATM   21  H   UNL     1      26.871  46.119  52.449  1.00  0.00     0.190 HD
BRANCH  19  22
HETATM   22  C   UNL     1      26.371  44.603  54.538  1.00  0.00     0.146 C 
BRANCH  22  23
HETATM   23  C   UNL     1      27.783  44.048  54.494  1.00  0.00    -0.016 A 
HETATM   24  C   UNL     1      28.796  44.702  55.228  1.00  0.00     0.074 A 
HETATM   25  C   UNL     1      30.109  44.220  55.191  1.00  0.00     0.037 A 
HETATM   26  C   UNL     1      30.424  43.088  54.437  1.00  0.00     0.003 A 
HETATM   27  C   UNL     1      29.432  42.436  53.714  1.00  0.00     0.001 A 
HETATM   28  C   UNL     1      28.121  42.913  53.740  1.00  0.00     0.010 A 
BRANCH  24  29
HETATM   29  O   UNL     1      28.399  45.810  55.934  1.00  0.00    -0.355 OA
HETATM   30  C   UNL     1      29.046  46.054  57.177  1.00  0.00     0.210 C 
ENDBRANCH  24  29
ENDBRANCH  22  23
ENDBRANCH  19  22
ENDBRANCH   2  18
TORSDOF 7
ENDMDL
MODEL 6
REMARK VINA RESULT:      -8.7      2.758     10.197
REMARK  7 active torsions:
REMARK  status: ('A' for Active; 'I' for Inactive)
REMARK    1  A    between atoms: C_4  and  C_5 
REMARK    2  A    between atoms: C_8  and  C_9 
REMARK    3  A    between atoms: C_9  and  C_10 
REMARK       I    between atoms: C_10  and  N_11 
REMARK    4  A    between atoms: N_11  and  N_12 
REMARK       I    between atoms: N_12  and  C_13 
REMARK    5  A    between atoms: C_13  and  C_14 
REMARK    6  A    between atoms: C_14  and  C_15 
REMARK    7  A    between atoms: C_16  and  O_17 
ROOT
HETATM    1  C   UNL     1      25.414  46.770  50.901  1.00  0.00     0.241 C 
HETATM    2  N   UNL     1      26.209  45.665  51.125  1.00  0.00    -0.267 N 
HETATM    3  O   UNL     1      25.047  47.509  51.817  1.00  0.00    -0.271 OA
HETATM    4  H   UNL     1      26.311  44.913  50.441  1.00  0.00     0.190 HD
ENDROOT
BRANCH   1   5
HETATM    5  C   UNL     1      25.045  47.005  49.452  1.00  0.00     0.164 C 
BRANCH   5   6
HETATM    6  C   UNL     1      24.327  48.297  49.232  1.00  0.00     0.051 A 
HETATM    7  C   UNL     1      24.833  49.479  48.726  1.00  0.00     0.079 A 
HETATM    8  S   UNL     1      23.602  50.663  48.638  1.00  0.00    -0.079 SA
HETATM    9  C   UNL     1      22.461  49.527  49.253  1.00  0.00     0.108 A 
HETATM   10  N   UNL     1      22.967  48.336  49.516  1.00  0.00    -0.244 NA
BRANCH   9  11
HETATM   11  C   UNL     1      21.036  49.874  49.395  1.00  0.00     0.000 A 
HETATM   12  C   UNL     1      20.079  48.845  49.378  1.00  0.00     0.021 A 
HETATM   13  C   UNL     1      18.708  49.117  49.501  1.00  0.00    -0.061 A 
HETATM   14  C   UNL     1      17.698  48.010  49.430  1.00  0.00     0.048 C 
HETATM   15  C   UNL     1      18.289  50.444  49.636  1.00  0.00     0.007 A 
HETATM   16  C   UNL     1      19.224  51.477  49.669  1.00  0.00     0.001 A 
HETATM   17  C   UNL     1      20.587  51.194  49.553  1.00  0.00     0.014 A 
ENDBRANCH   9  11
ENDBRANCH   5   6
ENDBRANCH   1   5
BRANCH   2  18
HETATM   18  N   UNL     1      26.498  45.327  52.454  1.00  0.00    -0.267 N 
HETATM   19  C   UNL     1      26.776  44.007  52.748  1.00  0.00     0.240 C 
HETATM   20  O   UNL     1      26.884  43.151  51.871  1.00  0.00    -0.272 OA
HETATM   21  H   UNL     1      26.262  46.022  53.163  1.00  0.00     0.190 HD
BRANCH  19  22
HETATM   22  C   UNL     1      26.970  43.722  54.223  1.00  0.00     0.146 C 
BRANCH  22  23
HETATM   23  C   UNL     1      28.357  43.987  54.778  1.00  0.00    -0.016 A 
HETATM   24  C   UNL     1      28.624  45.235  55.380  1.00  0.00     0.074 A 
HETATM   25  C   UNL     1      29.900  45.510  55.885  1.00  0.00     0.037 A 
HETATM   26  C   UNL     1      30.912  44.552  55.805  1.00  0.00     0.003 A 
HETATM   27  C   UNL     1      30.657  43.319  55.217  1.00  0.00     0.001 A 
HETATM   28  C   UNL     1      29.390  43.038  54.705  1.00  0.00     0.010 A 
BRANCH  24  29
HETATM   29  O   UNL     1      27.574  46.119  55.409  1.00  0.00    -0.355 OA
HETATM   30  C   UNL     1      27.842  47.457  55.005  1.00  0.00     0.210 C 
ENDBRANCH  24  29
ENDBRANCH  22  23
ENDBRANCH  19  22
ENDBRANCH   2  18
TORSDOF 7
ENDMDL
MODEL 7
REMARK VINA RESULT:      -8.5      3.071      9.872
REMARK  7 active torsions:
REMARK  status: ('A' for Active; 'I' for Inactive)
REMARK    1  A    between atoms: C_4  and  C_5 
REMARK    2  A    between atoms: C_8  and  C_9 
REMARK    3  A    between atoms: C_9  and  C_10 
REMARK       I    between atoms: C_10  and  N_11 
REMARK    4  A    between atoms: N_11  and  N_12 
REMARK       I    between atoms: N_12  and  C_13 
REMARK    5  A    between atoms: C_13  and  C_14 
REMARK    6  A    between atoms: C_14  and  C_15 
REMARK    7  A    between atoms: C_16  and  O_17 
ROOT
HETATM    1  C   UNL     1      26.583  47.310  49.905  1.00  0.00     0.241 C 
HETATM    2  N   UNL     1      26.206  47.402  51.230  1.00  0.00    -0.267 N 
HETATM    3  O   UNL     1      26.810  46.226  49.363  1.00  0.00    -0.271 OA
HETATM    4  H   UNL     1      26.262  48.276  51.758  1.00  0.00     0.190 HD
ENDROOT
BRANCH   1   5
HETATM    5  C   UNL     1      26.681  48.634  49.179  1.00  0.00     0.164 C 
BRANCH   5   6
HETATM    6  C   UNL     1      25.353  49.170  48.754  1.00  0.00     0.051 A 
HETATM    7  C   UNL     1      25.089  50.283  47.979  1.00  0.00     0.079 A 
HETATM    8  S   UNL     1      23.404  50.459  47.745  1.00  0.00    -0.079 SA
HETATM    9  C   UNL     1      23.123  49.028  48.665  1.00  0.00     0.108 A 
HETATM   10  N   UNL     1      24.220  48.456  49.127  1.00  0.00    -0.244 NA
BRANCH   9  11
HETATM   11  C   UNL     1      21.765  48.486  48.841  1.00  0.00     0.000 A 
HETATM   12  C   UNL     1      20.785  49.287  49.453  1.00  0.00     0.021 A 
HETATM   13  C   UNL     1      19.477  48.821  49.653  1.00  0.00    -0.061 A 
HETATM   14  C   UNL     1      18.460  49.671  50.354  1.00  0.00     0.048 C 
HETATM   15  C   UNL     1      19.147  47.527  49.238  1.00  0.00     0.007 A 
HETATM   16  C   UNL     1      20.100  46.724  48.616  1.00  0.00     0.001 A 
HETATM   17  C   UNL     1      21.398  47.200  48.416  1.00  0.00     0.014 A 
ENDBRANCH   9  11
ENDBRANCH   5   6
ENDBRANCH   1   5
BRANCH   2  18
HETATM   18  N   UNL     1      26.201  46.226  51.990  1.00  0.00    -0.267 N 
HETATM   19  C   UNL     1      26.520  46.311  53.330  1.00  0.00     0.240 C 
HETATM   20  O   UNL     1      26.698  47.392  53.892  1.00  0.00    -0.272 OA
HETATM   21  H   UNL     1      26.190  45.347  51.471  1.00  0.00     0.190 HD
BRANCH  19  22
HETATM   22  C   UNL     1      26.592  44.977  54.044  1.00  0.00     0.146 C 
BRANCH  22  23
HETATM   23  C   UNL     1      27.911  44.234  53.941  1.00  0.00    -0.016 A 
HETATM   24  C   UNL     1      28.895  44.452  54.929  1.00  0.00     0.074 A 
HETATM   25  C   UNL     1      30.126  43.791  54.847  1.00  0.00     0.037 A 
HETATM   26  C   UNL     1      30.385  42.908  53.798  1.00  0.00     0.003 A 
HETATM   27  C   UNL     1      29.420  42.685  52.823  1.00  0.00     0.001 A 
HETATM   28  C   UNL     1      28.192  43.344  52.892  1.00  0.00     0.010 A 
BRANCH  24  29
HETATM   29  O   UNL     1      28.559  45.341  55.918  1.00  0.00    -0.355 OA
HETATM   30  C   UNL     1      29.617  45.842  56.728  1.00  0.00     0.210 C 
ENDBRANCH  24  29
ENDBRANCH  22  23
ENDBRANCH  19  22
ENDBRANCH   2  18
TORSDOF 7
ENDMDL
MODEL 8
REMARK VINA RESULT:      -8.4      2.514      3.577
REMARK  7 active torsions:
REMARK  status: ('A' for Active; 'I' for Inactive)
REMARK    1  A    between atoms: C_4  and  C_5 
REMARK    2  A    between atoms: C_8  and  C_9 
REMARK    3  A    between atoms: C_9  and  C_10 
REMARK       I    between atoms: C_10  and  N_11 
REMARK    4  A    between atoms: N_11  and  N_12 
REMARK       I    between atoms: N_12  and  C_13 
REMARK    5  A    between atoms: C_13  and  C_14 
REMARK    6  A    between atoms: C_14  and  C_15 
REMARK    7  A    between atoms: C_16  and  O_17 
ROOT
HETATM    1  C   UNL     1      21.997  44.190  48.967  1.00  0.00     0.241 C 
HETATM    2  N   UNL     1      21.879  45.505  49.370  1.00  0.00    -0.267 N 
HETATM    3  O   UNL     1      21.392  43.749  47.987  1.00  0.00    -0.271 OA
HETATM    4  H   UNL     1      22.157  45.821  50.301  1.00  0.00     0.190 HD
ENDROOT
BRANCH   1   5
HETATM    5  C   UNL     1      22.928  43.347  49.811  1.00  0.00     0.164 C 
BRANCH   5   6
HETATM    6  C   UNL     1      24.235  44.016  50.087  1.00  0.00     0.051 A 
HETATM    7  C   UNL     1      25.288  44.225  49.216  1.00  0.00     0.079 A 
HETATM    8  S   UNL     1      26.552  45.067  50.001  1.00  0.00    -0.079 SA
HETATM    9  C   UNL     1      25.616  45.129  51.448  1.00  0.00     0.108 A 
HETATM   10  N   UNL     1      24.433  44.550  51.354  1.00  0.00    -0.244 NA
BRANCH   9  11
HETATM   11  C   UNL     1      26.104  45.837  52.644  1.00  0.00     0.000 A 
HETATM   12  C   UNL     1      27.155  45.273  53.389  1.00  0.00     0.021 A 
HETATM   13  C   UNL     1      27.655  45.899  54.540  1.00  0.00    -0.061 A 
HETATM   14  C   UNL     1      28.742  45.257  55.350  1.00  0.00     0.048 C 
HETATM   15  C   UNL     1      27.087  47.107  54.957  1.00  0.00     0.007 A 
HETATM   16  C   UNL     1      26.055  47.689  54.224  1.00  0.00     0.001 A 
HETATM   17  C   UNL     1      25.569  47.061  53.074  1.00  0.00     0.014 A 
ENDBRANCH   9  11
ENDBRANCH   5   6
ENDBRANCH   1   5
BRANCH   2  18
HETATM   18  N   UNL     1      20.950  46.312  48.700  1.00  0.00    -0.267 N 
HETATM   19  C   UNL     1      21.426  47.334  47.903  1.00  0.00     0.240 C 
HETATM   20  O   UNL     1      22.628  47.484  47.681  1.00  0.00    -0.272 OA
HETATM   21  H   UNL     1      19.982  46.252  49.015  1.00  0.00     0.190 HD
BRANCH  19  22
HETATM   22  C   UNL     1      20.350  48.217  47.307  1.00  0.00     0.146 C 
BRANCH  22  23
HETATM   23  C   UNL     1      19.951  49.431  48.124  1.00  0.00    -0.016 A 
HETATM   24  C   UNL     1      18.986  49.282  49.142  1.00  0.00     0.074 A 
HETATM   25  C   UNL     1      18.590  50.390  49.899  1.00  0.00     0.037 A 
HETATM   26  C   UNL     1      19.150  51.646  49.659  1.00  0.00     0.003 A 
HETATM   27  C   UNL     1      20.104  51.801  48.661  1.00  0.00     0.001 A 
HETATM   28  C   UNL     1      20.502  50.704  47.896  1.00  0.00     0.010 A 
BRANCH  24  29
HETATM   29  O   UNL     1      18.482  48.015  49.304  1.00  0.00    -0.355 OA
HETATM   30  C   UNL     1      17.115  47.812  48.964  1.00  0.00     0.210 C 
ENDBRANCH  24  29
ENDBRANCH  22  23
ENDBRANCH  19  22
ENDBRANCH   2  18
TORSDOF 7
ENDMDL
MODEL 9
REMARK VINA RESULT:      -8.4      1.546      2.519
REMARK  7 active torsions:
REMARK  status: ('A' for Active; 'I' for Inactive)
REMARK    1  A    between atoms: C_4  and  C_5 
REMARK    2  A    between atoms: C_8  and  C_9 
REMARK    3  A    between atoms: C_9  and  C_10 
REMARK       I    between atoms: C_10  and  N_11 
REMARK    4  A    between atoms: N_11  and  N_12 
REMARK       I    between atoms: N_12  and  C_13 
REMARK    5  A    between atoms: C_13  and  C_14 
REMARK    6  A    between atoms: C_14  and  C_15 
REMARK    7  A    between atoms: C_16  and  O_17 
ROOT
HETATM    1  C   UNL     1      25.079  45.138  50.193  1.00  0.00     0.241 C 
HETATM    2  N   UNL     1      24.318  45.581  49.130  1.00  0.00    -0.267 N 
HETATM    3  O   UNL     1      24.655  45.149  51.350  1.00  0.00    -0.271 OA
HETATM    4  H   UNL     1      24.725  45.818  48.223  1.00  0.00     0.190 HD
ENDROOT
BRANCH   1   5
HETATM    5  C   UNL     1      26.457  44.634  49.821  1.00  0.00     0.164 C 
BRANCH   5   6
HETATM    6  C   UNL     1      27.049  43.733  50.856  1.00  0.00     0.051 A 
HETATM    7  C   UNL     1      27.042  42.352  50.891  1.00  0.00     0.079 A 
HETATM    8  S   UNL     1      27.883  41.787  52.268  1.00  0.00    -0.079 SA
HETATM    9  C   UNL     1      28.232  43.413  52.726  1.00  0.00     0.108 A 
HETATM   10  N   UNL     1      27.745  44.324  51.904  1.00  0.00    -0.244 NA
BRANCH   9  11
HETATM   11  C   UNL     1      29.064  43.714  53.903  1.00  0.00     0.000 A 
HETATM   12  C   UNL     1      28.642  44.711  54.799  1.00  0.00     0.021 A 
HETATM   13  C   UNL     1      29.398  45.046  55.933  1.00  0.00    -0.061 A 
HETATM   14  C   UNL     1      28.957  46.148  56.849  1.00  0.00     0.048 C 
HETATM   15  C   UNL     1      30.601  44.373  56.169  1.00  0.00     0.007 A 
HETATM   16  C   UNL     1      31.028  43.371  55.300  1.00  0.00     0.001 A 
HETATM   17  C   UNL     1      30.264  43.041  54.178  1.00  0.00     0.014 A 
ENDBRANCH   9  11
ENDBRANCH   5   6
ENDBRANCH   1   5
BRANCH   2  18
HETATM   18  N   UNL     1      23.075  46.162  49.414  1.00  0.00    -0.267 N 
HETATM   19  C   UNL     1      22.190  46.357  48.373  1.00  0.00     0.240 C 
HETATM   20  O   UNL     1      22.416  45.940  47.236  1.00  0.00    -0.272 OA
HETATM   21  H   UNL     1      22.981  46.617  50.322  1.00  0.00     0.190 HD
BRANCH  19  22
HETATM   22  C   UNL     1      20.920  47.086  48.759  1.00  0.00     0.146 C 
BRANCH  22  23
HETATM   23  C   UNL     1      20.977  48.602  48.710  1.00  0.00    -0.016 A 
HETATM   24  C   UNL     1      19.904  49.343  49.249  1.00  0.00     0.074 A 
HETATM   25  C   UNL     1      19.926  50.741  49.201  1.00  0.00     0.037 A 
HETATM   26  C   UNL     1      21.008  51.411  48.629  1.00  0.00     0.003 A 
HETATM   27  C   UNL     1      22.071  50.689  48.098  1.00  0.00     0.001 A 
HETATM   28  C   UNL     1      22.056  49.294  48.135  1.00  0.00     0.010 A 
BRANCH  24  29
HETATM   29  O   UNL     1      18.879  48.603  49.784  1.00  0.00    -0.355 OA
HETATM   30  C   UNL     1      18.626  48.757  51.176  1.00  0.00     0.210 C 
ENDBRANCH  24  29
ENDBRANCH  22  23
ENDBRANCH  19  22
ENDBRANCH   2  18
TORSDOF 7
ENDMDL
MODEL 10
REMARK VINA RESULT:      -8.3      1.382      2.170
REMARK  7 active torsions:
REMARK  status: ('A' for Active; 'I' for Inactive)
REMARK    1  A    between atoms: C_4  and  C_5 
REMARK    2  A    between atoms: C_8  and  C_9 
REMARK    3  A    between atoms: C_9  and  C_10 
REMARK       I    between atoms: C_10  and  N_11 
REMARK    4  A    between atoms: N_11  and  N_12 
REMARK       I    between atoms: N_12  and  C_13 
REMARK    5  A    between atoms: C_13  and  C_14 
REMARK    6  A    between atoms: C_14  and  C_15 
REMARK    7  A    between atoms: C_16  and  O_17 
ROOT
HETATM    1  C   UNL     1      23.596  44.237  49.543  1.00  0.00     0.241 C 
HETATM    2  N   UNL     1      23.526  45.504  50.086  1.00  0.00    -0.267 N 
HETATM    3  O   UNL     1      23.522  44.041  48.328  1.00  0.00    -0.271 OA
HETATM    4  H   UNL     1      23.330  45.667  51.076  1.00  0.00     0.190 HD
ENDROOT
BRANCH   1   5
HETATM    5  C   UNL     1      23.778  43.122  50.551  1.00  0.00     0.164 C 
BRANCH   5   6
HETATM    6  C   UNL     1      25.167  43.048  51.096  1.00  0.00     0.051 A 
HETATM    7  C   UNL     1      26.216  42.263  50.656  1.00  0.00     0.079 A 
HETATM    8  S   UNL     1      27.617  42.563  51.591  1.00  0.00    -0.079 SA
HETATM    9  C   UNL     1      26.754  43.740  52.510  1.00  0.00     0.108 A 
HETATM   10  N   UNL     1      25.494  43.896  52.147  1.00  0.00    -0.244 NA
BRANCH   9  11
HETATM   11  C   UNL     1      27.422  44.531  53.558  1.00  0.00     0.000 A 
HETATM   12  C   UNL     1      26.898  45.790  53.899  1.00  0.00     0.021 A 
HETATM   13  C   UNL     1      27.496  46.591  54.883  1.00  0.00    -0.061 A 
HETATM   14  C   UNL     1      26.952  47.953  55.198  1.00  0.00     0.048 C 
HETATM   15  C   UNL     1      28.645  46.125  55.532  1.00  0.00     0.007 A 
HETATM   16  C   UNL     1      29.170  44.874  55.218  1.00  0.00     0.001 A 
HETATM   17  C   UNL     1      28.562  44.081  54.241  1.00  0.00     0.014 A 
ENDBRANCH   9  11
ENDBRANCH   5   6
ENDBRANCH   1   5
BRANCH   2  18
HETATM   18  N   UNL     1      23.249  46.570  49.222  1.00  0.00    -0.267 N 
HETATM   19  C   UNL     1      23.818  47.798  49.493  1.00  0.00     0.240 C 
HETATM   20  O   UNL     1      24.639  47.952  50.398  1.00  0.00    -0.272 OA
HETATM   21  H   UNL     1      22.467  46.445  48.579  1.00  0.00     0.190 HD
BRANCH  19  22
HETATM   22  C   UNL     1      23.376  48.912  48.567  1.00  0.00     0.146 C 
BRANCH  22  23
HETATM   23  C   UNL     1      22.081  49.612  48.933  1.00  0.00    -0.016 A 
HETATM   24  C   UNL     1      20.892  49.239  48.271  1.00  0.00     0.074 A 
HETATM   25  C   UNL     1      19.688  49.881  48.580  1.00  0.00     0.037 A 
HETATM   26  C   UNL     1      19.651  50.887  49.546  1.00  0.00     0.003 A 
HETATM   27  C   UNL     1      20.817  51.259  50.206  1.00  0.00     0.001 A 
HETATM   28  C   UNL     1      22.024  50.629  49.902  1.00  0.00     0.010 A 
BRANCH  24  29
HETATM   29  O   UNL     1      21.021  48.248  47.330  1.00  0.00    -0.355 OA
HETATM   30  C   UNL     1      20.218  47.085  47.498  1.00  0.00     0.210 C 
ENDBRANCH  24  29
ENDBRANCH  22  23
ENDBRANCH  19  22
ENDBRANCH   2  18
TORSDOF 7
ENDMDL
