MODEL 1
REMARK VINA RESULT:      -8.5      0.000      0.000
REMARK  6 active torsions:
REMARK  status: ('A' for Active; 'I' for Inactive)
REMARK    1  A    between atoms: C_3  and  C_4 
REMARK    2  A    between atoms: C_4  and  N_5 
REMARK    3  A    between atoms: N_5  and  C_6 
REMARK    4  A    between atoms: C_8  and  N_9 
REMARK    5  A    between atoms: C_11  and  N_12 
REMARK    6  A    between atoms: C_18  and  N_19 
ROOT
HETATM    1  C   UNL     1      26.209  46.249  52.914  1.00  0.00     0.110 A 
HETATM    2  N   UNL     1      25.775  44.981  52.891  1.00  0.00    -0.206 NA
HETATM    3  C   UNL     1      24.930  44.635  51.919  1.00  0.00     0.202 A 
HETATM    4  N   UNL     1      24.503  45.446  50.956  1.00  0.00    -0.199 NA
HETATM    5  C   UNL     1      24.966  46.717  50.995  1.00  0.00     0.156 A 
HETATM    6  C   UNL     1      25.842  47.168  51.961  1.00  0.00     0.096 A 
ENDROOT
BRANCH   1   7
HETATM    7  N   UNL     1      27.095  46.548  53.955  1.00  0.00    -0.273 NA
HETATM    8  H   UNL     1      27.987  46.613  53.464  1.00  0.00     0.129 HD
BRANCH   7   9
HETATM    9  C   UNL     1      27.150  45.533  55.009  1.00  0.00     0.134 C 
BRANCH   9  10
HETATM   10  C   UNL     1      28.565  45.086  55.366  1.00  0.00    -0.018 A 
HETATM   11  C   UNL     1      29.265  45.746  56.405  1.00  0.00     0.011 A 
HETATM   12  C   UNL     1      30.545  45.359  56.805  1.00  0.00     0.001 A 
HETATM   13  C   UNL     1      31.169  44.292  56.183  1.00  0.00     0.002 A 
HETATM   14  C   UNL     1      30.513  43.614  55.158  1.00  0.00     0.030 A 
HETATM   15  C   UNL     1      29.223  44.000  54.727  1.00  0.00     0.047 A 
BRANCH  15  16
HETATM   16  N   UNL     1      28.657  43.238  53.657  1.00  0.00    -0.315 N 
HETATM   17  C   UNL     1      27.775  42.181  53.712  1.00  0.00     0.214 A 
HETATM   18  N   UNL     1      27.467  41.706  52.524  1.00  0.00    -0.254 NA
HETATM   19  C   UNL     1      28.134  42.500  51.641  1.00  0.00     0.135 A 
HETATM   20  C   UNL     1      28.854  43.463  52.306  1.00  0.00     0.117 A 
ENDBRANCH  15  16
ENDBRANCH   9  10
ENDBRANCH   7   9
ENDBRANCH   1   7
BRANCH   3  21
HETATM   21  N   UNL     1      24.496  43.327  51.889  1.00  0.00    -0.271 NA
HETATM   22  H   UNL     1      25.228  42.733  51.523  1.00  0.00     0.127 HD
HETATM   23  H   UNL     1      23.593  43.273  51.440  1.00  0.00     0.127 HD
ENDBRANCH   3  21
BRANCH   5  24
HETATM   24  N   UNL     1      24.517  47.623  49.990  1.00  0.00    -0.227 N 
HETATM   25  N   UNL     1      25.274  48.670  49.560  1.00  0.00    -0.179 NA
HETATM   26  C   UNL     1      24.509  49.281  48.653  1.00  0.00     0.141 A 
HETATM   27  C   UNL     1      23.269  48.649  48.475  1.00  0.00     0.040 A 
HETATM   28  C   UNL     1      23.298  47.585  49.344  1.00  0.00     0.122 A 
ENDBRANCH   5  24
TORSDOF 6
ENDMDL
MODEL 2
REMARK VINA RESULT:      -8.5      1.510      2.200
REMARK  6 active torsions:
REMARK  status: ('A' for Active; 'I' for Inactive)
REMARK    1  A    between atoms: C_3  and  C_4 
REMARK    2  A    between atoms: C_4  and  N_5 
REMARK    3  A    between atoms: N_5  and  C_6 
REMARK    4  A    between atoms: C_8  and  N_9 
REMARK    5  A    between atoms: C_11  and  N_12 
REMARK    6  A    between atoms: C_18  and  N_19 
ROOT
HETATM    1  C   UNL     1      25.686  46.066  52.543  1.00  0.00     0.110 A 
HETATM    2  N   UNL     1      24.783  45.137  52.201  1.00  0.00    -0.206 NA
HETATM    3  C   UNL     1      24.154  45.286  51.034  1.00  0.00     0.202 A 
HETATM    4  N   UNL     1      24.374  46.274  50.171  1.00  0.00    -0.199 NA
HETATM    5  C   UNL     1      25.300  47.191  50.535  1.00  0.00     0.156 A 
HETATM    6  C   UNL     1      26.000  47.122  51.723  1.00  0.00     0.096 A 
ENDROOT
BRANCH   1   7
HETATM    7  N   UNL     1      26.311  45.851  53.776  1.00  0.00    -0.273 NA
HETATM    8  H   UNL     1      27.211  46.313  53.642  1.00  0.00     0.129 HD
BRANCH   7   9
HETATM    9  C   UNL     1      26.493  44.440  54.122  1.00  0.00     0.134 C 
BRANCH   9  10
HETATM   10  C   UNL     1      27.931  43.947  53.981  1.00  0.00    -0.018 A 
HETATM   11  C   UNL     1      28.808  44.026  55.090  1.00  0.00     0.011 A 
HETATM   12  C   UNL     1      30.122  43.557  55.038  1.00  0.00     0.001 A 
HETATM   13  C   UNL     1      30.604  42.986  53.873  1.00  0.00     0.002 A 
HETATM   14  C   UNL     1      29.772  42.887  52.760  1.00  0.00     0.030 A 
HETATM   15  C   UNL     1      28.444  43.370  52.788  1.00  0.00     0.047 A 
BRANCH  15  16
HETATM   16  N   UNL     1      27.691  43.227  51.579  1.00  0.00    -0.315 N 
HETATM   17  C   UNL     1      27.665  44.041  50.468  1.00  0.00     0.214 A 
HETATM   18  N   UNL     1      26.845  43.611  49.534  1.00  0.00    -0.254 NA
HETATM   19  C   UNL     1      26.335  42.445  50.020  1.00  0.00     0.135 A 
HETATM   20  C   UNL     1      26.854  42.171  51.262  1.00  0.00     0.117 A 
ENDBRANCH  15  16
ENDBRANCH   9  10
ENDBRANCH   7   9
ENDBRANCH   1   7
BRANCH   3  21
HETATM   21  N   UNL     1      23.236  44.322  50.677  1.00  0.00    -0.271 NA
HETATM   22  H   UNL     1      22.545  44.222  51.409  1.00  0.00     0.127 HD
HETATM   23  H   UNL     1      23.714  43.484  50.380  1.00  0.00     0.127 HD
ENDBRANCH   3  21
BRANCH   5  24
HETATM   24  N   UNL     1      25.551  48.277  49.647  1.00  0.00    -0.227 N 
HETATM   25  N   UNL     1      24.552  49.050  49.138  1.00  0.00    -0.179 NA
HETATM   26  C   UNL     1      25.178  49.923  48.347  1.00  0.00     0.141 A 
HETATM   27  C   UNL     1      26.570  49.742  48.334  1.00  0.00     0.040 A 
HETATM   28  C   UNL     1      26.786  48.680  49.178  1.00  0.00     0.122 A 
ENDBRANCH   5  24
TORSDOF 6
ENDMDL
MODEL 3
REMARK VINA RESULT:      -8.2      1.642      3.310
REMARK  6 active torsions:
REMARK  status: ('A' for Active; 'I' for Inactive)
REMARK    1  A    between atoms: C_3  and  C_4 
REMARK    2  A    between atoms: C_4  and  N_5 
REMARK    3  A    between atoms: N_5  and  C_6 
REMARK    4  A    between atoms: C_8  and  N_9 
REMARK    5  A    between atoms: C_11  and  N_12 
REMARK    6  A    between atoms: C_18  and  N_19 
ROOT
HETATM    1  C   UNL     1      25.462  45.552  52.658  1.00  0.00     0.110 A 
HETATM    2  N   UNL     1      24.538  44.690  52.211  1.00  0.00    -0.206 NA
HETATM    3  C   UNL     1      23.999  44.929  51.014  1.00  0.00     0.202 A 
HETATM    4  N   UNL     1      24.326  45.944  50.219  1.00  0.00    -0.199 NA
HETATM    5  C   UNL     1      25.270  46.792  50.690  1.00  0.00     0.156 A 
HETATM    6  C   UNL     1      25.883  46.629  51.916  1.00  0.00     0.096 A 
ENDROOT
BRANCH   1   7
HETATM    7  N   UNL     1      25.990  45.245  53.917  1.00  0.00    -0.273 NA
HETATM    8  H   UNL     1      25.344  45.728  54.542  1.00  0.00     0.129 HD
BRANCH   7   9
HETATM    9  C   UNL     1      27.364  45.709  54.123  1.00  0.00     0.134 C 
BRANCH   9  10
HETATM   10  C   UNL     1      28.418  44.617  53.961  1.00  0.00    -0.018 A 
HETATM   11  C   UNL     1      28.426  43.822  52.790  1.00  0.00     0.011 A 
HETATM   12  C   UNL     1      29.387  42.835  52.563  1.00  0.00     0.001 A 
HETATM   13  C   UNL     1      30.379  42.612  53.501  1.00  0.00     0.002 A 
HETATM   14  C   UNL     1      30.408  43.375  54.667  1.00  0.00     0.030 A 
HETATM   15  C   UNL     1      29.436  44.369  54.921  1.00  0.00     0.047 A 
BRANCH  15  16
HETATM   16  N   UNL     1      29.561  45.076  56.159  1.00  0.00    -0.315 N 
HETATM   17  C   UNL     1      28.658  45.913  56.777  1.00  0.00     0.214 A 
HETATM   18  N   UNL     1      29.107  46.406  57.911  1.00  0.00    -0.254 NA
HETATM   19  C   UNL     1      30.338  45.846  58.078  1.00  0.00     0.135 A 
HETATM   20  C   UNL     1      30.633  45.008  57.031  1.00  0.00     0.117 A 
ENDBRANCH  15  16
ENDBRANCH   9  10
ENDBRANCH   7   9
ENDBRANCH   1   7
BRANCH   3  21
HETATM   21  N   UNL     1      23.060  44.033  50.549  1.00  0.00    -0.271 NA
HETATM   22  H   UNL     1      22.136  44.439  50.620  1.00  0.00     0.127 HD
HETATM   23  H   UNL     1      23.200  43.131  50.982  1.00  0.00     0.127 HD
ENDBRANCH   3  21
BRANCH   5  24
HETATM   24  N   UNL     1      25.634  47.904  49.877  1.00  0.00    -0.227 N 
HETATM   25  N   UNL     1      24.715  48.777  49.379  1.00  0.00    -0.179 NA
HETATM   26  C   UNL     1      25.434  49.644  48.664  1.00  0.00     0.141 A 
HETATM   27  C   UNL     1      26.809  49.361  48.692  1.00  0.00     0.040 A 
HETATM   28  C   UNL     1      26.913  48.240  49.479  1.00  0.00     0.122 A 
ENDBRANCH   5  24
TORSDOF 6
ENDMDL
MODEL 4
REMARK VINA RESULT:      -8.1      1.932      7.884
REMARK  6 active torsions:
REMARK  status: ('A' for Active; 'I' for Inactive)
REMARK    1  A    between atoms: C_3  and  C_4 
REMARK    2  A    between atoms: C_4  and  N_5 
REMARK    3  A    between atoms: N_5  and  C_6 
REMARK    4  A    between atoms: C_8  and  N_9 
REMARK    5  A    between atoms: C_11  and  N_12 
REMARK    6  A    between atoms: C_18  and  N_19 
ROOT
HETATM    1  C   UNL     1      26.211  46.269  52.555  1.00  0.00     0.110 A 
HETATM    2  N   UNL     1      25.664  47.303  53.210  1.00  0.00    -0.206 NA
HETATM    3  C   UNL     1      26.156  47.601  54.413  1.00  0.00     0.202 A 
HETATM    4  N   UNL     1      27.165  46.967  55.003  1.00  0.00    -0.199 NA
HETATM    5  C   UNL     1      27.707  45.935  54.314  1.00  0.00     0.156 A 
HETATM    6  C   UNL     1      27.265  45.551  53.065  1.00  0.00     0.096 A 
ENDROOT
BRANCH   1   7
HETATM    7  N   UNL     1      25.652  46.009  51.298  1.00  0.00    -0.273 NA
HETATM    8  H   UNL     1      26.477  45.993  50.698  1.00  0.00     0.129 HD
BRANCH   7   9
HETATM    9  C   UNL     1      24.694  47.019  50.844  1.00  0.00     0.134 C 
BRANCH   9  10
HETATM   10  C   UNL     1      25.291  48.061  49.902  1.00  0.00    -0.018 A 
HETATM   11  C   UNL     1      26.697  48.199  49.813  1.00  0.00     0.011 A 
HETATM   12  C   UNL     1      27.305  49.105  48.942  1.00  0.00     0.001 A 
HETATM   13  C   UNL     1      26.526  49.903  48.124  1.00  0.00     0.002 A 
HETATM   14  C   UNL     1      25.138  49.797  48.179  1.00  0.00     0.030 A 
HETATM   15  C   UNL     1      24.502  48.897  49.064  1.00  0.00     0.047 A 
BRANCH  15  16
HETATM   16  N   UNL     1      23.072  48.887  49.042  1.00  0.00    -0.315 N 
HETATM   17  C   UNL     1      22.188  49.820  49.539  1.00  0.00     0.214 A 
HETATM   18  N   UNL     1      20.929  49.486  49.352  1.00  0.00    -0.254 NA
HETATM   19  C   UNL     1      20.973  48.308  48.670  1.00  0.00     0.135 A 
HETATM   20  C   UNL     1      22.274  47.928  48.444  1.00  0.00     0.117 A 
ENDBRANCH  15  16
ENDBRANCH   9  10
ENDBRANCH   7   9
ENDBRANCH   1   7
BRANCH   3  21
HETATM   21  N   UNL     1      25.602  48.673  55.079  1.00  0.00    -0.271 NA
HETATM   22  H   UNL     1      25.446  49.434  54.432  1.00  0.00     0.127 HD
HETATM   23  H   UNL     1      26.140  48.880  55.909  1.00  0.00     0.127 HD
ENDBRANCH   3  21
BRANCH   5  24
HETATM   24  N   UNL     1      28.778  45.217  54.920  1.00  0.00    -0.227 N 
HETATM   25  N   UNL     1      29.504  45.723  55.955  1.00  0.00    -0.179 NA
HETATM   26  C   UNL     1      30.409  44.779  56.218  1.00  0.00     0.141 A 
HETATM   27  C   UNL     1      30.285  43.660  55.381  1.00  0.00     0.040 A 
HETATM   28  C   UNL     1      29.229  43.964  54.556  1.00  0.00     0.122 A 
ENDBRANCH   5  24
TORSDOF 6
ENDMDL
MODEL 5
REMARK VINA RESULT:      -8.1      1.595      3.162
REMARK  6 active torsions:
REMARK  status: ('A' for Active; 'I' for Inactive)
REMARK    1  A    between atoms: C_3  and  C_4 
REMARK    2  A    between atoms: C_4  and  N_5 
REMARK    3  A    between atoms: N_5  and  C_6 
REMARK    4  A    between atoms: C_8  and  N_9 
REMARK    5  A    between atoms: C_11  and  N_12 
REMARK    6  A    between atoms: C_18  and  N_19 
ROOT
HETATM    1  C   UNL     1      26.292  46.215  52.680  1.00  0.00     0.110 A 
HETATM    2  N   UNL     1      25.590  47.224  52.145  1.00  0.00    -0.206 NA
HETATM    3  C   UNL     1      24.984  47.003  50.977  1.00  0.00     0.202 A 
HETATM    4  N   UNL     1      25.004  45.850  50.314  1.00  0.00    -0.199 NA
HETATM    5  C   UNL     1      25.710  44.845  50.883  1.00  0.00     0.156 A 
HETATM    6  C   UNL     1      26.370  44.978  52.087  1.00  0.00     0.096 A 
ENDROOT
BRANCH   1   7
HETATM    7  N   UNL     1      26.901  46.509  53.906  1.00  0.00    -0.273 NA
HETATM    8  H   UNL     1      27.823  46.833  53.613  1.00  0.00     0.129 HD
BRANCH   7   9
HETATM    9  C   UNL     1      27.012  45.365  54.813  1.00  0.00     0.134 C 
BRANCH   9  10
HETATM   10  C   UNL     1      28.433  45.095  55.300  1.00  0.00    -0.018 A 
HETATM   11  C   UNL     1      28.992  45.912  56.312  1.00  0.00     0.011 A 
HETATM   12  C   UNL     1      30.270  45.692  56.828  1.00  0.00     0.001 A 
HETATM   13  C   UNL     1      31.034  44.641  56.351  1.00  0.00     0.002 A 
HETATM   14  C   UNL     1      30.519  43.812  55.357  1.00  0.00     0.030 A 
HETATM   15  C   UNL     1      29.234  44.026  54.811  1.00  0.00     0.047 A 
BRANCH  15  16
HETATM   16  N   UNL     1      28.820  43.119  53.785  1.00  0.00    -0.315 N 
HETATM   17  C   UNL     1      29.301  42.978  52.502  1.00  0.00     0.214 A 
HETATM   18  N   UNL     1      28.678  42.042  51.819  1.00  0.00    -0.254 NA
HETATM   19  C   UNL     1      27.776  41.510  52.690  1.00  0.00     0.135 A 
HETATM   20  C   UNL     1      27.856  42.135  53.910  1.00  0.00     0.117 A 
ENDBRANCH  15  16
ENDBRANCH   9  10
ENDBRANCH   7   9
ENDBRANCH   1   7
BRANCH   3  21
HETATM   21  N   UNL     1      24.251  48.037  50.435  1.00  0.00    -0.271 NA
HETATM   22  H   UNL     1      24.629  48.922  50.744  1.00  0.00     0.127 HD
HETATM   23  H   UNL     1      23.265  47.879  50.591  1.00  0.00     0.127 HD
ENDBRANCH   3  21
BRANCH   5  24
HETATM   24  N   UNL     1      25.771  43.599  50.194  1.00  0.00    -0.227 N 
HETATM   25  N   UNL     1      26.723  43.328  49.259  1.00  0.00    -0.179 NA
HETATM   26  C   UNL     1      26.433  42.095  48.838  1.00  0.00     0.141 A 
HETATM   27  C   UNL     1      25.313  41.551  49.485  1.00  0.00     0.040 A 
HETATM   28  C   UNL     1      24.906  42.535  50.353  1.00  0.00     0.122 A 
ENDBRANCH   5  24
TORSDOF 6
ENDMDL
MODEL 6
REMARK VINA RESULT:      -8.0      1.873      3.432
REMARK  6 active torsions:
REMARK  status: ('A' for Active; 'I' for Inactive)
REMARK    1  A    between atoms: C_3  and  C_4 
REMARK    2  A    between atoms: C_4  and  N_5 
REMARK    3  A    between atoms: N_5  and  C_6 
REMARK    4  A    between atoms: C_8  and  N_9 
REMARK    5  A    between atoms: C_11  and  N_12 
REMARK    6  A    between atoms: C_18  and  N_19 
ROOT
HETATM    1  C   UNL     1      25.696  46.591  50.238  1.00  0.00     0.110 A 
HETATM    2  N   UNL     1      26.805  47.201  49.796  1.00  0.00    -0.206 NA
HETATM    3  C   UNL     1      26.666  48.405  49.237  1.00  0.00     0.202 A 
HETATM    4  N   UNL     1      25.514  49.056  49.107  1.00  0.00    -0.199 NA
HETATM    5  C   UNL     1      24.413  48.423  49.573  1.00  0.00     0.156 A 
HETATM    6  C   UNL     1      24.456  47.177  50.164  1.00  0.00     0.096 A 
ENDROOT
BRANCH   1   7
HETATM    7  N   UNL     1      25.909  45.334  50.815  1.00  0.00    -0.273 NA
HETATM    8  H   UNL     1      25.416  44.717  50.169  1.00  0.00     0.129 HD
BRANCH   7   9
HETATM    9  C   UNL     1      25.382  45.198  52.174  1.00  0.00     0.134 C 
BRANCH   9  10
HETATM   10  C   UNL     1      26.254  45.847  53.246  1.00  0.00    -0.018 A 
HETATM   11  C   UNL     1      25.914  47.130  53.740  1.00  0.00     0.011 A 
HETATM   12  C   UNL     1      26.647  47.760  54.748  1.00  0.00     0.001 A 
HETATM   13  C   UNL     1      27.746  47.126  55.299  1.00  0.00     0.002 A 
HETATM   14  C   UNL     1      28.113  45.862  54.842  1.00  0.00     0.030 A 
HETATM   15  C   UNL     1      27.393  45.213  53.813  1.00  0.00     0.047 A 
BRANCH  15  16
HETATM   16  N   UNL     1      27.873  43.925  53.417  1.00  0.00    -0.315 N 
HETATM   17  C   UNL     1      28.767  43.599  52.420  1.00  0.00     0.214 A 
HETATM   18  N   UNL     1      28.978  42.304  52.323  1.00  0.00    -0.254 NA
HETATM   19  C   UNL     1      28.231  41.748  53.318  1.00  0.00     0.135 A 
HETATM   20  C   UNL     1      27.561  42.720  54.020  1.00  0.00     0.117 A 
ENDBRANCH  15  16
ENDBRANCH   9  10
ENDBRANCH   7   9
ENDBRANCH   1   7
BRANCH   3  21
HETATM   21  N   UNL     1      27.809  49.038  48.797  1.00  0.00    -0.271 NA
HETATM   22  H   UNL     1      27.583  49.972  48.483  1.00  0.00     0.127 HD
HETATM   23  H   UNL     1      28.305  48.442  48.148  1.00  0.00     0.127 HD
ENDBRANCH   3  21
BRANCH   5  24
HETATM   24  N   UNL     1      23.155  49.079  49.434  1.00  0.00    -0.227 N 
HETATM   25  N   UNL     1      22.983  50.397  49.730  1.00  0.00    -0.179 NA
HETATM   26  C   UNL     1      21.689  50.623  49.498  1.00  0.00     0.141 A 
HETATM   27  C   UNL     1      21.011  49.480  49.047  1.00  0.00     0.040 A 
HETATM   28  C   UNL     1      21.975  48.501  49.012  1.00  0.00     0.122 A 
ENDBRANCH   5  24
TORSDOF 6
ENDMDL
MODEL 7
REMARK VINA RESULT:      -7.9      1.605      3.233
REMARK  6 active torsions:
REMARK  status: ('A' for Active; 'I' for Inactive)
REMARK    1  A    between atoms: C_3  and  C_4 
REMARK    2  A    between atoms: C_4  and  N_5 
REMARK    3  A    between atoms: N_5  and  C_6 
REMARK    4  A    between atoms: C_8  and  N_9 
REMARK    5  A    between atoms: C_11  and  N_12 
REMARK    6  A    between atoms: C_18  and  N_19 
ROOT
HETATM    1  C   UNL     1      26.385  44.870  51.461  1.00  0.00     0.110 A 
HETATM    2  N   UNL     1      25.179  44.287  51.426  1.00  0.00    -0.206 NA
HETATM    3  C   UNL     1      24.201  44.928  50.783  1.00  0.00     0.202 A 
HETATM    4  N   UNL     1      24.339  46.090  50.152  1.00  0.00    -0.199 NA
HETATM    5  C   UNL     1      25.570  46.651  50.193  1.00  0.00     0.156 A 
HETATM    6  C   UNL     1      26.642  46.065  50.834  1.00  0.00     0.096 A 
ENDROOT
BRANCH   1   7
HETATM    7  N   UNL     1      27.367  44.146  52.148  1.00  0.00    -0.273 NA
HETATM    8  H   UNL     1      27.317  43.235  51.693  1.00  0.00     0.129 HD
BRANCH   7   9
HETATM    9  C   UNL     1      27.130  44.026  53.588  1.00  0.00     0.134 C 
BRANCH   9  10
HETATM   10  C   UNL     1      28.382  44.215  54.441  1.00  0.00    -0.018 A 
HETATM   11  C   UNL     1      29.354  43.187  54.490  1.00  0.00     0.011 A 
HETATM   12  C   UNL     1      30.539  43.315  55.219  1.00  0.00     0.001 A 
HETATM   13  C   UNL     1      30.793  44.479  55.922  1.00  0.00     0.002 A 
HETATM   14  C   UNL     1      29.862  45.515  55.897  1.00  0.00     0.030 A 
HETATM   15  C   UNL     1      28.651  45.401  55.178  1.00  0.00     0.047 A 
BRANCH  15  16
HETATM   16  N   UNL     1      27.767  46.524  55.239  1.00  0.00    -0.315 N 
HETATM   17  C   UNL     1      27.032  47.109  54.232  1.00  0.00     0.214 A 
HETATM   18  N   UNL     1      26.326  48.140  54.642  1.00  0.00    -0.254 NA
HETATM   19  C   UNL     1      26.566  48.223  55.981  1.00  0.00     0.135 A 
HETATM   20  C   UNL     1      27.428  47.230  56.379  1.00  0.00     0.117 A 
ENDBRANCH  15  16
ENDBRANCH   9  10
ENDBRANCH   7   9
ENDBRANCH   1   7
BRANCH   3  21
HETATM   21  N   UNL     1      22.965  44.319  50.735  1.00  0.00    -0.271 NA
HETATM   22  H   UNL     1      22.425  44.704  49.972  1.00  0.00     0.127 HD
HETATM   23  H   UNL     1      22.539  44.332  51.652  1.00  0.00     0.127 HD
ENDBRANCH   3  21
BRANCH   5  24
HETATM   24  N   UNL     1      25.754  47.907  49.546  1.00  0.00    -0.227 N 
HETATM   25  N   UNL     1      24.711  48.720  49.219  1.00  0.00    -0.179 NA
HETATM   26  C   UNL     1      25.282  49.766  48.619  1.00  0.00     0.141 A 
HETATM   27  C   UNL     1      26.679  49.659  48.555  1.00  0.00     0.040 A 
HETATM   28  C   UNL     1      26.960  48.457  49.158  1.00  0.00     0.122 A 
ENDBRANCH   5  24
TORSDOF 6
ENDMDL
MODEL 8
REMARK VINA RESULT:      -7.8      2.103      4.245
REMARK  6 active torsions:
REMARK  status: ('A' for Active; 'I' for Inactive)
REMARK    1  A    between atoms: C_3  and  C_4 
REMARK    2  A    between atoms: C_4  and  N_5 
REMARK    3  A    between atoms: N_5  and  C_6 
REMARK    4  A    between atoms: C_8  and  N_9 
REMARK    5  A    between atoms: C_11  and  N_12 
REMARK    6  A    between atoms: C_18  and  N_19 
ROOT
HETATM    1  C   UNL     1      26.359  46.807  49.736  1.00  0.00     0.110 A 
HETATM    2  N   UNL     1      27.324  47.663  49.372  1.00  0.00    -0.206 NA
HETATM    3  C   UNL     1      26.954  48.888  48.995  1.00  0.00     0.202 A 
HETATM    4  N   UNL     1      25.701  49.333  48.977  1.00  0.00    -0.199 NA
HETATM    5  C   UNL     1      24.747  48.452  49.361  1.00  0.00     0.156 A 
HETATM    6  C   UNL     1      25.033  47.165  49.765  1.00  0.00     0.096 A 
ENDROOT
BRANCH   1   7
HETATM    7  N   UNL     1      26.812  45.541  50.123  1.00  0.00    -0.273 NA
HETATM    8  H   UNL     1      26.489  44.955  49.353  1.00  0.00     0.129 HD
BRANCH   7   9
HETATM    9  C   UNL     1      26.273  45.072  51.401  1.00  0.00     0.134 C 
BRANCH   9  10
HETATM   10  C   UNL     1      27.325  44.493  52.344  1.00  0.00    -0.018 A 
HETATM   11  C   UNL     1      28.016  43.313  51.978  1.00  0.00     0.011 A 
HETATM   12  C   UNL     1      29.016  42.756  52.777  1.00  0.00     0.001 A 
HETATM   13  C   UNL     1      29.364  43.364  53.970  1.00  0.00     0.002 A 
HETATM   14  C   UNL     1      28.709  44.529  54.365  1.00  0.00     0.030 A 
HETATM   15  C   UNL     1      27.684  45.100  53.578  1.00  0.00     0.047 A 
BRANCH  15  16
HETATM   16  N   UNL     1      27.074  46.287  54.094  1.00  0.00    -0.315 N 
HETATM   17  C   UNL     1      25.889  46.888  53.727  1.00  0.00     0.214 A 
HETATM   18  N   UNL     1      25.635  47.983  54.409  1.00  0.00    -0.254 NA
HETATM   19  C   UNL     1      26.665  48.097  55.293  1.00  0.00     0.135 A 
HETATM   20  C   UNL     1      27.551  47.059  55.139  1.00  0.00     0.117 A 
ENDBRANCH  15  16
ENDBRANCH   9  10
ENDBRANCH   7   9
ENDBRANCH   1   7
BRANCH   3  21
HETATM   21  N   UNL     1      27.949  49.771  48.635  1.00  0.00    -0.271 NA
HETATM   22  H   UNL     1      28.683  49.760  49.330  1.00  0.00     0.127 HD
HETATM   23  H   UNL     1      27.546  50.669  48.406  1.00  0.00     0.127 HD
ENDBRANCH   3  21
BRANCH   5  24
HETATM   24  N   UNL     1      23.390  48.885  49.336  1.00  0.00    -0.227 N 
HETATM   25  N   UNL     1      23.016  50.140  49.708  1.00  0.00    -0.179 NA
HETATM   26  C   UNL     1      21.689  50.146  49.570  1.00  0.00     0.141 A 
HETATM   27  C   UNL     1      21.186  48.920  49.107  1.00  0.00     0.040 A 
HETATM   28  C   UNL     1      22.298  48.126  48.962  1.00  0.00     0.122 A 
ENDBRANCH   5  24
TORSDOF 6
ENDMDL
MODEL 9
REMARK VINA RESULT:      -7.8      3.190      6.163
REMARK  6 active torsions:
REMARK  status: ('A' for Active; 'I' for Inactive)
REMARK    1  A    between atoms: C_3  and  C_4 
REMARK    2  A    between atoms: C_4  and  N_5 
REMARK    3  A    between atoms: N_5  and  C_6 
REMARK    4  A    between atoms: C_8  and  N_9 
REMARK    5  A    between atoms: C_11  and  N_12 
REMARK    6  A    between atoms: C_18  and  N_19 
ROOT
HETATM    1  C   UNL     1      28.171  41.931  52.871  1.00  0.00     0.110 A 
HETATM    2  N   UNL     1      27.119  42.614  52.398  1.00  0.00    -0.206 NA
HETATM    3  C   UNL     1      26.632  42.252  51.210  1.00  0.00     0.202 A 
HETATM    4  N   UNL     1      27.095  41.249  50.470  1.00  0.00    -0.199 NA
HETATM    5  C   UNL     1      28.150  40.569  50.977  1.00  0.00     0.156 A 
HETATM    6  C   UNL     1      28.723  40.870  52.195  1.00  0.00     0.096 A 
ENDROOT
BRANCH   1   7
HETATM    7  N   UNL     1      28.633  42.358  54.122  1.00  0.00    -0.273 NA
HETATM    8  H   UNL     1      27.786  42.740  54.542  1.00  0.00     0.129 HD
BRANCH   7   9
HETATM    9  C   UNL     1      29.690  43.370  54.061  1.00  0.00     0.134 C 
BRANCH   9  10
HETATM   10  C   UNL     1      30.094  43.927  55.423  1.00  0.00    -0.018 A 
HETATM   11  C   UNL     1      31.115  43.285  56.165  1.00  0.00     0.011 A 
HETATM   12  C   UNL     1      31.558  43.768  57.398  1.00  0.00     0.001 A 
HETATM   13  C   UNL     1      30.997  44.915  57.930  1.00  0.00     0.002 A 
HETATM   14  C   UNL     1      29.991  45.578  57.230  1.00  0.00     0.030 A 
HETATM   15  C   UNL     1      29.519  45.098  55.988  1.00  0.00     0.047 A 
BRANCH  15  16
HETATM   16  N   UNL     1      28.473  45.854  55.371  1.00  0.00    -0.315 N 
HETATM   17  C   UNL     1      28.498  47.147  54.895  1.00  0.00     0.214 A 
HETATM   18  N   UNL     1      27.345  47.533  54.394  1.00  0.00    -0.254 NA
HETATM   19  C   UNL     1      26.531  46.446  54.499  1.00  0.00     0.135 A 
HETATM   20  C   UNL     1      27.202  45.394  55.073  1.00  0.00     0.117 A 
ENDBRANCH  15  16
ENDBRANCH   9  10
ENDBRANCH   7   9
ENDBRANCH   1   7
BRANCH   3  21
HETATM   21  N   UNL     1      25.540  42.944  50.732  1.00  0.00    -0.271 NA
HETATM   22  H   UNL     1      25.825  43.868  50.436  1.00  0.00     0.127 HD
HETATM   23  H   UNL     1      24.779  42.888  51.394  1.00  0.00     0.127 HD
ENDBRANCH   3  21
BRANCH   5  24
HETATM   24  N   UNL     1      28.689  39.499  50.205  1.00  0.00    -0.227 N 
HETATM   25  N   UNL     1      29.458  38.518  50.753  1.00  0.00    -0.179 NA
HETATM   26  C   UNL     1      29.781  37.735  49.722  1.00  0.00     0.141 A 
HETATM   27  C   UNL     1      29.231  38.179  48.510  1.00  0.00     0.040 A 
HETATM   28  C   UNL     1      28.532  39.314  48.846  1.00  0.00     0.122 A 
ENDBRANCH   5  24
TORSDOF 6
ENDMDL
MODEL 10
REMARK VINA RESULT:      -7.7      2.357      4.181
REMARK  6 active torsions:
REMARK  status: ('A' for Active; 'I' for Inactive)
REMARK    1  A    between atoms: C_3  and  C_4 
REMARK    2  A    between atoms: C_4  and  N_5 
REMARK    3  A    between atoms: N_5  and  C_6 
REMARK    4  A    between atoms: C_8  and  N_9 
REMARK    5  A    between atoms: C_11  and  N_12 
REMARK    6  A    between atoms: C_18  and  N_19 
ROOT
HETATM    1  C   UNL     1      27.379  41.983  51.820  1.00  0.00     0.110 A 
HETATM    2  N   UNL     1      27.349  40.701  51.431  1.00  0.00    -0.206 NA
HETATM    3  C   UNL     1      26.350  40.322  50.631  1.00  0.00     0.202 A 
HETATM    4  N   UNL     1      25.396  41.125  50.170  1.00  0.00    -0.199 NA
HETATM    5  C   UNL     1      25.458  42.417  50.569  1.00  0.00     0.156 A 
HETATM    6  C   UNL     1      26.450  42.902  51.396  1.00  0.00     0.096 A 
ENDROOT
BRANCH   1   7
HETATM    7  N   UNL     1      28.451  42.318  52.655  1.00  0.00    -0.273 NA
HETATM    8  H   UNL     1      28.245  41.774  53.494  1.00  0.00     0.129 HD
BRANCH   7   9
HETATM    9  C   UNL     1      28.549  43.745  52.967  1.00  0.00     0.134 C 
BRANCH   9  10
HETATM   10  C   UNL     1      29.266  44.045  54.281  1.00  0.00    -0.018 A 
HETATM   11  C   UNL     1      30.370  43.249  54.672  1.00  0.00     0.011 A 
HETATM   12  C   UNL     1      31.092  43.497  55.841  1.00  0.00     0.001 A 
HETATM   13  C   UNL     1      30.736  44.554  56.660  1.00  0.00     0.002 A 
HETATM   14  C   UNL     1      29.657  45.362  56.310  1.00  0.00     0.030 A 
HETATM   15  C   UNL     1      28.904  45.120  55.138  1.00  0.00     0.047 A 
BRANCH  15  16
HETATM   16  N   UNL     1      27.810  46.008  54.892  1.00  0.00    -0.315 N 
HETATM   17  C   UNL     1      26.488  45.711  54.641  1.00  0.00     0.214 A 
HETATM   18  N   UNL     1      25.749  46.781  54.448  1.00  0.00    -0.254 NA
HETATM   19  C   UNL     1      26.597  47.833  54.618  1.00  0.00     0.135 A 
HETATM   20  C   UNL     1      27.863  47.390  54.914  1.00  0.00     0.117 A 
ENDBRANCH  15  16
ENDBRANCH   9  10
ENDBRANCH   7   9
ENDBRANCH   1   7
BRANCH   3  21
HETATM   21  N   UNL     1      26.329  39.006  50.219  1.00  0.00    -0.271 NA
HETATM   22  H   UNL     1      25.890  38.434  50.928  1.00  0.00     0.127 HD
HETATM   23  H   UNL     1      27.249  38.727  49.909  1.00  0.00     0.127 HD
ENDBRANCH   3  21
BRANCH   5  24
HETATM   24  N   UNL     1      24.442  43.307  50.112  1.00  0.00    -0.227 N 
HETATM   25  N   UNL     1      23.122  43.105  50.379  1.00  0.00    -0.179 NA
HETATM   26  C   UNL     1      22.503  44.120  49.772  1.00  0.00     0.141 A 
HETATM   27  C   UNL     1      23.393  44.987  49.121  1.00  0.00     0.040 A 
HETATM   28  C   UNL     1      24.634  44.445  49.355  1.00  0.00     0.122 A 
ENDBRANCH   5  24
TORSDOF 6
ENDMDL
