MODEL 1
REMARK VINA RESULT:     -11.3      0.000      0.000
REMARK  5 active torsions:
REMARK  status: ('A' for Active; 'I' for Inactive)
REMARK    1  A    between atoms: C_4  and  N_5 
REMARK    2  A    between atoms: C_7  and  C_8 
REMARK       I    between atoms: C_8  and  N_9 
REMARK    3  A    between atoms: N_9  and  N_10 
REMARK       I    between atoms: N_10  and  C_11 
REMARK    4  A    between atoms: C_11  and  C_12 
REMARK    5  A    between atoms: C_16  and  C_17 
ROOT
HETATM    1  C   UNL     1      25.546  44.855  50.368  1.00  0.00     0.286 C 
HETATM    2  N   UNL     1      24.883  45.868  51.021  1.00  0.00    -0.262 N 
HETATM    3  O   UNL     1      25.539  44.694  49.155  1.00  0.00    -0.264 OA
HETATM    4  H   UNL     1      24.886  45.967  52.037  1.00  0.00     0.190 HD
ENDROOT
BRANCH   2   5
HETATM    5  N   UNL     1      24.135  46.761  50.253  1.00  0.00    -0.262 N 
HETATM    6  C   UNL     1      24.675  47.967  49.861  1.00  0.00     0.288 C 
HETATM    7  O   UNL     1      25.834  48.283  50.117  1.00  0.00    -0.264 OA
HETATM    8  H   UNL     1      23.166  46.506  50.080  1.00  0.00     0.190 HD
BRANCH   6   9
HETATM    9  C   UNL     1      23.775  48.818  49.128  1.00  0.00     0.121 A 
HETATM   10  N   UNL     1      24.179  49.545  48.043  1.00  0.00    -0.272 N 
HETATM   11  H   UNL     1      25.112  49.580  47.644  1.00  0.00     0.189 HD
HETATM   12  N   UNL     1      23.202  50.264  47.468  1.00  0.00    -0.174 NA
HETATM   13  C   UNL     1      22.115  50.024  48.218  1.00  0.00     0.089 A 
HETATM   14  C   UNL     1      22.434  49.117  49.267  1.00  0.00     0.071 A 
BRANCH  13  15
HETATM   15  C   UNL     1      20.814  50.635  47.926  1.00  0.00    -0.006 A 
HETATM   16  C   UNL     1      20.380  51.763  48.639  1.00  0.00     0.014 A 
HETATM   17  C   UNL     1      19.151  52.363  48.350  1.00  0.00     0.001 A 
HETATM   18  C   UNL     1      18.338  51.839  47.348  1.00  0.00     0.000 A 
HETATM   19  C   UNL     1      18.749  50.714  46.637  1.00  0.00     0.001 A 
HETATM   20  C   UNL     1      19.979  50.116  46.924  1.00  0.00     0.014 A 
ENDBRANCH  13  15
ENDBRANCH   6   9
ENDBRANCH   2   5
BRANCH   1  21
HETATM   21  C   UNL     1      26.325  43.909  51.268  1.00  0.00     0.125 C 
HETATM   22  N   UNL     1      27.148  44.401  52.143  1.00  0.00    -0.164 NA
HETATM   23  N   UNL     1      27.838  43.526  52.980  1.00  0.00    -0.201 N 
HETATM   24  C   UNL     1      27.866  42.135  52.760  1.00  0.00     0.245 C 
HETATM   25  C   UNL     1      27.314  41.711  51.422  1.00  0.00     0.111 C 
HETATM   26  O   UNL     1      28.325  41.270  53.506  1.00  0.00    -0.271 OA
HETATM   27  C   UNL     1      26.038  42.449  51.128  1.00  0.00     0.076 C 
BRANCH  23  28
HETATM   28  C   UNL     1      28.532  44.178  54.062  1.00  0.00     0.062 A 
HETATM   29  C   UNL     1      29.637  43.603  54.710  1.00  0.00     0.038 A 
HETATM   30  C   UNL     1      30.304  44.254  55.764  1.00  0.00    -0.060 A 
HETATM   31  C   UNL     1      31.502  43.622  56.414  1.00  0.00     0.048 C 
HETATM   32  C   UNL     1      29.873  45.517  56.170  1.00  0.00     0.007 A 
HETATM   33  C   UNL     1      28.786  46.114  55.541  1.00  0.00     0.003 A 
HETATM   34  C   UNL     1      28.126  45.453  54.499  1.00  0.00     0.032 A 
ENDBRANCH  23  28
ENDBRANCH   1  21
TORSDOF 5
ENDMDL
MODEL 2
REMARK VINA RESULT:     -10.5      2.369     11.002
REMARK  5 active torsions:
REMARK  status: ('A' for Active; 'I' for Inactive)
REMARK    1  A    between atoms: C_4  and  N_5 
REMARK    2  A    between atoms: C_7  and  C_8 
REMARK       I    between atoms: C_8  and  N_9 
REMARK    3  A    between atoms: N_9  and  N_10 
REMARK       I    between atoms: N_10  and  C_11 
REMARK    4  A    between atoms: C_11  and  C_12 
REMARK    5  A    between atoms: C_16  and  C_17 
ROOT
HETATM    1  C   UNL     1      23.520  46.707  49.318  1.00  0.00     0.286 C 
HETATM    2  N   UNL     1      23.509  45.478  49.936  1.00  0.00    -0.262 N 
HETATM    3  O   UNL     1      24.437  47.514  49.398  1.00  0.00    -0.264 OA
HETATM    4  H   UNL     1      22.721  44.833  49.873  1.00  0.00     0.190 HD
ENDROOT
BRANCH   2   5
HETATM    5  N   UNL     1      24.608  45.134  50.725  1.00  0.00    -0.262 N 
HETATM    6  C   UNL     1      24.700  43.878  51.284  1.00  0.00     0.288 C 
HETATM    7  O   UNL     1      23.864  43.002  51.073  1.00  0.00    -0.264 OA
HETATM    8  H   UNL     1      25.273  45.878  50.923  1.00  0.00     0.190 HD
BRANCH   6   9
HETATM    9  C   UNL     1      25.850  43.677  52.124  1.00  0.00     0.121 A 
HETATM   10  N   UNL     1      26.469  42.464  52.238  1.00  0.00    -0.272 N 
HETATM   11  H   UNL     1      26.206  41.598  51.775  1.00  0.00     0.189 HD
HETATM   12  N   UNL     1      27.540  42.466  53.047  1.00  0.00    -0.174 NA
HETATM   13  C   UNL     1      27.617  43.724  53.508  1.00  0.00     0.089 A 
HETATM   14  C   UNL     1      26.576  44.515  52.947  1.00  0.00     0.071 A 
BRANCH  13  15
HETATM   15  C   UNL     1      28.664  44.151  54.442  1.00  0.00    -0.006 A 
HETATM   16  C   UNL     1      28.576  45.390  55.093  1.00  0.00     0.014 A 
HETATM   17  C   UNL     1      29.560  45.793  56.002  1.00  0.00     0.001 A 
HETATM   18  C   UNL     1      30.647  44.963  56.266  1.00  0.00     0.000 A 
HETATM   19  C   UNL     1      30.754  43.733  55.621  1.00  0.00     0.001 A 
HETATM   20  C   UNL     1      29.769  43.329  54.715  1.00  0.00     0.014 A 
ENDBRANCH  13  15
ENDBRANCH   6   9
ENDBRANCH   2   5
BRANCH   1  21
HETATM   21  C   UNL     1      22.283  47.024  48.492  1.00  0.00     0.125 C 
HETATM   22  N   UNL     1      21.566  48.061  48.799  1.00  0.00    -0.164 NA
HETATM   23  N   UNL     1      20.448  48.358  48.020  1.00  0.00    -0.201 N 
HETATM   24  C   UNL     1      19.928  47.455  47.073  1.00  0.00     0.245 C 
HETATM   25  C   UNL     1      20.513  46.067  47.156  1.00  0.00     0.111 C 
HETATM   26  O   UNL     1      19.040  47.669  46.247  1.00  0.00    -0.271 OA
HETATM   27  C   UNL     1      22.006  46.141  47.318  1.00  0.00     0.076 C 
BRANCH  23  28
HETATM   28  C   UNL     1      19.870  49.649  48.295  1.00  0.00     0.062 A 
HETATM   29  C   UNL     1      18.519  49.818  48.641  1.00  0.00     0.038 A 
HETATM   30  C   UNL     1      17.972  51.086  48.908  1.00  0.00    -0.060 A 
HETATM   31  C   UNL     1      16.530  51.225  49.305  1.00  0.00     0.048 C 
HETATM   32  C   UNL     1      18.793  52.212  48.849  1.00  0.00     0.007 A 
HETATM   33  C   UNL     1      20.136  52.074  48.517  1.00  0.00     0.003 A 
HETATM   34  C   UNL     1      20.667  50.808  48.246  1.00  0.00     0.032 A 
ENDBRANCH  23  28
ENDBRANCH   1  21
TORSDOF 5
ENDMDL
MODEL 3
REMARK VINA RESULT:     -10.1      2.862     11.148
REMARK  5 active torsions:
REMARK  status: ('A' for Active; 'I' for Inactive)
REMARK    1  A    between atoms: C_4  and  N_5 
REMARK    2  A    between atoms: C_7  and  C_8 
REMARK       I    between atoms: C_8  and  N_9 
REMARK    3  A    between atoms: N_9  and  N_10 
REMARK       I    between atoms: N_10  and  C_11 
REMARK    4  A    between atoms: C_11  and  C_12 
REMARK    5  A    between atoms: C_16  and  C_17 
ROOT
HETATM    1  C   UNL     1      21.438  45.724  48.547  1.00  0.00     0.286 C 
HETATM    2  N   UNL     1      22.525  46.378  49.080  1.00  0.00    -0.262 N 
HETATM    3  O   UNL     1      21.197  44.535  48.711  1.00  0.00    -0.264 OA
HETATM    4  H   UNL     1      22.716  47.365  48.908  1.00  0.00     0.190 HD
ENDROOT
BRANCH   2   5
HETATM    5  N   UNL     1      23.426  45.633  49.841  1.00  0.00    -0.262 N 
HETATM    6  C   UNL     1      24.423  46.262  50.556  1.00  0.00     0.288 C 
HETATM    7  O   UNL     1      24.529  47.485  50.599  1.00  0.00    -0.264 OA
HETATM    8  H   UNL     1      23.352  44.621  49.768  1.00  0.00     0.190 HD
BRANCH   6   9
HETATM    9  C   UNL     1      25.320  45.373  51.246  1.00  0.00     0.121 A 
HETATM   10  N   UNL     1      25.085  44.031  51.346  1.00  0.00    -0.272 N 
HETATM   11  H   UNL     1      24.290  43.520  50.974  1.00  0.00     0.189 HD
HETATM   12  N   UNL     1      26.039  43.353  52.004  1.00  0.00    -0.174 NA
HETATM   13  C   UNL     1      26.927  44.288  52.376  1.00  0.00     0.089 A 
HETATM   14  C   UNL     1      26.513  45.568  51.915  1.00  0.00     0.071 A 
BRANCH  13  15
HETATM   15  C   UNL     1      28.137  43.956  53.137  1.00  0.00    -0.006 A 
HETATM   16  C   UNL     1      29.085  43.064  52.613  1.00  0.00     0.014 A 
HETATM   17  C   UNL     1      30.251  42.762  53.324  1.00  0.00     0.001 A 
HETATM   18  C   UNL     1      30.480  43.342  54.568  1.00  0.00     0.000 A 
HETATM   19  C   UNL     1      29.543  44.222  55.107  1.00  0.00     0.001 A 
HETATM   20  C   UNL     1      28.380  44.528  54.396  1.00  0.00     0.014 A 
ENDBRANCH  13  15
ENDBRANCH   6   9
ENDBRANCH   2   5
BRANCH   1  21
HETATM   21  C   UNL     1      20.509  46.592  47.712  1.00  0.00     0.125 C 
HETATM   22  N   UNL     1      20.080  47.714  48.204  1.00  0.00    -0.164 NA
HETATM   23  N   UNL     1      19.250  48.514  47.421  1.00  0.00    -0.201 N 
HETATM   24  C   UNL     1      18.664  48.052  46.226  1.00  0.00     0.245 C 
HETATM   25  C   UNL     1      18.799  46.566  46.007  1.00  0.00     0.111 C 
HETATM   26  O   UNL     1      18.034  48.712  45.400  1.00  0.00    -0.271 OA
HETATM   27  C   UNL     1      20.197  46.118  46.330  1.00  0.00     0.076 C 
BRANCH  23  28
HETATM   28  C   UNL     1      19.031  49.833  47.960  1.00  0.00     0.062 A 
HETATM   29  C   UNL     1      17.806  50.229  48.522  1.00  0.00     0.038 A 
HETATM   30  C   UNL     1      17.610  51.521  49.045  1.00  0.00    -0.060 A 
HETATM   31  C   UNL     1      16.297  51.900  49.666  1.00  0.00     0.048 C 
HETATM   32  C   UNL     1      18.665  52.433  49.027  1.00  0.00     0.007 A 
HETATM   33  C   UNL     1      19.891  52.066  48.484  1.00  0.00     0.003 A 
HETATM   34  C   UNL     1      20.072  50.781  47.960  1.00  0.00     0.032 A 
ENDBRANCH  23  28
ENDBRANCH   1  21
TORSDOF 5
ENDMDL
MODEL 4
REMARK VINA RESULT:     -10.0      1.603      1.734
REMARK  5 active torsions:
REMARK  status: ('A' for Active; 'I' for Inactive)
REMARK    1  A    between atoms: C_4  and  N_5 
REMARK    2  A    between atoms: C_7  and  C_8 
REMARK       I    between atoms: C_8  and  N_9 
REMARK    3  A    between atoms: N_9  and  N_10 
REMARK       I    between atoms: N_10  and  C_11 
REMARK    4  A    between atoms: C_11  and  C_12 
REMARK    5  A    between atoms: C_16  and  C_17 
ROOT
HETATM    1  C   UNL     1      24.812  44.459  51.187  1.00  0.00     0.286 C 
HETATM    2  N   UNL     1      25.085  45.541  50.382  1.00  0.00    -0.262 N 
HETATM    3  O   UNL     1      23.686  44.104  51.510  1.00  0.00    -0.264 OA
HETATM    4  H   UNL     1      26.035  45.831  50.147  1.00  0.00     0.190 HD
ENDROOT
BRANCH   2   5
HETATM    5  N   UNL     1      24.008  46.298  49.919  1.00  0.00    -0.262 N 
HETATM    6  C   UNL     1      23.345  45.935  48.766  1.00  0.00     0.288 C 
HETATM    7  O   UNL     1      23.629  44.919  48.137  1.00  0.00    -0.264 OA
HETATM    8  H   UNL     1      23.808  47.156  50.426  1.00  0.00     0.190 HD
BRANCH   6   9
HETATM    9  C   UNL     1      22.297  46.837  48.367  1.00  0.00     0.121 A 
HETATM   10  N   UNL     1      21.295  46.461  47.518  1.00  0.00    -0.272 N 
HETATM   11  H   UNL     1      21.173  45.552  47.079  1.00  0.00     0.189 HD
HETATM   12  N   UNL     1      20.390  47.423  47.274  1.00  0.00    -0.174 NA
HETATM   13  C   UNL     1      20.826  48.485  47.969  1.00  0.00     0.089 A 
HETATM   14  C   UNL     1      22.018  48.154  48.672  1.00  0.00     0.071 A 
BRANCH  13  15
HETATM   15  C   UNL     1      20.112  49.766  47.966  1.00  0.00    -0.006 A 
HETATM   16  C   UNL     1      20.476  50.787  48.857  1.00  0.00     0.014 A 
HETATM   17  C   UNL     1      19.814  52.018  48.845  1.00  0.00     0.001 A 
HETATM   18  C   UNL     1      18.775  52.242  47.945  1.00  0.00     0.000 A 
HETATM   19  C   UNL     1      18.394  51.235  47.060  1.00  0.00     0.001 A 
HETATM   20  C   UNL     1      19.058  50.005  47.070  1.00  0.00     0.014 A 
ENDBRANCH  13  15
ENDBRANCH   6   9
ENDBRANCH   2   5
BRANCH   1  21
HETATM   21  C   UNL     1      26.032  43.692  51.672  1.00  0.00     0.125 C 
HETATM   22  N   UNL     1      26.838  44.256  52.519  1.00  0.00    -0.164 NA
HETATM   23  N   UNL     1      27.940  43.535  52.977  1.00  0.00    -0.201 N 
HETATM   24  C   UNL     1      28.349  42.325  52.384  1.00  0.00     0.245 C 
HETATM   25  C   UNL     1      27.666  42.016  51.076  1.00  0.00     0.111 C 
HETATM   26  O   UNL     1      29.214  41.549  52.792  1.00  0.00    -0.271 OA
HETATM   27  C   UNL     1      26.191  42.289  51.183  1.00  0.00     0.076 C 
BRANCH  23  28
HETATM   28  C   UNL     1      28.625  44.155  54.083  1.00  0.00     0.062 A 
HETATM   29  C   UNL     1      29.695  43.541  54.754  1.00  0.00     0.038 A 
HETATM   30  C   UNL     1      30.354  44.161  55.831  1.00  0.00    -0.060 A 
HETATM   31  C   UNL     1      31.515  43.487  56.505  1.00  0.00     0.048 C 
HETATM   32  C   UNL     1      29.951  45.433  56.239  1.00  0.00     0.007 A 
HETATM   33  C   UNL     1      28.899  46.068  55.588  1.00  0.00     0.003 A 
HETATM   34  C   UNL     1      28.247  45.438  54.523  1.00  0.00     0.032 A 
ENDBRANCH  23  28
ENDBRANCH   1  21
TORSDOF 5
ENDMDL
MODEL 5
REMARK VINA RESULT:      -9.7      1.991      3.952
REMARK  5 active torsions:
REMARK  status: ('A' for Active; 'I' for Inactive)
REMARK    1  A    between atoms: C_4  and  N_5 
REMARK    2  A    between atoms: C_7  and  C_8 
REMARK       I    between atoms: C_8  and  N_9 
REMARK    3  A    between atoms: N_9  and  N_10 
REMARK       I    between atoms: N_10  and  C_11 
REMARK    4  A    between atoms: C_11  and  C_12 
REMARK    5  A    between atoms: C_16  and  C_17 
ROOT
HETATM    1  C   UNL     1      25.644  44.790  50.209  1.00  0.00     0.286 C 
HETATM    2  N   UNL     1      25.371  45.996  50.811  1.00  0.00    -0.262 N 
HETATM    3  O   UNL     1      25.224  44.455  49.109  1.00  0.00    -0.264 OA
HETATM    4  H   UNL     1      25.715  46.242  51.740  1.00  0.00     0.190 HD
ENDROOT
BRANCH   2   5
HETATM    5  N   UNL     1      24.543  46.892  50.133  1.00  0.00    -0.262 N 
HETATM    6  C   UNL     1      25.077  47.994  49.499  1.00  0.00     0.288 C 
HETATM    7  O   UNL     1      26.287  48.204  49.456  1.00  0.00    -0.264 OA
HETATM    8  H   UNL     1      23.543  46.728  50.209  1.00  0.00     0.190 HD
BRANCH   6   9
HETATM    9  C   UNL     1      24.108  48.867  48.894  1.00  0.00     0.121 A 
HETATM   10  N   UNL     1      24.433  49.736  47.890  1.00  0.00    -0.272 N 
HETATM   11  H   UNL     1      25.350  49.872  47.473  1.00  0.00     0.189 HD
HETATM   12  N   UNL     1      23.399  50.456  47.429  1.00  0.00    -0.174 NA
HETATM   13  C   UNL     1      22.353  50.068  48.175  1.00  0.00     0.089 A 
HETATM   14  C   UNL     1      22.757  49.068  49.102  1.00  0.00     0.071 A 
BRANCH  13  15
HETATM   15  C   UNL     1      21.010  50.630  47.990  1.00  0.00    -0.006 A 
HETATM   16  C   UNL     1      20.149  50.110  47.011  1.00  0.00     0.014 A 
HETATM   17  C   UNL     1      18.861  50.628  46.845  1.00  0.00     0.001 A 
HETATM   18  C   UNL     1      18.420  51.673  47.651  1.00  0.00     0.000 A 
HETATM   19  C   UNL     1      19.266  52.207  48.622  1.00  0.00     0.001 A 
HETATM   20  C   UNL     1      20.552  51.688  48.790  1.00  0.00     0.014 A 
ENDBRANCH  13  15
ENDBRANCH   6   9
ENDBRANCH   2   5
BRANCH   1  21
HETATM   21  C   UNL     1      26.536  43.855  51.011  1.00  0.00     0.125 C 
HETATM   22  N   UNL     1      26.877  42.712  50.499  1.00  0.00    -0.164 NA
HETATM   23  N   UNL     1      27.715  41.874  51.233  1.00  0.00    -0.201 N 
HETATM   24  C   UNL     1      28.008  42.100  52.592  1.00  0.00     0.245 C 
HETATM   25  C   UNL     1      27.150  43.157  53.240  1.00  0.00     0.111 C 
HETATM   26  O   UNL     1      28.833  41.507  53.286  1.00  0.00    -0.271 OA
HETATM   27  C   UNL     1      27.022  44.351  52.335  1.00  0.00     0.076 C 
BRANCH  23  28
HETATM   28  C   UNL     1      28.222  40.753  50.482  1.00  0.00     0.062 A 
HETATM   29  C   UNL     1      28.779  39.618  51.095  1.00  0.00     0.038 A 
HETATM   30  C   UNL     1      29.268  38.532  50.346  1.00  0.00    -0.060 A 
HETATM   31  C   UNL     1      29.828  37.322  51.037  1.00  0.00     0.048 C 
HETATM   32  C   UNL     1      29.184  38.567  48.954  1.00  0.00     0.007 A 
HETATM   33  C   UNL     1      28.631  39.675  48.321  1.00  0.00     0.003 A 
HETATM   34  C   UNL     1      28.154  40.752  49.076  1.00  0.00     0.032 A 
ENDBRANCH  23  28
ENDBRANCH   1  21
TORSDOF 5
ENDMDL
MODEL 6
REMARK VINA RESULT:      -9.7      1.391      1.521
REMARK  5 active torsions:
REMARK  status: ('A' for Active; 'I' for Inactive)
REMARK    1  A    between atoms: C_4  and  N_5 
REMARK    2  A    between atoms: C_7  and  C_8 
REMARK       I    between atoms: C_8  and  N_9 
REMARK    3  A    between atoms: N_9  and  N_10 
REMARK       I    between atoms: N_10  and  C_11 
REMARK    4  A    between atoms: C_11  and  C_12 
REMARK    5  A    between atoms: C_16  and  C_17 
ROOT
HETATM    1  C   UNL     1      23.923  44.550  50.578  1.00  0.00     0.286 C 
HETATM    2  N   UNL     1      24.278  45.862  50.364  1.00  0.00    -0.262 N 
HETATM    3  O   UNL     1      22.809  44.092  50.361  1.00  0.00    -0.264 OA
HETATM    4  H   UNL     1      25.208  46.225  50.575  1.00  0.00     0.190 HD
ENDROOT
BRANCH   2   5
HETATM    5  N   UNL     1      23.299  46.734  49.886  1.00  0.00    -0.262 N 
HETATM    6  C   UNL     1      23.655  47.942  49.325  1.00  0.00     0.288 C 
HETATM    7  O   UNL     1      24.827  48.277  49.173  1.00  0.00    -0.264 OA
HETATM    8  H   UNL     1      22.333  46.464  50.053  1.00  0.00     0.190 HD
BRANCH   6   9
HETATM    9  C   UNL     1      22.547  48.772  48.933  1.00  0.00     0.121 A 
HETATM   10  N   UNL     1      22.561  49.515  47.786  1.00  0.00    -0.272 N 
HETATM   11  H   UNL     1      23.315  49.578  47.108  1.00  0.00     0.189 HD
HETATM   12  N   UNL     1      21.433  50.209  47.567  1.00  0.00    -0.174 NA
HETATM   13  C   UNL     1      20.652  49.935  48.623  1.00  0.00     0.089 A 
HETATM   14  C   UNL     1      21.315  49.033  49.500  1.00  0.00     0.071 A 
BRANCH  13  15
HETATM   15  C   UNL     1      19.312  50.512  48.774  1.00  0.00    -0.006 A 
HETATM   16  C   UNL     1      19.151  51.851  49.162  1.00  0.00     0.014 A 
HETATM   17  C   UNL     1      17.877  52.412  49.286  1.00  0.00     0.001 A 
HETATM   18  C   UNL     1      16.747  51.640  49.029  1.00  0.00     0.000 A 
HETATM   19  C   UNL     1      16.888  50.306  48.652  1.00  0.00     0.001 A 
HETATM   20  C   UNL     1      18.162  49.745  48.525  1.00  0.00     0.014 A 
ENDBRANCH  13  15
ENDBRANCH   6   9
ENDBRANCH   2   5
BRANCH   1  21
HETATM   21  C   UNL     1      25.032  43.661  51.117  1.00  0.00     0.125 C 
HETATM   22  N   UNL     1      25.923  44.172  51.912  1.00  0.00    -0.164 NA
HETATM   23  N   UNL     1      26.921  43.343  52.421  1.00  0.00    -0.201 N 
HETATM   24  C   UNL     1      27.149  42.044  51.925  1.00  0.00     0.245 C 
HETATM   25  C   UNL     1      26.407  41.731  50.649  1.00  0.00     0.111 C 
HETATM   26  O   UNL     1      27.904  41.190  52.389  1.00  0.00    -0.271 OA
HETATM   27  C   UNL     1      24.987  42.215  50.741  1.00  0.00     0.076 C 
BRANCH  23  28
HETATM   28  C   UNL     1      27.703  43.946  53.470  1.00  0.00     0.062 A 
HETATM   29  C   UNL     1      28.883  43.367  53.966  1.00  0.00     0.038 A 
HETATM   30  C   UNL     1      29.635  43.971  54.990  1.00  0.00    -0.060 A 
HETATM   31  C   UNL     1      30.908  43.338  55.475  1.00  0.00     0.048 C 
HETATM   32  C   UNL     1      29.215  45.191  55.520  1.00  0.00     0.007 A 
HETATM   33  C   UNL     1      28.055  45.791  55.042  1.00  0.00     0.003 A 
HETATM   34  C   UNL     1      27.311  45.177  54.029  1.00  0.00     0.032 A 
ENDBRANCH  23  28
ENDBRANCH   1  21
TORSDOF 5
ENDMDL
MODEL 7
REMARK VINA RESULT:      -9.7      2.670     11.252
REMARK  5 active torsions:
REMARK  status: ('A' for Active; 'I' for Inactive)
REMARK    1  A    between atoms: C_4  and  N_5 
REMARK    2  A    between atoms: C_7  and  C_8 
REMARK       I    between atoms: C_8  and  N_9 
REMARK    3  A    between atoms: N_9  and  N_10 
REMARK       I    between atoms: N_10  and  C_11 
REMARK    4  A    between atoms: C_11  and  C_12 
REMARK    5  A    between atoms: C_16  and  C_17 
ROOT
HETATM    1  C   UNL     1      23.490  48.546  49.529  1.00  0.00     0.286 C 
HETATM    2  N   UNL     1      23.387  47.237  49.938  1.00  0.00    -0.262 N 
HETATM    3  O   UNL     1      24.529  49.194  49.538  1.00  0.00    -0.264 OA
HETATM    4  H   UNL     1      22.504  46.726  49.944  1.00  0.00     0.190 HD
ENDROOT
BRANCH   2   5
HETATM    5  N   UNL     1      24.539  46.609  50.415  1.00  0.00    -0.262 N 
HETATM    6  C   UNL     1      24.513  45.277  50.767  1.00  0.00     0.288 C 
HETATM    7  O   UNL     1      23.509  44.580  50.630  1.00  0.00    -0.264 OA
HETATM    8  H   UNL     1      25.351  47.204  50.560  1.00  0.00     0.190 HD
BRANCH   6   9
HETATM    9  C   UNL     1      25.749  44.772  51.301  1.00  0.00     0.121 A 
HETATM   10  N   UNL     1      26.563  43.933  50.593  1.00  0.00    -0.272 N 
HETATM   11  H   UNL     1      26.403  43.574  49.656  1.00  0.00     0.189 HD
HETATM   12  N   UNL     1      27.686  43.581  51.238  1.00  0.00    -0.174 NA
HETATM   13  C   UNL     1      27.600  44.191  52.431  1.00  0.00     0.089 A 
HETATM   14  C   UNL     1      26.400  44.951  52.506  1.00  0.00     0.071 A 
BRANCH  13  15
HETATM   15  C   UNL     1      28.643  44.056  53.453  1.00  0.00    -0.006 A 
HETATM   16  C   UNL     1      28.643  44.886  54.585  1.00  0.00     0.014 A 
HETATM   17  C   UNL     1      29.622  44.748  55.574  1.00  0.00     0.001 A 
HETATM   18  C   UNL     1      30.615  43.782  55.441  1.00  0.00     0.000 A 
HETATM   19  C   UNL     1      30.635  42.955  54.319  1.00  0.00     0.001 A 
HETATM   20  C   UNL     1      29.655  43.091  53.332  1.00  0.00     0.014 A 
ENDBRANCH  13  15
ENDBRANCH   6   9
ENDBRANCH   2   5
BRANCH   1  21
HETATM   21  C   UNL     1      22.193  49.173  49.041  1.00  0.00     0.125 C 
HETATM   22  N   UNL     1      21.346  48.443  48.382  1.00  0.00    -0.164 NA
HETATM   23  N   UNL     1      20.149  49.021  47.962  1.00  0.00    -0.201 N 
HETATM   24  C   UNL     1      19.925  50.411  48.007  1.00  0.00     0.245 C 
HETATM   25  C   UNL     1      21.160  51.226  48.298  1.00  0.00     0.111 C 
HETATM   26  O   UNL     1      18.868  51.003  47.791  1.00  0.00    -0.271 OA
HETATM   27  C   UNL     1      21.945  50.599  49.416  1.00  0.00     0.076 C 
BRANCH  23  28
HETATM   28  C   UNL     1      19.189  48.072  47.458  1.00  0.00     0.062 A 
HETATM   29  C   UNL     1      19.077  47.757  46.093  1.00  0.00     0.038 A 
HETATM   30  C   UNL     1      18.134  46.827  45.619  1.00  0.00    -0.060 A 
HETATM   31  C   UNL     1      18.063  46.492  44.156  1.00  0.00     0.048 C 
HETATM   32  C   UNL     1      17.295  46.180  46.526  1.00  0.00     0.007 A 
HETATM   33  C   UNL     1      17.389  46.466  47.883  1.00  0.00     0.003 A 
HETATM   34  C   UNL     1      18.325  47.398  48.342  1.00  0.00     0.032 A 
ENDBRANCH  23  28
ENDBRANCH   1  21
TORSDOF 5
ENDMDL
MODEL 8
REMARK VINA RESULT:      -9.6      5.631      9.348
REMARK  5 active torsions:
REMARK  status: ('A' for Active; 'I' for Inactive)
REMARK    1  A    between atoms: C_4  and  N_5 
REMARK    2  A    between atoms: C_7  and  C_8 
REMARK       I    between atoms: C_8  and  N_9 
REMARK    3  A    between atoms: N_9  and  N_10 
REMARK       I    between atoms: N_10  and  C_11 
REMARK    4  A    between atoms: C_11  and  C_12 
REMARK    5  A    between atoms: C_16  and  C_17 
ROOT
HETATM    1  C   UNL     1      26.926  43.919  51.892  1.00  0.00     0.286 C 
HETATM    2  N   UNL     1      27.952  43.003  51.885  1.00  0.00    -0.262 N 
HETATM    3  O   UNL     1      25.965  43.888  51.134  1.00  0.00    -0.264 OA
HETATM    4  H   UNL     1      28.755  43.066  52.512  1.00  0.00     0.190 HD
ENDROOT
BRANCH   2   5
HETATM    5  N   UNL     1      27.907  41.980  50.937  1.00  0.00    -0.262 N 
HETATM    6  C   UNL     1      28.437  40.740  51.223  1.00  0.00     0.288 C 
HETATM    7  O   UNL     1      28.915  40.467  52.322  1.00  0.00    -0.264 OA
HETATM    8  H   UNL     1      27.545  42.229  50.020  1.00  0.00     0.190 HD
BRANCH   6   9
HETATM    9  C   UNL     1      28.382  39.797  50.137  1.00  0.00     0.121 A 
HETATM   10  N   UNL     1      28.198  38.459  50.341  1.00  0.00    -0.272 N 
HETATM   11  H   UNL     1      28.091  37.985  51.233  1.00  0.00     0.189 HD
HETATM   12  N   UNL     1      28.149  37.733  49.213  1.00  0.00    -0.174 NA
HETATM   13  C   UNL     1      28.332  38.622  48.225  1.00  0.00     0.089 A 
HETATM   14  C   UNL     1      28.478  39.930  48.766  1.00  0.00     0.071 A 
BRANCH  13  15
HETATM   15  C   UNL     1      28.353  38.228  46.813  1.00  0.00    -0.006 A 
HETATM   16  C   UNL     1      28.850  36.973  46.431  1.00  0.00     0.014 A 
HETATM   17  C   UNL     1      28.852  36.583  45.088  1.00  0.00     0.001 A 
HETATM   18  C   UNL     1      28.362  37.445  44.111  1.00  0.00     0.000 A 
HETATM   19  C   UNL     1      27.874  38.699  44.472  1.00  0.00     0.001 A 
HETATM   20  C   UNL     1      27.869  39.088  45.814  1.00  0.00     0.014 A 
ENDBRANCH  13  15
ENDBRANCH   6   9
ENDBRANCH   2   5
BRANCH   1  21
HETATM   21  C   UNL     1      27.049  45.018  52.936  1.00  0.00     0.125 C 
HETATM   22  N   UNL     1      27.737  44.792  54.014  1.00  0.00    -0.164 NA
HETATM   23  N   UNL     1      27.865  45.813  54.953  1.00  0.00    -0.201 N 
HETATM   24  C   UNL     1      27.088  46.987  54.902  1.00  0.00     0.245 C 
HETATM   25  C   UNL     1      25.949  46.931  53.916  1.00  0.00     0.111 C 
HETATM   26  O   UNL     1      27.217  47.998  55.593  1.00  0.00    -0.271 OA
HETATM   27  C   UNL     1      26.413  46.332  52.618  1.00  0.00     0.076 C 
BRANCH  23  28
HETATM   28  C   UNL     1      28.837  45.542  55.983  1.00  0.00     0.062 A 
HETATM   29  C   UNL     1      29.904  44.647  55.801  1.00  0.00     0.038 A 
HETATM   30  C   UNL     1      30.845  44.395  56.817  1.00  0.00    -0.060 A 
HETATM   31  C   UNL     1      31.991  43.455  56.577  1.00  0.00     0.048 C 
HETATM   32  C   UNL     1      30.732  45.064  58.036  1.00  0.00     0.007 A 
HETATM   33  C   UNL     1      29.690  45.961  58.240  1.00  0.00     0.003 A 
HETATM   34  C   UNL     1      28.756  46.198  57.225  1.00  0.00     0.032 A 
ENDBRANCH  23  28
ENDBRANCH   1  21
TORSDOF 5
ENDMDL
MODEL 9
REMARK VINA RESULT:      -9.4     12.671     16.173
REMARK  5 active torsions:
REMARK  status: ('A' for Active; 'I' for Inactive)
REMARK    1  A    between atoms: C_4  and  N_5 
REMARK    2  A    between atoms: C_7  and  C_8 
REMARK       I    between atoms: C_8  and  N_9 
REMARK    3  A    between atoms: N_9  and  N_10 
REMARK       I    between atoms: N_10  and  C_11 
REMARK    4  A    between atoms: C_11  and  C_12 
REMARK    5  A    between atoms: C_16  and  C_17 
ROOT
HETATM    1  C   UNL     1      32.296  51.515  43.185  1.00  0.00     0.286 C 
HETATM    2  N   UNL     1      33.489  51.910  42.628  1.00  0.00    -0.262 N 
HETATM    3  O   UNL     1      32.146  51.225  44.365  1.00  0.00    -0.264 OA
HETATM    4  H   UNL     1      33.593  52.123  41.635  1.00  0.00     0.190 HD
ENDROOT
BRANCH   2   5
HETATM    5  N   UNL     1      34.611  51.967  43.456  1.00  0.00    -0.262 N 
HETATM    6  C   UNL     1      35.850  52.271  42.934  1.00  0.00     0.288 C 
HETATM    7  O   UNL     1      36.012  52.555  41.750  1.00  0.00    -0.264 OA
HETATM    8  H   UNL     1      34.471  51.693  44.425  1.00  0.00     0.190 HD
BRANCH   6   9
HETATM    9  C   UNL     1      36.928  52.234  43.886  1.00  0.00     0.121 A 
HETATM   10  N   UNL     1      37.743  51.146  44.023  1.00  0.00    -0.272 N 
HETATM   11  H   UNL     1      37.690  50.273  43.506  1.00  0.00     0.189 HD
HETATM   12  N   UNL     1      38.710  51.295  44.942  1.00  0.00    -0.174 NA
HETATM   13  C   UNL     1      38.512  52.521  45.451  1.00  0.00     0.089 A 
HETATM   14  C   UNL     1      37.405  53.143  44.809  1.00  0.00     0.071 A 
BRANCH  13  15
HETATM   15  C   UNL     1      39.366  53.077  46.506  1.00  0.00    -0.006 A 
HETATM   16  C   UNL     1      38.820  53.446  47.744  1.00  0.00     0.014 A 
HETATM   17  C   UNL     1      39.632  53.956  48.761  1.00  0.00     0.001 A 
HETATM   18  C   UNL     1      41.000  54.108  48.550  1.00  0.00     0.000 A 
HETATM   19  C   UNL     1      41.557  53.755  47.323  1.00  0.00     0.001 A 
HETATM   20  C   UNL     1      40.746  53.243  46.307  1.00  0.00     0.014 A 
ENDBRANCH  13  15
ENDBRANCH   6   9
ENDBRANCH   2   5
BRANCH   1  21
HETATM   21  C   UNL     1      31.121  51.456  42.222  1.00  0.00     0.125 C 
HETATM   22  N   UNL     1      30.909  50.366  41.548  1.00  0.00    -0.164 NA
HETATM   23  N   UNL     1      29.815  50.314  40.686  1.00  0.00    -0.201 N 
HETATM   24  C   UNL     1      29.078  51.461  40.332  1.00  0.00     0.245 C 
HETATM   25  C   UNL     1      29.718  52.760  40.750  1.00  0.00     0.111 C 
HETATM   26  O   UNL     1      28.025  51.503  39.695  1.00  0.00    -0.271 OA
HETATM   27  C   UNL     1      30.233  52.656  42.159  1.00  0.00     0.076 C 
BRANCH  23  28
HETATM   28  C   UNL     1      29.534  48.994  40.179  1.00  0.00     0.062 A 
HETATM   29  C   UNL     1      28.566  48.152  40.750  1.00  0.00     0.038 A 
HETATM   30  C   UNL     1      28.303  46.867  40.241  1.00  0.00    -0.060 A 
HETATM   31  C   UNL     1      27.239  46.006  40.858  1.00  0.00     0.048 C 
HETATM   32  C   UNL     1      29.007  46.417  39.123  1.00  0.00     0.007 A 
HETATM   33  C   UNL     1      29.966  47.232  38.533  1.00  0.00     0.003 A 
HETATM   34  C   UNL     1      30.224  48.505  39.053  1.00  0.00     0.032 A 
ENDBRANCH  23  28
ENDBRANCH   1  21
TORSDOF 5
ENDMDL
MODEL 10
REMARK VINA RESULT:      -9.0      2.056      2.788
REMARK  5 active torsions:
REMARK  status: ('A' for Active; 'I' for Inactive)
REMARK    1  A    between atoms: C_4  and  N_5 
REMARK    2  A    between atoms: C_7  and  C_8 
REMARK       I    between atoms: C_8  and  N_9 
REMARK    3  A    between atoms: N_9  and  N_10 
REMARK       I    between atoms: N_10  and  C_11 
REMARK    4  A    between atoms: C_11  and  C_12 
REMARK    5  A    between atoms: C_16  and  C_17 
ROOT
HETATM    1  C   UNL     1      26.062  44.427  49.961  1.00  0.00     0.286 C 
HETATM    2  N   UNL     1      24.743  44.089  49.763  1.00  0.00    -0.262 N 
HETATM    3  O   UNL     1      26.585  45.449  49.537  1.00  0.00    -0.264 OA
HETATM    4  H   UNL     1      24.337  43.218  50.108  1.00  0.00     0.190 HD
ENDROOT
BRANCH   2   5
HETATM    5  N   UNL     1      23.951  44.958  49.012  1.00  0.00    -0.262 N 
HETATM    6  C   UNL     1      22.584  44.792  48.964  1.00  0.00     0.288 C 
HETATM    7  O   UNL     1      22.005  43.922  49.610  1.00  0.00    -0.264 OA
HETATM    8  H   UNL     1      24.445  45.649  48.452  1.00  0.00     0.190 HD
BRANCH   6   9
HETATM    9  C   UNL     1      21.896  45.717  48.103  1.00  0.00     0.121 A 
HETATM   10  N   UNL     1      22.108  45.756  46.754  1.00  0.00    -0.272 N 
HETATM   11  H   UNL     1      22.748  45.175  46.219  1.00  0.00     0.189 HD
HETATM   12  N   UNL     1      21.363  46.665  46.106  1.00  0.00    -0.174 NA
HETATM   13  C   UNL     1      20.648  47.269  47.067  1.00  0.00     0.089 A 
HETATM   14  C   UNL     1      20.952  46.698  48.334  1.00  0.00     0.071 A 
BRANCH  13  15
HETATM   15  C   UNL     1      19.698  48.347  46.773  1.00  0.00    -0.006 A 
HETATM   16  C   UNL     1      18.519  48.083  46.060  1.00  0.00     0.014 A 
HETATM   17  C   UNL     1      17.599  49.102  45.796  1.00  0.00     0.001 A 
HETATM   18  C   UNL     1      17.849  50.399  46.237  1.00  0.00     0.000 A 
HETATM   19  C   UNL     1      19.019  50.680  46.938  1.00  0.00     0.001 A 
HETATM   20  C   UNL     1      19.938  49.661  47.205  1.00  0.00     0.014 A 
ENDBRANCH  13  15
ENDBRANCH   6   9
ENDBRANCH   2   5
BRANCH   1  21
HETATM   21  C   UNL     1      26.870  43.425  50.771  1.00  0.00     0.125 C 
HETATM   22  N   UNL     1      27.659  43.858  51.707  1.00  0.00    -0.164 NA
HETATM   23  N   UNL     1      28.376  42.930  52.460  1.00  0.00    -0.201 N 
HETATM   24  C   UNL     1      28.470  41.572  52.095  1.00  0.00     0.245 C 
HETATM   25  C   UNL     1      27.956  41.268  50.711  1.00  0.00     0.111 C 
HETATM   26  O   UNL     1      28.958  40.655  52.755  1.00  0.00    -0.271 OA
HETATM   27  C   UNL     1      26.651  41.977  50.473  1.00  0.00     0.076 C 
BRANCH  23  28
HETATM   28  C   UNL     1      29.025  43.493  53.617  1.00  0.00     0.062 A 
HETATM   29  C   UNL     1      28.502  44.590  54.322  1.00  0.00     0.038 A 
HETATM   30  C   UNL     1      29.149  45.127  55.451  1.00  0.00    -0.060 A 
HETATM   31  C   UNL     1      28.544  46.280  56.198  1.00  0.00     0.048 C 
HETATM   32  C   UNL     1      30.335  44.546  55.900  1.00  0.00     0.007 A 
HETATM   33  C   UNL     1      30.872  43.455  55.226  1.00  0.00     0.003 A 
HETATM   34  C   UNL     1      30.224  42.935  54.100  1.00  0.00     0.032 A 
ENDBRANCH  23  28
ENDBRANCH   1  21
TORSDOF 5
ENDMDL
