MODEL 1
REMARK VINA RESULT:      -9.4      0.000      0.000
REMARK  9 active torsions:
REMARK  status: ('A' for Active; 'I' for Inactive)
REMARK    1  A    between atoms: O_2  and  C_3 
REMARK    2  A    between atoms: C_3  and  C_4 
REMARK    3  A    between atoms: C_4  and  O_5 
REMARK    4  A    between atoms: O_5  and  C_6 
REMARK    5  A    between atoms: C_8  and  C_25 
REMARK    6  A    between atoms: C_11  and  C_12 
REMARK       I    between atoms: C_12  and  N_14 
REMARK    7  A    between atoms: N_14  and  C_15 
REMARK    8  A    between atoms: C_15  and  C_17 
REMARK    9  A    between atoms: C_21  and  O_22 
ROOT
HETATM    1  C   UNL     1      27.593  45.070  53.900  1.00  0.00     0.085 A 
HETATM    2  C   UNL     1      28.559  44.650  54.823  1.00  0.00     0.050 A 
HETATM    3  C   UNL     1      29.167  45.570  55.690  1.00  0.00    -0.020 A 
HETATM    4  C   UNL     1      28.791  46.918  55.612  1.00  0.00     0.013 A 
HETATM    5  C   UNL     1      27.804  47.333  54.711  1.00  0.00     0.021 A 
HETATM    6  C   UNL     1      27.174  46.406  53.870  1.00  0.00     0.065 A 
ENDROOT
BRANCH   6   7
HETATM    7  C   UNL     1      26.062  46.911  53.019  1.00  0.00     0.255 C 
HETATM    8  O   UNL     1      25.296  47.762  53.456  1.00  0.00    -0.268 OA
HETATM    9  N   UNL     1      25.936  46.330  51.778  1.00  0.00    -0.349 N 
HETATM   10  H   UNL     1      26.678  45.718  51.458  1.00  0.00     0.163 HD
BRANCH   9  11
HETATM   11  C   UNL     1      24.927  46.740  50.819  1.00  0.00     0.114 C 
HETATM   12  C   UNL     1      24.423  45.527  50.037  1.00  0.00     0.037 C 
BRANCH  11  13
HETATM   13  C   UNL     1      25.479  47.846  49.937  1.00  0.00    -0.033 A 
HETATM   14  C   UNL     1      26.869  48.013  49.838  1.00  0.00     0.009 A 
HETATM   15  C   UNL     1      27.410  49.008  49.025  1.00  0.00     0.003 A 
HETATM   16  C   UNL     1      26.567  49.836  48.288  1.00  0.00     0.037 A 
HETATM   17  C   UNL     1      25.181  49.672  48.347  1.00  0.00     0.068 A 
HETATM   18  C   UNL     1      24.643  48.679  49.170  1.00  0.00     0.046 A 
BRANCH  17  19
HETATM   19  O   UNL     1      24.471  50.537  47.560  1.00  0.00    -0.356 OA
HETATM   20  C   UNL     1      23.054  50.489  47.674  1.00  0.00     0.210 C 
ENDBRANCH  17  19
ENDBRANCH  11  13
ENDBRANCH   9  11
ENDBRANCH   6   7
BRANCH   1  21
HETATM   21  O   UNL     1      27.058  44.100  53.090  1.00  0.00    -0.348 OA
BRANCH  21  22
HETATM   22  C   UNL     1      28.085  43.330  52.430  1.00  0.00     0.201 C 
BRANCH  22  23
HETATM   23  C   UNL     1      27.482  42.486  51.309  1.00  0.00     0.193 C 
BRANCH  23  24
HETATM   24  O   UNL     1      28.099  41.194  51.292  1.00  0.00    -0.394 OA
HETATM   25  C   UNL     1      28.809  40.939  52.496  1.00  0.00     0.201 C 
ENDBRANCH  23  24
ENDBRANCH  22  23
ENDBRANCH  21  22
ENDBRANCH   1  21
BRANCH   3  26
HETATM   26  C   UNL     1      30.145  45.119  56.666  1.00  0.00     0.010 A 
HETATM   27  C   UNL     1      31.060  44.038  56.629  1.00  0.00     0.152 A 
HETATM   28  N   UNL     1      31.799  43.946  57.738  1.00  0.00    -0.187 NA
HETATM   29  N   UNL     1      31.359  44.963  58.494  1.00  0.00    -0.289 N 
HETATM   30  H   UNL     1      31.777  45.097  59.409  1.00  0.00     0.188 HD
HETATM   31  C   UNL     1      30.374  45.697  57.898  1.00  0.00     0.123 A 
ENDBRANCH   3  26
TORSDOF 9
ENDMDL
MODEL 2
REMARK VINA RESULT:      -8.9      1.002      1.377
REMARK  9 active torsions:
REMARK  status: ('A' for Active; 'I' for Inactive)
REMARK    1  A    between atoms: O_2  and  C_3 
REMARK    2  A    between atoms: C_3  and  C_4 
REMARK    3  A    between atoms: C_4  and  O_5 
REMARK    4  A    between atoms: O_5  and  C_6 
REMARK    5  A    between atoms: C_8  and  C_25 
REMARK    6  A    between atoms: C_11  and  C_12 
REMARK       I    between atoms: C_12  and  N_14 
REMARK    7  A    between atoms: N_14  and  C_15 
REMARK    8  A    between atoms: C_15  and  C_17 
REMARK    9  A    between atoms: C_21  and  O_22 
ROOT
HETATM    1  C   UNL     1      28.152  44.212  53.188  1.00  0.00     0.085 A 
HETATM    2  C   UNL     1      29.159  43.908  54.112  1.00  0.00     0.050 A 
HETATM    3  C   UNL     1      29.309  44.664  55.283  1.00  0.00    -0.020 A 
HETATM    4  C   UNL     1      28.432  45.735  55.508  1.00  0.00     0.013 A 
HETATM    5  C   UNL     1      27.407  46.021  54.600  1.00  0.00     0.021 A 
HETATM    6  C   UNL     1      27.238  45.241  53.449  1.00  0.00     0.065 A 
ENDROOT
BRANCH   6   7
HETATM    7  C   UNL     1      26.060  45.545  52.591  1.00  0.00     0.255 C 
HETATM    8  O   UNL     1      24.940  45.200  52.948  1.00  0.00    -0.268 OA
HETATM    9  N   UNL     1      26.326  46.167  51.394  1.00  0.00    -0.349 N 
HETATM   10  H   UNL     1      27.264  46.516  51.232  1.00  0.00     0.163 HD
BRANCH   9  11
HETATM   11  C   UNL     1      25.281  46.563  50.467  1.00  0.00     0.114 C 
HETATM   12  C   UNL     1      24.923  45.392  49.551  1.00  0.00     0.037 C 
BRANCH  11  13
HETATM   13  C   UNL     1      25.709  47.812  49.717  1.00  0.00    -0.033 A 
HETATM   14  C   UNL     1      27.069  48.153  49.674  1.00  0.00     0.009 A 
HETATM   15  C   UNL     1      27.497  49.284  48.982  1.00  0.00     0.003 A 
HETATM   16  C   UNL     1      26.571  50.079  48.310  1.00  0.00     0.037 A 
HETATM   17  C   UNL     1      25.216  49.745  48.313  1.00  0.00     0.068 A 
HETATM   18  C   UNL     1      24.789  48.615  49.016  1.00  0.00     0.046 A 
BRANCH  17  19
HETATM   19  O   UNL     1      24.417  50.596  47.599  1.00  0.00    -0.356 OA
HETATM   20  C   UNL     1      23.118  50.846  48.122  1.00  0.00     0.210 C 
ENDBRANCH  17  19
ENDBRANCH  11  13
ENDBRANCH   9  11
ENDBRANCH   6   7
BRANCH   1  21
HETATM   21  O   UNL     1      28.086  43.420  52.070  1.00  0.00    -0.348 OA
BRANCH  21  22
HETATM   22  C   UNL     1      27.549  42.114  52.372  1.00  0.00     0.201 C 
BRANCH  22  23
HETATM   23  C   UNL     1      28.428  41.022  51.766  1.00  0.00     0.193 C 
BRANCH  23  24
HETATM   24  O   UNL     1      27.702  40.327  50.746  1.00  0.00    -0.394 OA
HETATM   25  C   UNL     1      26.314  40.629  50.798  1.00  0.00     0.201 C 
ENDBRANCH  23  24
ENDBRANCH  22  23
ENDBRANCH  21  22
ENDBRANCH   1  21
BRANCH   3  26
HETATM   26  C   UNL     1      30.338  44.320  56.251  1.00  0.00     0.010 A 
HETATM   27  C   UNL     1      30.722  44.953  57.457  1.00  0.00     0.152 A 
HETATM   28  N   UNL     1      31.729  44.328  58.074  1.00  0.00    -0.187 NA
HETATM   29  N   UNL     1      31.998  43.293  57.264  1.00  0.00    -0.289 N 
HETATM   30  H   UNL     1      32.748  42.661  57.524  1.00  0.00     0.188 HD
HETATM   31  C   UNL     1      31.193  43.241  56.162  1.00  0.00     0.123 A 
ENDBRANCH   3  26
TORSDOF 9
ENDMDL
MODEL 3
REMARK VINA RESULT:      -8.2      3.450      6.921
REMARK  9 active torsions:
REMARK  status: ('A' for Active; 'I' for Inactive)
REMARK    1  A    between atoms: O_2  and  C_3 
REMARK    2  A    between atoms: C_3  and  C_4 
REMARK    3  A    between atoms: C_4  and  O_5 
REMARK    4  A    between atoms: O_5  and  C_6 
REMARK    5  A    between atoms: C_8  and  C_25 
REMARK    6  A    between atoms: C_11  and  C_12 
REMARK       I    between atoms: C_12  and  N_14 
REMARK    7  A    between atoms: N_14  and  C_15 
REMARK    8  A    between atoms: C_15  and  C_17 
REMARK    9  A    between atoms: C_21  and  O_22 
ROOT
HETATM    1  C   UNL     1      28.031  44.463  53.682  1.00  0.00     0.085 A 
HETATM    2  C   UNL     1      28.710  44.721  54.880  1.00  0.00     0.050 A 
HETATM    3  C   UNL     1      29.871  44.008  55.212  1.00  0.00    -0.020 A 
HETATM    4  C   UNL     1      30.334  43.027  54.324  1.00  0.00     0.013 A 
HETATM    5  C   UNL     1      29.673  42.789  53.114  1.00  0.00     0.021 A 
HETATM    6  C   UNL     1      28.534  43.528  52.769  1.00  0.00     0.065 A 
ENDROOT
BRANCH   6   7
HETATM    7  C   UNL     1      27.954  43.288  51.420  1.00  0.00     0.255 C 
HETATM    8  O   UNL     1      27.700  44.237  50.686  1.00  0.00    -0.268 OA
HETATM    9  N   UNL     1      27.685  41.977  51.100  1.00  0.00    -0.349 N 
HETATM   10  H   UNL     1      28.031  41.252  51.718  1.00  0.00     0.163 HD
BRANCH   9  11
HETATM   11  C   UNL     1      27.154  41.579  49.808  1.00  0.00     0.114 C 
HETATM   12  C   UNL     1      25.634  41.431  49.890  1.00  0.00     0.037 C 
BRANCH  11  13
HETATM   13  C   UNL     1      27.862  40.324  49.330  1.00  0.00    -0.033 A 
HETATM   14  C   UNL     1      28.574  39.544  50.255  1.00  0.00     0.009 A 
HETATM   15  C   UNL     1      29.222  38.378  49.852  1.00  0.00     0.003 A 
HETATM   16  C   UNL     1      29.152  37.969  48.522  1.00  0.00     0.037 A 
HETATM   17  C   UNL     1      28.427  38.712  47.588  1.00  0.00     0.068 A 
HETATM   18  C   UNL     1      27.786  39.885  47.994  1.00  0.00     0.046 A 
BRANCH  17  19
HETATM   19  O   UNL     1      28.423  38.190  46.324  1.00  0.00    -0.356 OA
HETATM   20  C   UNL     1      28.858  36.843  46.185  1.00  0.00     0.210 C 
ENDBRANCH  17  19
ENDBRANCH  11  13
ENDBRANCH   9  11
ENDBRANCH   6   7
BRANCH   1  21
HETATM   21  O   UNL     1      26.903  45.208  53.446  1.00  0.00    -0.348 OA
BRANCH  21  22
HETATM   22  C   UNL     1      26.784  46.306  54.376  1.00  0.00     0.201 C 
BRANCH  22  23
HETATM   23  C   UNL     1      26.079  47.490  53.717  1.00  0.00     0.193 C 
BRANCH  23  24
HETATM   24  O   UNL     1      25.497  48.326  54.722  1.00  0.00    -0.394 OA
HETATM   25  C   UNL     1      26.437  48.654  55.736  1.00  0.00     0.201 C 
ENDBRANCH  23  24
ENDBRANCH  22  23
ENDBRANCH  21  22
ENDBRANCH   1  21
BRANCH   3  26
HETATM   26  C   UNL     1      30.587  44.306  56.442  1.00  0.00     0.010 A 
HETATM   27  C   UNL     1      31.673  43.644  57.064  1.00  0.00     0.152 A 
HETATM   28  N   UNL     1      32.053  44.228  58.203  1.00  0.00    -0.187 NA
HETATM   29  N   UNL     1      31.210  45.265  58.320  1.00  0.00    -0.289 N 
HETATM   30  H   UNL     1      31.301  45.870  59.130  1.00  0.00     0.188 HD
HETATM   31  C   UNL     1      30.317  45.359  57.291  1.00  0.00     0.123 A 
ENDBRANCH   3  26
TORSDOF 9
ENDMDL
MODEL 4
REMARK VINA RESULT:      -8.0      3.427      6.942
REMARK  9 active torsions:
REMARK  status: ('A' for Active; 'I' for Inactive)
REMARK    1  A    between atoms: O_2  and  C_3 
REMARK    2  A    between atoms: C_3  and  C_4 
REMARK    3  A    between atoms: C_4  and  O_5 
REMARK    4  A    between atoms: O_5  and  C_6 
REMARK    5  A    between atoms: C_8  and  C_25 
REMARK    6  A    between atoms: C_11  and  C_12 
REMARK       I    between atoms: C_12  and  N_14 
REMARK    7  A    between atoms: N_14  and  C_15 
REMARK    8  A    between atoms: C_15  and  C_17 
REMARK    9  A    between atoms: C_21  and  O_22 
ROOT
HETATM    1  C   UNL     1      27.538  42.068  52.342  1.00  0.00     0.085 A 
HETATM    2  C   UNL     1      28.319  40.984  51.922  1.00  0.00     0.050 A 
HETATM    3  C   UNL     1      28.027  40.313  50.725  1.00  0.00    -0.020 A 
HETATM    4  C   UNL     1      26.934  40.745  49.962  1.00  0.00     0.013 A 
HETATM    5  C   UNL     1      26.171  41.847  50.366  1.00  0.00     0.021 A 
HETATM    6  C   UNL     1      26.488  42.537  51.543  1.00  0.00     0.065 A 
ENDROOT
BRANCH   6   7
HETATM    7  C   UNL     1      25.694  43.759  51.846  1.00  0.00     0.255 C 
HETATM    8  O   UNL     1      24.471  43.695  51.903  1.00  0.00    -0.268 OA
HETATM    9  N   UNL     1      26.409  44.925  51.994  1.00  0.00    -0.349 N 
HETATM   10  H   UNL     1      27.419  44.865  52.042  1.00  0.00     0.163 HD
BRANCH   9  11
HETATM   11  C   UNL     1      25.782  46.192  52.328  1.00  0.00     0.114 C 
HETATM   12  C   UNL     1      25.901  47.161  51.151  1.00  0.00     0.037 C 
BRANCH  11  13
HETATM   13  C   UNL     1      26.373  46.729  53.620  1.00  0.00    -0.033 A 
HETATM   14  C   UNL     1      25.817  47.879  54.200  1.00  0.00     0.009 A 
HETATM   15  C   UNL     1      26.324  48.389  55.394  1.00  0.00     0.003 A 
HETATM   16  C   UNL     1      27.383  47.745  56.030  1.00  0.00     0.037 A 
HETATM   17  C   UNL     1      27.935  46.583  55.487  1.00  0.00     0.068 A 
HETATM   18  C   UNL     1      27.429  46.080  54.285  1.00  0.00     0.046 A 
BRANCH  17  19
HETATM   19  O   UNL     1      28.955  46.040  56.220  1.00  0.00    -0.356 OA
HETATM   20  C   UNL     1      28.818  46.079  57.635  1.00  0.00     0.210 C 
ENDBRANCH  17  19
ENDBRANCH  11  13
ENDBRANCH   9  11
ENDBRANCH   6   7
BRANCH   1  21
HETATM   21  O   UNL     1      27.898  42.658  53.527  1.00  0.00    -0.348 OA
BRANCH  21  22
HETATM   22  C   UNL     1      29.314  42.936  53.577  1.00  0.00     0.201 C 
BRANCH  22  23
HETATM   23  C   UNL     1      29.832  42.815  55.009  1.00  0.00     0.193 C 
BRANCH  23  24
HETATM   24  O   UNL     1      30.960  43.679  55.189  1.00  0.00    -0.394 OA
HETATM   25  C   UNL     1      31.488  43.578  56.504  1.00  0.00     0.201 C 
ENDBRANCH  23  24
ENDBRANCH  22  23
ENDBRANCH  21  22
ENDBRANCH   1  21
BRANCH   3  26
HETATM   26  C   UNL     1      28.863  39.210  50.281  1.00  0.00     0.010 A 
HETATM   27  C   UNL     1      29.761  38.382  50.998  1.00  0.00     0.152 A 
HETATM   28  N   UNL     1      30.356  37.470  50.225  1.00  0.00    -0.187 NA
HETATM   29  N   UNL     1      29.847  37.711  49.007  1.00  0.00    -0.289 N 
HETATM   30  H   UNL     1      30.160  37.134  48.233  1.00  0.00     0.188 HD
HETATM   31  C   UNL     1      28.947  38.738  48.988  1.00  0.00     0.123 A 
ENDBRANCH   3  26
TORSDOF 9
ENDMDL
MODEL 5
REMARK VINA RESULT:      -8.0      1.572      2.332
REMARK  9 active torsions:
REMARK  status: ('A' for Active; 'I' for Inactive)
REMARK    1  A    between atoms: O_2  and  C_3 
REMARK    2  A    between atoms: C_3  and  C_4 
REMARK    3  A    between atoms: C_4  and  O_5 
REMARK    4  A    between atoms: O_5  and  C_6 
REMARK    5  A    between atoms: C_8  and  C_25 
REMARK    6  A    between atoms: C_11  and  C_12 
REMARK       I    between atoms: C_12  and  N_14 
REMARK    7  A    between atoms: N_14  and  C_15 
REMARK    8  A    between atoms: C_15  and  C_17 
REMARK    9  A    between atoms: C_21  and  O_22 
ROOT
HETATM    1  C   UNL     1      27.845  43.088  53.722  1.00  0.00     0.085 A 
HETATM    2  C   UNL     1      28.896  43.044  54.647  1.00  0.00     0.050 A 
HETATM    3  C   UNL     1      29.296  44.201  55.331  1.00  0.00    -0.020 A 
HETATM    4  C   UNL     1      28.624  45.403  55.068  1.00  0.00     0.013 A 
HETATM    5  C   UNL     1      27.554  45.441  54.167  1.00  0.00     0.021 A 
HETATM    6  C   UNL     1      27.135  44.277  53.511  1.00  0.00     0.065 A 
ENDROOT
BRANCH   6   7
HETATM    7  C   UNL     1      25.925  44.382  52.652  1.00  0.00     0.255 C 
HETATM    8  O   UNL     1      24.814  44.448  53.166  1.00  0.00    -0.268 OA
HETATM    9  N   UNL     1      26.140  44.343  51.294  1.00  0.00    -0.349 N 
HETATM   10  H   UNL     1      27.094  44.400  50.957  1.00  0.00     0.163 HD
BRANCH   9  11
HETATM   11  C   UNL     1      25.065  44.472  50.326  1.00  0.00     0.114 C 
HETATM   12  C   UNL     1      25.289  43.505  49.162  1.00  0.00     0.037 C 
BRANCH  11  13
HETATM   13  C   UNL     1      24.937  45.922  49.895  1.00  0.00    -0.033 A 
HETATM   14  C   UNL     1      23.672  46.426  49.556  1.00  0.00     0.009 A 
HETATM   15  C   UNL     1      23.517  47.757  49.171  1.00  0.00     0.003 A 
HETATM   16  C   UNL     1      24.623  48.603  49.137  1.00  0.00     0.037 A 
HETATM   17  C   UNL     1      25.887  48.133  49.498  1.00  0.00     0.068 A 
HETATM   18  C   UNL     1      26.040  46.796  49.874  1.00  0.00     0.046 A 
BRANCH  17  19
HETATM   19  O   UNL     1      26.882  49.071  49.440  1.00  0.00    -0.356 OA
HETATM   20  C   UNL     1      26.818  50.008  48.372  1.00  0.00     0.210 C 
ENDBRANCH  17  19
ENDBRANCH  11  13
ENDBRANCH   9  11
ENDBRANCH   6   7
BRANCH   1  21
HETATM   21  O   UNL     1      27.529  41.908  53.098  1.00  0.00    -0.348 OA
BRANCH  21  22
HETATM   22  C   UNL     1      28.622  41.422  52.290  1.00  0.00     0.201 C 
BRANCH  22  23
HETATM   23  C   UNL     1      28.216  41.373  50.818  1.00  0.00     0.193 C 
BRANCH  23  24
HETATM   24  O   UNL     1      27.659  40.090  50.513  1.00  0.00    -0.394 OA
HETATM   25  C   UNL     1      26.252  40.163  50.330  1.00  0.00     0.201 C 
ENDBRANCH  23  24
ENDBRANCH  22  23
ENDBRANCH  21  22
ENDBRANCH   1  21
BRANCH   3  26
HETATM   26  C   UNL     1      30.366  44.139  56.312  1.00  0.00     0.010 A 
HETATM   27  C   UNL     1      31.406  43.194  56.489  1.00  0.00     0.152 A 
HETATM   28  N   UNL     1      32.201  43.484  57.522  1.00  0.00    -0.187 NA
HETATM   29  N   UNL     1      31.673  44.614  58.017  1.00  0.00    -0.289 N 
HETATM   30  H   UNL     1      32.112  45.034  58.829  1.00  0.00     0.188 HD
HETATM   31  C   UNL     1      30.577  45.049  57.327  1.00  0.00     0.123 A 
ENDBRANCH   3  26
TORSDOF 9
ENDMDL
MODEL 6
REMARK VINA RESULT:      -7.9      3.343      6.432
REMARK  9 active torsions:
REMARK  status: ('A' for Active; 'I' for Inactive)
REMARK    1  A    between atoms: O_2  and  C_3 
REMARK    2  A    between atoms: C_3  and  C_4 
REMARK    3  A    between atoms: C_4  and  O_5 
REMARK    4  A    between atoms: O_5  and  C_6 
REMARK    5  A    between atoms: C_8  and  C_25 
REMARK    6  A    between atoms: C_11  and  C_12 
REMARK       I    between atoms: C_12  and  N_14 
REMARK    7  A    between atoms: N_14  and  C_15 
REMARK    8  A    between atoms: C_15  and  C_17 
REMARK    9  A    between atoms: C_21  and  O_22 
ROOT
HETATM    1  C   UNL     1      27.435  44.177  53.591  1.00  0.00     0.085 A 
HETATM    2  C   UNL     1      28.232  44.301  54.736  1.00  0.00     0.050 A 
HETATM    3  C   UNL     1      29.554  43.832  54.742  1.00  0.00    -0.020 A 
HETATM    4  C   UNL     1      30.059  43.232  53.580  1.00  0.00     0.013 A 
HETATM    5  C   UNL     1      29.272  43.134  52.427  1.00  0.00     0.021 A 
HETATM    6  C   UNL     1      27.964  43.635  52.413  1.00  0.00     0.065 A 
ENDROOT
BRANCH   6   7
HETATM    7  C   UNL     1      27.234  43.588  51.118  1.00  0.00     0.255 C 
HETATM    8  O   UNL     1      27.638  44.243  50.164  1.00  0.00    -0.268 OA
HETATM    9  N   UNL     1      26.088  42.827  51.095  1.00  0.00    -0.349 N 
HETATM   10  H   UNL     1      25.892  42.232  51.891  1.00  0.00     0.163 HD
BRANCH   9  11
HETATM   11  C   UNL     1      25.288  42.651  49.896  1.00  0.00     0.114 C 
HETATM   12  C   UNL     1      23.805  42.836  50.224  1.00  0.00     0.037 C 
BRANCH  11  13
HETATM   13  C   UNL     1      25.607  41.310  49.261  1.00  0.00    -0.033 A 
HETATM   14  C   UNL     1      25.148  41.041  47.962  1.00  0.00     0.009 A 
HETATM   15  C   UNL     1      25.437  39.825  47.343  1.00  0.00     0.003 A 
HETATM   16  C   UNL     1      26.202  38.871  48.010  1.00  0.00     0.037 A 
HETATM   17  C   UNL     1      26.694  39.126  49.292  1.00  0.00     0.068 A 
HETATM   18  C   UNL     1      26.395  40.342  49.912  1.00  0.00     0.046 A 
BRANCH  17  19
HETATM   19  O   UNL     1      27.447  38.115  49.825  1.00  0.00    -0.356 OA
HETATM   20  C   UNL     1      27.120  36.792  49.421  1.00  0.00     0.210 C 
ENDBRANCH  17  19
ENDBRANCH  11  13
ENDBRANCH   9  11
ENDBRANCH   6   7
BRANCH   1  21
HETATM   21  O   UNL     1      26.154  44.661  53.682  1.00  0.00    -0.348 OA
BRANCH  21  22
HETATM   22  C   UNL     1      26.097  45.879  54.455  1.00  0.00     0.201 C 
BRANCH  22  23
HETATM   23  C   UNL     1      25.832  47.077  53.544  1.00  0.00     0.193 C 
BRANCH  23  24
HETATM   24  O   UNL     1      25.551  48.234  54.339  1.00  0.00    -0.394 OA
HETATM   25  C   UNL     1      26.412  48.314  55.466  1.00  0.00     0.201 C 
ENDBRANCH  23  24
ENDBRANCH  22  23
ENDBRANCH  21  22
ENDBRANCH   1  21
BRANCH   3  26
HETATM   26  C   UNL     1      30.384  43.995  55.924  1.00  0.00     0.010 A 
HETATM   27  C   UNL     1      31.342  43.132  56.508  1.00  0.00     0.152 A 
HETATM   28  N   UNL     1      31.899  43.643  57.609  1.00  0.00    -0.187 NA
HETATM   29  N   UNL     1      31.296  44.835  57.740  1.00  0.00    -0.289 N 
HETATM   30  H   UNL     1      31.556  45.421  58.527  1.00  0.00     0.188 HD
HETATM   31  C   UNL     1      30.386  45.095  56.756  1.00  0.00     0.123 A 
ENDBRANCH   3  26
TORSDOF 9
ENDMDL
MODEL 7
REMARK VINA RESULT:      -7.7      3.071      8.356
REMARK  9 active torsions:
REMARK  status: ('A' for Active; 'I' for Inactive)
REMARK    1  A    between atoms: O_2  and  C_3 
REMARK    2  A    between atoms: C_3  and  C_4 
REMARK    3  A    between atoms: C_4  and  O_5 
REMARK    4  A    between atoms: O_5  and  C_6 
REMARK    5  A    between atoms: C_8  and  C_25 
REMARK    6  A    between atoms: C_11  and  C_12 
REMARK       I    between atoms: C_12  and  N_14 
REMARK    7  A    between atoms: N_14  and  C_15 
REMARK    8  A    between atoms: C_15  and  C_17 
REMARK    9  A    between atoms: C_21  and  O_22 
ROOT
HETATM    1  C   UNL     1      24.544  45.585  50.011  1.00  0.00     0.085 A 
HETATM    2  C   UNL     1      23.761  46.695  49.672  1.00  0.00     0.050 A 
HETATM    3  C   UNL     1      24.352  47.948  49.450  1.00  0.00    -0.020 A 
HETATM    4  C   UNL     1      25.743  48.066  49.579  1.00  0.00     0.013 A 
HETATM    5  C   UNL     1      26.529  46.951  49.889  1.00  0.00     0.021 A 
HETATM    6  C   UNL     1      25.939  45.695  50.076  1.00  0.00     0.065 A 
ENDROOT
BRANCH   6   7
HETATM    7  C   UNL     1      26.854  44.542  50.297  1.00  0.00     0.255 C 
HETATM    8  O   UNL     1      27.205  43.850  49.348  1.00  0.00    -0.268 OA
HETATM    9  N   UNL     1      27.214  44.294  51.602  1.00  0.00    -0.349 N 
HETATM   10  H   UNL     1      26.970  44.982  52.305  1.00  0.00     0.163 HD
BRANCH   9  11
HETATM   11  C   UNL     1      28.129  43.231  51.974  1.00  0.00     0.114 C 
HETATM   12  C   UNL     1      27.385  41.896  52.036  1.00  0.00     0.037 C 
BRANCH  11  13
HETATM   13  C   UNL     1      28.835  43.594  53.269  1.00  0.00    -0.033 A 
HETATM   14  C   UNL     1      29.998  42.899  53.633  1.00  0.00     0.009 A 
HETATM   15  C   UNL     1      30.679  43.218  54.807  1.00  0.00     0.003 A 
HETATM   16  C   UNL     1      30.214  44.247  55.621  1.00  0.00     0.037 A 
HETATM   17  C   UNL     1      29.075  44.973  55.267  1.00  0.00     0.068 A 
HETATM   18  C   UNL     1      28.390  44.644  54.094  1.00  0.00     0.046 A 
BRANCH  17  19
HETATM   19  O   UNL     1      28.737  45.968  56.143  1.00  0.00    -0.356 OA
HETATM   20  C   UNL     1      27.894  47.000  55.646  1.00  0.00     0.210 C 
ENDBRANCH  17  19
ENDBRANCH  11  13
ENDBRANCH   9  11
ENDBRANCH   6   7
BRANCH   1  21
HETATM   21  O   UNL     1      23.876  44.404  50.214  1.00  0.00    -0.348 OA
BRANCH  21  22
HETATM   22  C   UNL     1      23.473  43.798  48.968  1.00  0.00     0.201 C 
BRANCH  22  23
HETATM   23  C   UNL     1      23.049  42.348  49.191  1.00  0.00     0.193 C 
BRANCH  23  24
HETATM   24  O   UNL     1      22.282  41.891  48.072  1.00  0.00    -0.394 OA
HETATM   25  C   UNL     1      22.099  42.921  47.110  1.00  0.00     0.201 C 
ENDBRANCH  23  24
ENDBRANCH  22  23
ENDBRANCH  21  22
ENDBRANCH   1  21
BRANCH   3  26
HETATM   26  C   UNL     1      23.534  49.086  49.066  1.00  0.00     0.010 A 
HETATM   27  C   UNL     1      23.898  50.396  48.669  1.00  0.00     0.152 A 
HETATM   28  N   UNL     1      22.843  51.168  48.397  1.00  0.00    -0.187 NA
HETATM   29  N   UNL     1      21.797  50.360  48.624  1.00  0.00    -0.289 N 
HETATM   30  H   UNL     1      20.863  50.733  48.487  1.00  0.00     0.188 HD
HETATM   31  C   UNL     1      22.156  49.104  49.021  1.00  0.00     0.123 A 
ENDBRANCH   3  26
TORSDOF 9
ENDMDL
MODEL 8
REMARK VINA RESULT:      -7.5      3.378      6.137
REMARK  9 active torsions:
REMARK  status: ('A' for Active; 'I' for Inactive)
REMARK    1  A    between atoms: O_2  and  C_3 
REMARK    2  A    between atoms: C_3  and  C_4 
REMARK    3  A    between atoms: C_4  and  O_5 
REMARK    4  A    between atoms: O_5  and  C_6 
REMARK    5  A    between atoms: C_8  and  C_25 
REMARK    6  A    between atoms: C_11  and  C_12 
REMARK       I    between atoms: C_12  and  N_14 
REMARK    7  A    between atoms: N_14  and  C_15 
REMARK    8  A    between atoms: C_15  and  C_17 
REMARK    9  A    between atoms: C_21  and  O_22 
ROOT
HETATM    1  C   UNL     1      27.360  42.857  52.216  1.00  0.00     0.085 A 
HETATM    2  C   UNL     1      27.613  43.786  53.233  1.00  0.00     0.050 A 
HETATM    3  C   UNL     1      28.720  43.636  54.081  1.00  0.00    -0.020 A 
HETATM    4  C   UNL     1      29.565  42.533  53.892  1.00  0.00     0.013 A 
HETATM    5  C   UNL     1      29.330  41.621  52.858  1.00  0.00     0.021 A 
HETATM    6  C   UNL     1      28.243  41.794  51.991  1.00  0.00     0.065 A 
ENDROOT
BRANCH   6   7
HETATM    7  C   UNL     1      28.124  40.840  50.855  1.00  0.00     0.255 C 
HETATM    8  O   UNL     1      28.682  39.750  50.911  1.00  0.00    -0.268 OA
HETATM    9  N   UNL     1      27.418  41.285  49.761  1.00  0.00    -0.349 N 
HETATM   10  H   UNL     1      26.899  42.151  49.845  1.00  0.00     0.163 HD
BRANCH   9  11
HETATM   11  C   UNL     1      27.183  40.458  48.591  1.00  0.00     0.114 C 
HETATM   12  C   UNL     1      28.145  40.852  47.469  1.00  0.00     0.037 C 
BRANCH  11  13
HETATM   13  C   UNL     1      25.720  40.538  48.194  1.00  0.00    -0.033 A 
HETATM   14  C   UNL     1      25.259  39.765  47.118  1.00  0.00     0.009 A 
HETATM   15  C   UNL     1      23.918  39.803  46.737  1.00  0.00     0.003 A 
HETATM   16  C   UNL     1      23.020  40.603  47.439  1.00  0.00     0.037 A 
HETATM   17  C   UNL     1      23.448  41.360  48.531  1.00  0.00     0.068 A 
HETATM   18  C   UNL     1      24.794  41.326  48.904  1.00  0.00     0.046 A 
BRANCH  17  19
HETATM   19  O   UNL     1      22.462  42.086  49.143  1.00  0.00    -0.356 OA
HETATM   20  C   UNL     1      22.879  43.182  49.948  1.00  0.00     0.210 C 
ENDBRANCH  17  19
ENDBRANCH  11  13
ENDBRANCH   9  11
ENDBRANCH   6   7
BRANCH   1  21
HETATM   21  O   UNL     1      26.250  43.085  51.442  1.00  0.00    -0.348 OA
BRANCH  21  22
HETATM   22  C   UNL     1      26.156  44.468  51.038  1.00  0.00     0.201 C 
BRANCH  22  23
HETATM   23  C   UNL     1      26.479  44.614  49.552  1.00  0.00     0.193 C 
BRANCH  23  24
HETATM   24  O   UNL     1      27.274  45.787  49.344  1.00  0.00    -0.394 OA
HETATM   25  C   UNL     1      26.600  46.958  49.785  1.00  0.00     0.201 C 
ENDBRANCH  23  24
ENDBRANCH  22  23
ENDBRANCH  21  22
ENDBRANCH   1  21
BRANCH   3  26
HETATM   26  C   UNL     1      28.993  44.623  55.112  1.00  0.00     0.010 A 
HETATM   27  C   UNL     1      28.191  45.670  55.626  1.00  0.00     0.152 A 
HETATM   28  N   UNL     1      28.806  46.376  56.578  1.00  0.00    -0.187 NA
HETATM   29  N   UNL     1      30.008  45.789  56.677  1.00  0.00    -0.289 N 
HETATM   30  H   UNL     1      30.672  46.162  57.347  1.00  0.00     0.188 HD
HETATM   31  C   UNL     1      30.169  44.733  55.825  1.00  0.00     0.123 A 
ENDBRANCH   3  26
TORSDOF 9
ENDMDL
MODEL 9
REMARK VINA RESULT:      -7.4      3.172      8.031
REMARK  9 active torsions:
REMARK  status: ('A' for Active; 'I' for Inactive)
REMARK    1  A    between atoms: O_2  and  C_3 
REMARK    2  A    between atoms: C_3  and  C_4 
REMARK    3  A    between atoms: C_4  and  O_5 
REMARK    4  A    between atoms: O_5  and  C_6 
REMARK    5  A    between atoms: C_8  and  C_25 
REMARK    6  A    between atoms: C_11  and  C_12 
REMARK       I    between atoms: C_12  and  N_14 
REMARK    7  A    between atoms: N_14  and  C_15 
REMARK    8  A    between atoms: C_15  and  C_17 
REMARK    9  A    between atoms: C_21  and  O_22 
ROOT
HETATM    1  C   UNL     1      24.957  43.918  50.611  1.00  0.00     0.085 A 
HETATM    2  C   UNL     1      23.871  44.541  49.983  1.00  0.00     0.050 A 
HETATM    3  C   UNL     1      23.940  45.891  49.609  1.00  0.00    -0.020 A 
HETATM    4  C   UNL     1      25.116  46.604  49.880  1.00  0.00     0.013 A 
HETATM    5  C   UNL     1      26.211  45.974  50.480  1.00  0.00     0.021 A 
HETATM    6  C   UNL     1      26.152  44.617  50.821  1.00  0.00     0.065 A 
ENDROOT
BRANCH   6   7
HETATM    7  C   UNL     1      27.394  43.997  51.357  1.00  0.00     0.255 C 
HETATM    8  O   UNL     1      28.455  44.142  50.760  1.00  0.00    -0.268 OA
HETATM    9  N   UNL     1      27.252  43.237  52.494  1.00  0.00    -0.349 N 
HETATM   10  H   UNL     1      26.363  43.265  52.981  1.00  0.00     0.163 HD
BRANCH   9  11
HETATM   11  C   UNL     1      28.375  42.600  53.158  1.00  0.00     0.114 C 
HETATM   12  C   UNL     1      27.963  41.224  53.681  1.00  0.00     0.037 C 
BRANCH  11  13
HETATM   13  C   UNL     1      28.922  43.522  54.234  1.00  0.00    -0.033 A 
HETATM   14  C   UNL     1      30.173  43.241  54.805  1.00  0.00     0.009 A 
HETATM   15  C   UNL     1      30.711  44.075  55.784  1.00  0.00     0.003 A 
HETATM   16  C   UNL     1      30.011  45.209  56.191  1.00  0.00     0.037 A 
HETATM   17  C   UNL     1      28.779  45.526  55.617  1.00  0.00     0.068 A 
HETATM   18  C   UNL     1      28.238  44.682  54.643  1.00  0.00     0.046 A 
BRANCH  17  19
HETATM   19  O   UNL     1      28.208  46.675  56.092  1.00  0.00    -0.356 OA
HETATM   20  C   UNL     1      27.681  47.575  55.125  1.00  0.00     0.210 C 
ENDBRANCH  17  19
ENDBRANCH  11  13
ENDBRANCH   9  11
ENDBRANCH   6   7
BRANCH   1  21
HETATM   21  O   UNL     1      24.794  42.597  50.944  1.00  0.00    -0.348 OA
BRANCH  21  22
HETATM   22  C   UNL     1      25.131  41.723  49.845  1.00  0.00     0.201 C 
BRANCH  22  23
HETATM   23  C   UNL     1      26.035  40.588  50.323  1.00  0.00     0.193 C 
BRANCH  23  24
HETATM   24  O   UNL     1      27.407  40.947  50.126  1.00  0.00    -0.394 OA
HETATM   25  C   UNL     1      28.262  39.818  50.235  1.00  0.00     0.201 C 
ENDBRANCH  23  24
ENDBRANCH  22  23
ENDBRANCH  21  22
ENDBRANCH   1  21
BRANCH   3  26
HETATM   26  C   UNL     1      22.820  46.521  48.928  1.00  0.00     0.010 A 
HETATM   27  C   UNL     1      21.733  45.957  48.218  1.00  0.00     0.152 A 
HETATM   28  N   UNL     1      20.901  46.877  47.725  1.00  0.00    -0.187 NA
HETATM   29  N   UNL     1      21.452  48.038  48.112  1.00  0.00    -0.289 N 
HETATM   30  H   UNL     1      20.992  48.902  47.844  1.00  0.00     0.188 HD
HETATM   31  C   UNL     1      22.599  47.879  48.837  1.00  0.00     0.123 A 
ENDBRANCH   3  26
TORSDOF 9
ENDMDL
MODEL 10
REMARK VINA RESULT:      -7.3      1.402      2.070
REMARK  9 active torsions:
REMARK  status: ('A' for Active; 'I' for Inactive)
REMARK    1  A    between atoms: O_2  and  C_3 
REMARK    2  A    between atoms: C_3  and  C_4 
REMARK    3  A    between atoms: C_4  and  O_5 
REMARK    4  A    between atoms: O_5  and  C_6 
REMARK    5  A    between atoms: C_8  and  C_25 
REMARK    6  A    between atoms: C_11  and  C_12 
REMARK       I    between atoms: C_12  and  N_14 
REMARK    7  A    between atoms: N_14  and  C_15 
REMARK    8  A    between atoms: C_15  and  C_17 
REMARK    9  A    between atoms: C_21  and  O_22 
ROOT
HETATM    1  C   UNL     1      27.148  44.186  53.956  1.00  0.00     0.085 A 
HETATM    2  C   UNL     1      28.115  44.270  54.966  1.00  0.00     0.050 A 
HETATM    3  C   UNL     1      28.411  45.499  55.573  1.00  0.00    -0.020 A 
HETATM    4  C   UNL     1      27.721  46.643  55.147  1.00  0.00     0.013 A 
HETATM    5  C   UNL     1      26.733  46.554  54.159  1.00  0.00     0.021 A 
HETATM    6  C   UNL     1      26.417  45.319  53.579  1.00  0.00     0.065 A 
ENDROOT
BRANCH   6   7
HETATM    7  C   UNL     1      25.283  45.294  52.615  1.00  0.00     0.255 C 
HETATM    8  O   UNL     1      24.274  44.649  52.875  1.00  0.00    -0.268 OA
HETATM    9  N   UNL     1      25.474  45.978  51.437  1.00  0.00    -0.349 N 
HETATM   10  H   UNL     1      26.289  46.574  51.354  1.00  0.00     0.163 HD
BRANCH   9  11
HETATM   11  C   UNL     1      24.448  46.078  50.414  1.00  0.00     0.114 C 
HETATM   12  C   UNL     1      24.554  44.898  49.447  1.00  0.00     0.037 C 
BRANCH  11  13
HETATM   13  C   UNL     1      24.537  47.432  49.732  1.00  0.00    -0.033 A 
HETATM   14  C   UNL     1      23.355  48.089  49.357  1.00  0.00     0.009 A 
HETATM   15  C   UNL     1      23.401  49.340  48.743  1.00  0.00     0.003 A 
HETATM   16  C   UNL     1      24.629  49.956  48.514  1.00  0.00     0.037 A 
HETATM   17  C   UNL     1      25.817  49.336  48.904  1.00  0.00     0.068 A 
HETATM   18  C   UNL     1      25.768  48.078  49.510  1.00  0.00     0.046 A 
BRANCH  17  19
HETATM   19  O   UNL     1      26.950  50.057  48.638  1.00  0.00    -0.356 OA
HETATM   20  C   UNL     1      28.167  49.562  49.183  1.00  0.00     0.210 C 
ENDBRANCH  17  19
ENDBRANCH  11  13
ENDBRANCH   9  11
ENDBRANCH   6   7
BRANCH   1  21
HETATM   21  O   UNL     1      26.932  42.943  53.418  1.00  0.00    -0.348 OA
BRANCH  21  22
HETATM   22  C   UNL     1      27.460  42.842  52.078  1.00  0.00     0.201 C 
BRANCH  22  23
HETATM   23  C   UNL     1      28.800  42.109  52.086  1.00  0.00     0.193 C 
BRANCH  23  24
HETATM   24  O   UNL     1      29.866  43.052  52.236  1.00  0.00    -0.394 OA
HETATM   25  C   UNL     1      30.625  42.799  53.410  1.00  0.00     0.201 C 
ENDBRANCH  23  24
ENDBRANCH  22  23
ENDBRANCH  21  22
ENDBRANCH   1  21
BRANCH   3  26
HETATM   26  C   UNL     1      29.393  45.571  56.642  1.00  0.00     0.010 A 
HETATM   27  C   UNL     1      30.643  44.923  56.796  1.00  0.00     0.152 A 
HETATM   28  N   UNL     1      31.259  45.247  57.935  1.00  0.00    -0.187 NA
HETATM   29  N   UNL     1      30.405  46.100  58.522  1.00  0.00    -0.289 N 
HETATM   30  H   UNL     1      30.658  46.488  59.425  1.00  0.00     0.188 HD
HETATM   31  C   UNL     1      29.276  46.330  57.788  1.00  0.00     0.123 A 
ENDBRANCH   3  26
TORSDOF 9
ENDMDL
