MODEL 1
REMARK VINA RESULT:      -9.4      0.000      0.000
REMARK  11 active torsions:
REMARK  status: ('A' for Active; 'I' for Inactive)
REMARK    1  A    between atoms: C_2  and  N_3 
REMARK    2  A    between atoms: N_3  and  C_4 
REMARK    3  A    between atoms: C_6  and  N_7 
REMARK    4  A    between atoms: N_10  and  C_12 
REMARK    5  A    between atoms: C_25  and  N_26 
REMARK    6  A    between atoms: N_26  and  C_27 
REMARK    7  A    between atoms: C_27  and  C_28 
REMARK    8  A    between atoms: C_28  and  C_29 
REMARK    9  A    between atoms: C_29  and  O_30 
REMARK   10  A    between atoms: C_34  and  O_35 
REMARK   11  A    between atoms: O_35  and  C_36 
ROOT
HETATM    1  C   UNL     1      23.960  45.267  49.814  1.00  0.00     0.758 C 
HETATM    2  N   UNL     1      22.854  45.089  49.098  1.00  0.00     0.131 NA
HETATM    3  C   UNL     1      22.326  46.171  48.548  1.00  0.00     0.756 C 
HETATM    4  N   UNL     1      22.905  47.361  48.585  1.00  0.00     0.131 NA
HETATM    5  C   UNL     1      23.985  47.464  49.345  1.00  0.00     0.754 C 
HETATM    6  N   UNL     1      24.536  46.447  49.996  1.00  0.00     0.131 NA
ENDROOT
BRANCH   3   7
HETATM    7  N   UNL     1      21.101  46.062  47.890  1.00  0.00    -0.210 N 
HETATM    8  C   UNL     1      20.954  46.862  46.671  1.00  0.00     0.169 C 
HETATM    9  C   UNL     1      20.528  48.312  46.974  1.00  0.00     0.256 C 
HETATM   10  N   UNL     1      19.252  48.334  47.854  1.00  0.00    -0.059 N 
HETATM   11  H   UNL     1      18.551  47.796  47.329  1.00  0.00     0.281 HD
HETATM   12  C   UNL     1      19.522  47.515  49.140  1.00  0.00     0.256 C 
HETATM   13  C   UNL     1      19.949  46.068  48.792  1.00  0.00     0.169 C 
BRANCH  10  14
HETATM   14  C   UNL     1      18.632  49.731  48.067  1.00  0.00     0.129 C 
HETATM   15  C   UNL     1      17.130  49.579  48.432  1.00  0.00     0.043 C 
HETATM   16  C   UNL     1      16.492  50.955  48.691  1.00  0.00    -0.012 C 
HETATM   17  C   UNL     1      16.634  51.818  47.425  1.00  0.00     0.009 C 
HETATM   18  C   UNL     1      17.214  51.638  49.860  1.00  0.00     0.009 C 
HETATM   19  C   UNL     1      18.121  51.998  47.072  1.00  0.00    -0.012 C 
HETATM   20  C   UNL     1      18.757  50.617  46.809  1.00  0.00     0.043 C 
HETATM   21  C   UNL     1      18.835  52.678  48.252  1.00  0.00     0.009 C 
HETATM   22  C   UNL     1      18.699  51.816  49.520  1.00  0.00    -0.012 C 
HETATM   23  C   UNL     1      19.333  50.438  49.258  1.00  0.00     0.043 C 
ENDBRANCH  10  14
ENDBRANCH   3   7
BRANCH   1  24
HETATM   24  N   UNL     1      24.545  44.177  50.457  1.00  0.00    -0.187 N 
HETATM   25  H   UNL     1      23.889  43.413  50.563  1.00  0.00     0.184 HD
BRANCH  24  26
HETATM   26  C   UNL     1      25.632  44.145  51.344  1.00  0.00     0.049 A 
HETATM   27  C   UNL     1      25.481  44.268  52.729  1.00  0.00     0.033 A 
HETATM   28  C   UNL     1      26.590  44.269  53.584  1.00  0.00     0.039 A 
HETATM   29  C   UNL     1      27.878  44.172  53.065  1.00  0.00     0.076 A 
HETATM   30  C   UNL     1      28.038  44.040  51.685  1.00  0.00     0.039 A 
HETATM   31  C   UNL     1      26.927  44.023  50.833  1.00  0.00     0.033 A 
BRANCH  29  32
HETATM   32  O   UNL     1      29.042  44.188  53.777  1.00  0.00    -0.270 OA
BRANCH  32  33
HETATM   33  C   UNL     1      29.685  42.948  54.048  1.00  0.00     0.447 C 
HETATM   34 CL   UNL     1      30.620  43.067  55.535  1.00  0.00    -0.014 Cl
HETATM   35  F   UNL     1      28.753  41.964  54.167  1.00  0.00    -0.159 F 
HETATM   36  F   UNL     1      30.495  42.617  53.011  1.00  0.00    -0.159 F 
ENDBRANCH  32  33
ENDBRANCH  29  32
ENDBRANCH  24  26
ENDBRANCH   1  24
BRANCH   5  37
HETATM   37  N   UNL     1      24.511  48.735  49.475  1.00  0.00    -0.221 N 
HETATM   38  H   UNL     1      23.972  49.258  50.155  1.00  0.00     0.177 HD
BRANCH  37  39
HETATM   39  C   UNL     1      24.909  49.457  48.280  1.00  0.00     0.140 C 
BRANCH  39  40
HETATM   40  C   UNL     1      26.419  49.699  48.260  1.00  0.00     0.046 C 
BRANCH  40  41
HETATM   41  C   UNL     1      27.199  48.943  49.330  1.00  0.00     0.165 C 
BRANCH  41  42
HETATM   42  O   UNL     1      27.414  47.590  48.951  1.00  0.00    -0.401 OA
HETATM   43  H   UNL     1      27.776  47.154  49.747  1.00  0.00     0.209 HD
ENDBRANCH  41  42
ENDBRANCH  40  41
ENDBRANCH  39  40
ENDBRANCH  37  39
ENDBRANCH   5  37
TORSDOF 11
ENDMDL
MODEL 2
REMARK VINA RESULT:      -9.4      1.366      1.549
REMARK  11 active torsions:
REMARK  status: ('A' for Active; 'I' for Inactive)
REMARK    1  A    between atoms: C_2  and  N_3 
REMARK    2  A    between atoms: N_3  and  C_4 
REMARK    3  A    between atoms: C_6  and  N_7 
REMARK    4  A    between atoms: N_10  and  C_12 
REMARK    5  A    between atoms: C_25  and  N_26 
REMARK    6  A    between atoms: N_26  and  C_27 
REMARK    7  A    between atoms: C_27  and  C_28 
REMARK    8  A    between atoms: C_28  and  C_29 
REMARK    9  A    between atoms: C_29  and  O_30 
REMARK   10  A    between atoms: C_34  and  O_35 
REMARK   11  A    between atoms: O_35  and  C_36 
ROOT
HETATM    1  C   UNL     1      24.211  45.152  50.187  1.00  0.00     0.758 C 
HETATM    2  N   UNL     1      23.153  44.964  49.403  1.00  0.00     0.131 NA
HETATM    3  C   UNL     1      22.711  46.023  48.744  1.00  0.00     0.756 C 
HETATM    4  N   UNL     1      23.333  47.191  48.745  1.00  0.00     0.131 NA
HETATM    5  C   UNL     1      24.358  47.309  49.575  1.00  0.00     0.754 C 
HETATM    6  N   UNL     1      24.819  46.321  50.332  1.00  0.00     0.131 NA
ENDROOT
BRANCH   3   7
HETATM    7  N   UNL     1      21.533  45.910  48.005  1.00  0.00    -0.210 N 
HETATM    8  C   UNL     1      21.439  46.763  46.816  1.00  0.00     0.169 C 
HETATM    9  C   UNL     1      20.949  48.185  47.157  1.00  0.00     0.256 C 
HETATM   10  N   UNL     1      19.621  48.129  47.954  1.00  0.00    -0.059 N 
HETATM   11  H   UNL     1      18.971  47.598  47.361  1.00  0.00     0.281 HD
HETATM   12  C   UNL     1      19.835  47.258  49.216  1.00  0.00     0.256 C 
HETATM   13  C   UNL     1      20.328  45.842  48.831  1.00  0.00     0.169 C 
BRANCH  10  14
HETATM   14  C   UNL     1      18.946  49.497  48.191  1.00  0.00     0.129 C 
HETATM   15  C   UNL     1      18.354  49.539  49.626  1.00  0.00     0.043 C 
HETATM   16  C   UNL     1      17.709  50.908  49.907  1.00  0.00    -0.012 C 
HETATM   17  C   UNL     1      16.592  51.154  48.877  1.00  0.00     0.009 C 
HETATM   18  C   UNL     1      18.772  52.006  49.784  1.00  0.00     0.009 C 
HETATM   19  C   UNL     1      17.175  51.143  47.453  1.00  0.00    -0.012 C 
HETATM   20  C   UNL     1      17.818  49.769  47.173  1.00  0.00     0.043 C 
HETATM   21  C   UNL     1      18.243  52.244  47.343  1.00  0.00     0.009 C 
HETATM   22  C   UNL     1      19.364  51.998  48.368  1.00  0.00    -0.012 C 
HETATM   23  C   UNL     1      20.005  50.627  48.089  1.00  0.00     0.043 C 
ENDBRANCH  10  14
ENDBRANCH   3   7
BRANCH   1  24
HETATM   24  N   UNL     1      24.705  44.090  50.943  1.00  0.00    -0.187 N 
HETATM   25  H   UNL     1      24.051  43.317  50.967  1.00  0.00     0.184 HD
BRANCH  24  26
HETATM   26  C   UNL     1      25.639  44.101  51.989  1.00  0.00     0.049 A 
HETATM   27  C   UNL     1      25.284  44.353  53.318  1.00  0.00     0.033 A 
HETATM   28  C   UNL     1      26.247  44.392  54.334  1.00  0.00     0.039 A 
HETATM   29  C   UNL     1      27.594  44.205  54.033  1.00  0.00     0.076 A 
HETATM   30  C   UNL     1      27.957  43.944  52.711  1.00  0.00     0.039 A 
HETATM   31  C   UNL     1      26.990  43.889  51.700  1.00  0.00     0.033 A 
BRANCH  29  32
HETATM   32  O   UNL     1      28.633  44.246  54.916  1.00  0.00    -0.270 OA
BRANCH  32  33
HETATM   33  C   UNL     1      28.937  45.486  55.545  1.00  0.00     0.447 C 
HETATM   34 CL   UNL     1      30.590  45.466  56.149  1.00  0.00    -0.014 Cl
HETATM   35  F   UNL     1      28.783  46.502  54.653  1.00  0.00    -0.159 F 
HETATM   36  F   UNL     1      28.069  45.706  56.564  1.00  0.00    -0.159 F 
ENDBRANCH  32  33
ENDBRANCH  29  32
ENDBRANCH  24  26
ENDBRANCH   1  24
BRANCH   5  37
HETATM   37  N   UNL     1      24.923  48.567  49.658  1.00  0.00    -0.221 N 
HETATM   38  H   UNL     1      24.505  49.078  50.427  1.00  0.00     0.177 HD
BRANCH  37  39
HETATM   39  C   UNL     1      25.150  49.319  48.437  1.00  0.00     0.140 C 
BRANCH  39  40
HETATM   40  C   UNL     1      26.574  49.872  48.386  1.00  0.00     0.046 C 
BRANCH  40  41
HETATM   41  C   UNL     1      27.597  49.070  49.184  1.00  0.00     0.165 C 
BRANCH  41  42
HETATM   42  O   UNL     1      27.843  47.806  48.581  1.00  0.00    -0.401 OA
HETATM   43  H   UNL     1      27.145  47.216  48.927  1.00  0.00     0.209 HD
ENDBRANCH  41  42
ENDBRANCH  40  41
ENDBRANCH  39  40
ENDBRANCH  37  39
ENDBRANCH   5  37
TORSDOF 11
ENDMDL
MODEL 3
REMARK VINA RESULT:      -9.3      1.205      1.953
REMARK  11 active torsions:
REMARK  status: ('A' for Active; 'I' for Inactive)
REMARK    1  A    between atoms: C_2  and  N_3 
REMARK    2  A    between atoms: N_3  and  C_4 
REMARK    3  A    between atoms: C_6  and  N_7 
REMARK    4  A    between atoms: N_10  and  C_12 
REMARK    5  A    between atoms: C_25  and  N_26 
REMARK    6  A    between atoms: N_26  and  C_27 
REMARK    7  A    between atoms: C_27  and  C_28 
REMARK    8  A    between atoms: C_28  and  C_29 
REMARK    9  A    between atoms: C_29  and  O_30 
REMARK   10  A    between atoms: C_34  and  O_35 
REMARK   11  A    between atoms: O_35  and  C_36 
ROOT
HETATM    1  C   UNL     1      23.817  45.273  49.667  1.00  0.00     0.758 C 
HETATM    2  N   UNL     1      22.686  45.081  48.994  1.00  0.00     0.131 NA
HETATM    3  C   UNL     1      22.115  46.160  48.481  1.00  0.00     0.756 C 
HETATM    4  N   UNL     1      22.671  47.360  48.509  1.00  0.00     0.131 NA
HETATM    5  C   UNL     1      23.779  47.476  49.226  1.00  0.00     0.754 C 
HETATM    6  N   UNL     1      24.376  46.462  49.840  1.00  0.00     0.131 NA
ENDROOT
BRANCH   3   7
HETATM    7  N   UNL     1      20.866  46.033  47.872  1.00  0.00    -0.210 N 
HETATM    8  C   UNL     1      20.660  46.831  46.660  1.00  0.00     0.169 C 
HETATM    9  C   UNL     1      20.226  48.275  46.980  1.00  0.00     0.256 C 
HETATM   10  N   UNL     1      18.986  48.280  47.911  1.00  0.00    -0.059 N 
HETATM   11  H   UNL     1      18.272  47.733  47.414  1.00  0.00     0.281 HD
HETATM   12  C   UNL     1      19.318  47.464  49.185  1.00  0.00     0.256 C 
HETATM   13  C   UNL     1      19.751  46.023  48.819  1.00  0.00     0.169 C 
BRANCH  10  14
HETATM   14  C   UNL     1      18.356  49.668  48.150  1.00  0.00     0.129 C 
HETATM   15  C   UNL     1      18.985  50.696  47.170  1.00  0.00     0.043 C 
HETATM   16  C   UNL     1      18.347  52.084  47.355  1.00  0.00    -0.012 C 
HETATM   17  C   UNL     1      18.569  52.546  48.806  1.00  0.00     0.009 C 
HETATM   18  C   UNL     1      16.842  51.994  47.070  1.00  0.00     0.009 C 
HETATM   19  C   UNL     1      17.922  51.548  49.783  1.00  0.00    -0.012 C 
HETATM   20  C   UNL     1      18.567  50.158  49.598  1.00  0.00     0.043 C 
HETATM   21  C   UNL     1      16.417  51.461  49.485  1.00  0.00     0.009 C 
HETATM   22  C   UNL     1      16.190  50.995  48.036  1.00  0.00    -0.012 C 
HETATM   23  C   UNL     1      16.833  49.609  47.850  1.00  0.00     0.043 C 
ENDBRANCH  10  14
ENDBRANCH   3   7
BRANCH   1  24
HETATM   24  N   UNL     1      24.450  44.188  50.270  1.00  0.00    -0.187 N 
HETATM   25  H   UNL     1      23.833  43.387  50.334  1.00  0.00     0.184 HD
BRANCH  24  26
HETATM   26  C   UNL     1      25.525  44.172  51.172  1.00  0.00     0.049 A 
HETATM   27  C   UNL     1      25.360  44.349  52.549  1.00  0.00     0.033 A 
HETATM   28  C   UNL     1      26.458  44.365  53.418  1.00  0.00     0.039 A 
HETATM   29  C   UNL     1      27.751  44.230  52.919  1.00  0.00     0.076 A 
HETATM   30  C   UNL     1      27.925  44.044  51.547  1.00  0.00     0.039 A 
HETATM   31  C   UNL     1      26.824  44.012  50.682  1.00  0.00     0.033 A 
BRANCH  29  32
HETATM   32  O   UNL     1      28.905  44.256  53.645  1.00  0.00    -0.270 OA
BRANCH  32  33
HETATM   33  C   UNL     1      29.556  43.021  53.921  1.00  0.00     0.447 C 
HETATM   34 CL   UNL     1      30.502  43.157  55.400  1.00  0.00    -0.014 Cl
HETATM   35  F   UNL     1      28.630  42.034  54.056  1.00  0.00    -0.159 F 
HETATM   36  F   UNL     1      30.360  42.684  52.881  1.00  0.00    -0.159 F 
ENDBRANCH  32  33
ENDBRANCH  29  32
ENDBRANCH  24  26
ENDBRANCH   1  24
BRANCH   5  37
HETATM   37  N   UNL     1      24.285  48.755  49.350  1.00  0.00    -0.221 N 
HETATM   38  H   UNL     1      24.005  49.147  50.242  1.00  0.00     0.177 HD
BRANCH  37  39
HETATM   39  C   UNL     1      24.222  49.651  48.209  1.00  0.00     0.140 C 
BRANCH  39  40
HETATM   40  C   UNL     1      23.520  50.959  48.573  1.00  0.00     0.046 C 
BRANCH  40  41
HETATM   41  C   UNL     1      22.157  50.788  49.234  1.00  0.00     0.165 C 
BRANCH  41  42
HETATM   42  O   UNL     1      22.282  50.627  50.641  1.00  0.00    -0.401 OA
HETATM   43  H   UNL     1      22.709  51.447  50.957  1.00  0.00     0.209 HD
ENDBRANCH  41  42
ENDBRANCH  40  41
ENDBRANCH  39  40
ENDBRANCH  37  39
ENDBRANCH   5  37
TORSDOF 11
ENDMDL
MODEL 4
REMARK VINA RESULT:      -9.3      2.530      4.393
REMARK  11 active torsions:
REMARK  status: ('A' for Active; 'I' for Inactive)
REMARK    1  A    between atoms: C_2  and  N_3 
REMARK    2  A    between atoms: N_3  and  C_4 
REMARK    3  A    between atoms: C_6  and  N_7 
REMARK    4  A    between atoms: N_10  and  C_12 
REMARK    5  A    between atoms: C_25  and  N_26 
REMARK    6  A    between atoms: N_26  and  C_27 
REMARK    7  A    between atoms: C_27  and  C_28 
REMARK    8  A    between atoms: C_28  and  C_29 
REMARK    9  A    between atoms: C_29  and  O_30 
REMARK   10  A    between atoms: C_34  and  O_35 
REMARK   11  A    between atoms: O_35  and  C_36 
ROOT
HETATM    1  C   UNL     1      24.962  45.450  52.408  1.00  0.00     0.758 C 
HETATM    2  N   UNL     1      24.841  46.255  51.356  1.00  0.00     0.131 NA
HETATM    3  C   UNL     1      24.587  45.673  50.195  1.00  0.00     0.756 C 
HETATM    4  N   UNL     1      24.340  44.380  50.068  1.00  0.00     0.131 NA
HETATM    5  C   UNL     1      24.512  43.641  51.154  1.00  0.00     0.754 C 
HETATM    6  N   UNL     1      24.844  44.132  52.342  1.00  0.00     0.131 NA
ENDROOT
BRANCH   3   7
HETATM    7  N   UNL     1      24.573  46.457  49.040  1.00  0.00    -0.210 N 
HETATM    8  C   UNL     1      24.819  47.888  49.234  1.00  0.00     0.169 C 
HETATM    9  C   UNL     1      23.539  48.652  49.626  1.00  0.00     0.256 C 
HETATM   10  N   UNL     1      22.406  48.379  48.605  1.00  0.00    -0.059 N 
HETATM   11  H   UNL     1      22.790  48.655  47.693  1.00  0.00     0.281 HD
HETATM   12  C   UNL     1      22.178  46.850  48.512  1.00  0.00     0.256 C 
HETATM   13  C   UNL     1      23.487  46.122  48.119  1.00  0.00     0.169 C 
BRANCH  10  14
HETATM   14  C   UNL     1      21.136  49.235  48.798  1.00  0.00     0.129 C 
HETATM   15  C   UNL     1      20.719  49.854  47.435  1.00  0.00     0.043 C 
HETATM   16  C   UNL     1      19.430  50.682  47.587  1.00  0.00    -0.012 C 
HETATM   17  C   UNL     1      19.673  51.801  48.614  1.00  0.00     0.009 C 
HETATM   18  C   UNL     1      18.297  49.771  48.077  1.00  0.00     0.009 C 
HETATM   19  C   UNL     1      20.058  51.194  49.975  1.00  0.00    -0.012 C 
HETATM   20  C   UNL     1      21.352  50.369  49.822  1.00  0.00     0.043 C 
HETATM   21  C   UNL     1      18.918  50.281  50.454  1.00  0.00     0.009 C 
HETATM   22  C   UNL     1      18.675  49.157  49.432  1.00  0.00    -0.012 C 
HETATM   23  C   UNL     1      19.966  48.334  49.278  1.00  0.00     0.043 C 
ENDBRANCH  10  14
ENDBRANCH   3   7
BRANCH   1  24
HETATM   24  N   UNL     1      25.272  45.991  53.655  1.00  0.00    -0.187 N 
HETATM   25  H   UNL     1      24.619  46.721  53.915  1.00  0.00     0.184 HD
BRANCH  24  26
HETATM   26  C   UNL     1      26.505  46.042  54.322  1.00  0.00     0.049 A 
HETATM   27  C   UNL     1      27.081  47.240  54.756  1.00  0.00     0.033 A 
HETATM   28  C   UNL     1      28.331  47.261  55.386  1.00  0.00     0.039 A 
HETATM   29  C   UNL     1      29.044  46.079  55.572  1.00  0.00     0.076 A 
HETATM   30  C   UNL     1      28.473  44.877  55.151  1.00  0.00     0.039 A 
HETATM   31  C   UNL     1      27.216  44.858  54.535  1.00  0.00     0.033 A 
BRANCH  29  32
HETATM   32  O   UNL     1      30.277  45.958  56.143  1.00  0.00    -0.270 OA
BRANCH  32  33
HETATM   33  C   UNL     1      30.352  45.691  57.538  1.00  0.00     0.447 C 
HETATM   34 CL   UNL     1      31.200  44.174  57.817  1.00  0.00    -0.014 Cl
HETATM   35  F   UNL     1      31.006  46.707  58.165  1.00  0.00    -0.159 F 
HETATM   36  F   UNL     1      29.101  45.630  58.060  1.00  0.00    -0.159 F 
ENDBRANCH  32  33
ENDBRANCH  29  32
ENDBRANCH  24  26
ENDBRANCH   1  24
BRANCH   5  37
HETATM   37  N   UNL     1      24.370  42.278  50.983  1.00  0.00    -0.221 N 
HETATM   38  H   UNL     1      24.320  41.825  51.889  1.00  0.00     0.177 HD
BRANCH  37  39
HETATM   39  C   UNL     1      25.171  41.607  49.975  1.00  0.00     0.140 C 
BRANCH  39  40
HETATM   40  C   UNL     1      26.658  41.900  50.167  1.00  0.00     0.046 C 
BRANCH  40  41
HETATM   41  C   UNL     1      27.310  41.154  51.326  1.00  0.00     0.165 C 
BRANCH  41  42
HETATM   42  O   UNL     1      26.923  41.706  52.578  1.00  0.00    -0.401 OA
HETATM   43  H   UNL     1      27.714  42.174  52.909  1.00  0.00     0.209 HD
ENDBRANCH  41  42
ENDBRANCH  40  41
ENDBRANCH  39  40
ENDBRANCH  37  39
ENDBRANCH   5  37
TORSDOF 11
ENDMDL
MODEL 5
REMARK VINA RESULT:      -9.1      1.874      2.437
REMARK  11 active torsions:
REMARK  status: ('A' for Active; 'I' for Inactive)
REMARK    1  A    between atoms: C_2  and  N_3 
REMARK    2  A    between atoms: N_3  and  C_4 
REMARK    3  A    between atoms: C_6  and  N_7 
REMARK    4  A    between atoms: N_10  and  C_12 
REMARK    5  A    between atoms: C_25  and  N_26 
REMARK    6  A    between atoms: N_26  and  C_27 
REMARK    7  A    between atoms: C_27  and  C_28 
REMARK    8  A    between atoms: C_28  and  C_29 
REMARK    9  A    between atoms: C_29  and  O_30 
REMARK   10  A    between atoms: C_34  and  O_35 
REMARK   11  A    between atoms: O_35  and  C_36 
ROOT
HETATM    1  C   UNL     1      24.053  45.630  49.656  1.00  0.00     0.758 C 
HETATM    2  N   UNL     1      22.909  45.341  49.042  1.00  0.00     0.131 NA
HETATM    3  C   UNL     1      22.263  46.356  48.491  1.00  0.00     0.756 C 
HETATM    4  N   UNL     1      22.754  47.583  48.428  1.00  0.00     0.131 NA
HETATM    5  C   UNL     1      23.881  47.798  49.091  1.00  0.00     0.754 C 
HETATM    6  N   UNL     1      24.554  46.854  49.738  1.00  0.00     0.131 NA
ENDROOT
BRANCH   3   7
HETATM    7  N   UNL     1      21.000  46.129  47.942  1.00  0.00    -0.210 N 
HETATM    8  C   UNL     1      20.707  46.840  46.694  1.00  0.00     0.169 C 
HETATM    9  C   UNL     1      20.210  48.277  46.945  1.00  0.00     0.256 C 
HETATM   10  N   UNL     1      19.008  48.277  47.923  1.00  0.00    -0.059 N 
HETATM   11  H   UNL     1      18.305  47.665  47.488  1.00  0.00     0.281 HD
HETATM   12  C   UNL     1      19.429  47.559  49.229  1.00  0.00     0.256 C 
HETATM   13  C   UNL     1      19.924  46.122  48.932  1.00  0.00     0.169 C 
BRANCH  10  14
HETATM   14  C   UNL     1      18.314  49.644  48.103  1.00  0.00     0.129 C 
HETATM   15  C   UNL     1      18.501  50.128  49.567  1.00  0.00     0.043 C 
HETATM   16  C   UNL     1      17.855  51.510  49.768  1.00  0.00    -0.012 C 
HETATM   17  C   UNL     1      16.355  51.412  49.441  1.00  0.00     0.009 C 
HETATM   18  C   UNL     1      18.520  52.524  48.829  1.00  0.00     0.009 C 
HETATM   19  C   UNL     1      16.161  50.961  47.982  1.00  0.00    -0.012 C 
HETATM   20  C   UNL     1      16.806  49.574  47.784  1.00  0.00     0.043 C 
HETATM   21  C   UNL     1      16.835  51.981  47.051  1.00  0.00     0.009 C 
HETATM   22  C   UNL     1      18.337  52.079  47.372  1.00  0.00    -0.012 C 
HETATM   23  C   UNL     1      18.981  50.694  47.175  1.00  0.00     0.043 C 
ENDBRANCH  10  14
ENDBRANCH   3   7
BRANCH   1  24
HETATM   24  N   UNL     1      24.766  44.617  50.295  1.00  0.00    -0.187 N 
HETATM   25  H   UNL     1      24.411  43.701  50.047  1.00  0.00     0.184 HD
BRANCH  24  26
HETATM   26  C   UNL     1      25.492  44.659  51.495  1.00  0.00     0.049 A 
HETATM   27  C   UNL     1      26.870  44.428  51.553  1.00  0.00     0.033 A 
HETATM   28  C   UNL     1      27.559  44.441  52.772  1.00  0.00     0.039 A 
HETATM   29  C   UNL     1      26.874  44.660  53.965  1.00  0.00     0.076 A 
HETATM   30  C   UNL     1      25.500  44.900  53.915  1.00  0.00     0.039 A 
HETATM   31  C   UNL     1      24.816  44.903  52.693  1.00  0.00     0.033 A 
BRANCH  29  32
HETATM   32  O   UNL     1      27.413  44.671  55.218  1.00  0.00    -0.270 OA
BRANCH  32  33
HETATM   33  C   UNL     1      28.344  45.697  55.543  1.00  0.00     0.447 C 
HETATM   34 CL   UNL     1      27.854  47.214  54.798  1.00  0.00    -0.014 Cl
HETATM   35  F   UNL     1      28.408  45.846  56.894  1.00  0.00    -0.159 F 
HETATM   36  F   UNL     1      29.582  45.343  55.114  1.00  0.00    -0.159 F 
ENDBRANCH  32  33
ENDBRANCH  29  32
ENDBRANCH  24  26
ENDBRANCH   1  24
BRANCH   5  37
HETATM   37  N   UNL     1      24.321  49.107  49.120  1.00  0.00    -0.221 N 
HETATM   38  H   UNL     1      24.190  49.489  50.050  1.00  0.00     0.177 HD
BRANCH  37  39
HETATM   39  C   UNL     1      23.991  49.986  48.013  1.00  0.00     0.140 C 
BRANCH  39  40
HETATM   40  C   UNL     1      23.196  51.200  48.492  1.00  0.00     0.046 C 
BRANCH  40  41
HETATM   41  C   UNL     1      21.978  50.867  49.346  1.00  0.00     0.165 C 
BRANCH  41  42
HETATM   42  O   UNL     1      22.347  50.630  50.699  1.00  0.00    -0.401 OA
HETATM   43  H   UNL     1      21.853  49.830  50.964  1.00  0.00     0.209 HD
ENDBRANCH  41  42
ENDBRANCH  40  41
ENDBRANCH  39  40
ENDBRANCH  37  39
ENDBRANCH   5  37
TORSDOF 11
ENDMDL
MODEL 6
REMARK VINA RESULT:      -8.9      2.348      4.013
REMARK  11 active torsions:
REMARK  status: ('A' for Active; 'I' for Inactive)
REMARK    1  A    between atoms: C_2  and  N_3 
REMARK    2  A    between atoms: N_3  and  C_4 
REMARK    3  A    between atoms: C_6  and  N_7 
REMARK    4  A    between atoms: N_10  and  C_12 
REMARK    5  A    between atoms: C_25  and  N_26 
REMARK    6  A    between atoms: N_26  and  C_27 
REMARK    7  A    between atoms: C_27  and  C_28 
REMARK    8  A    between atoms: C_28  and  C_29 
REMARK    9  A    between atoms: C_29  and  O_30 
REMARK   10  A    between atoms: C_34  and  O_35 
REMARK   11  A    between atoms: O_35  and  C_36 
ROOT
HETATM    1  C   UNL     1      25.324  46.523  52.235  1.00  0.00     0.758 C 
HETATM    2  N   UNL     1      25.117  47.296  51.172  1.00  0.00     0.131 NA
HETATM    3  C   UNL     1      24.540  46.722  50.129  1.00  0.00     0.756 C 
HETATM    4  N   UNL     1      24.071  45.485  50.146  1.00  0.00     0.131 NA
HETATM    5  C   UNL     1      24.346  44.769  51.227  1.00  0.00     0.754 C 
HETATM    6  N   UNL     1      24.989  45.242  52.288  1.00  0.00     0.131 NA
ENDROOT
BRANCH   3   7
HETATM    7  N   UNL     1      24.411  47.452  48.947  1.00  0.00    -0.210 N 
HETATM    8  C   UNL     1      24.471  48.910  49.084  1.00  0.00     0.169 C 
HETATM    9  C   UNL     1      23.107  49.516  49.469  1.00  0.00     0.256 C 
HETATM   10  N   UNL     1      22.007  49.059  48.477  1.00  0.00    -0.059 N 
HETATM   11  H   UNL     1      22.343  49.348  47.549  1.00  0.00     0.281 HD
HETATM   12  C   UNL     1      21.980  47.512  48.443  1.00  0.00     0.256 C 
HETATM   13  C   UNL     1      23.368  46.945  48.056  1.00  0.00     0.169 C 
BRANCH  10  14
HETATM   14  C   UNL     1      20.639  49.750  48.658  1.00  0.00     0.129 C 
HETATM   15  C   UNL     1      20.762  50.864  49.734  1.00  0.00     0.043 C 
HETATM   16  C   UNL     1      19.421  51.600  49.909  1.00  0.00    -0.012 C 
HETATM   17  C   UNL     1      18.346  50.584  50.332  1.00  0.00     0.009 C 
HETATM   18  C   UNL     1      19.020  52.247  48.577  1.00  0.00     0.009 C 
HETATM   19  C   UNL     1      18.197  49.493  49.257  1.00  0.00    -0.012 C 
HETATM   20  C   UNL     1      19.541  48.754  49.087  1.00  0.00     0.043 C 
HETATM   21  C   UNL     1      17.800  50.153  47.927  1.00  0.00     0.009 C 
HETATM   22  C   UNL     1      18.875  51.166  47.498  1.00  0.00    -0.012 C 
HETATM   23  C   UNL     1      20.216  50.430  47.328  1.00  0.00     0.043 C 
ENDBRANCH  10  14
ENDBRANCH   3   7
BRANCH   1  24
HETATM   24  N   UNL     1      25.966  47.051  53.354  1.00  0.00    -0.187 N 
HETATM   25  H   UNL     1      25.926  48.063  53.362  1.00  0.00     0.184 HD
BRANCH  24  26
HETATM   26  C   UNL     1      26.992  46.499  54.135  1.00  0.00     0.049 A 
HETATM   27  C   UNL     1      27.615  45.287  53.820  1.00  0.00     0.033 A 
HETATM   28  C   UNL     1      28.611  44.745  54.640  1.00  0.00     0.039 A 
HETATM   29  C   UNL     1      28.988  45.396  55.812  1.00  0.00     0.076 A 
HETATM   30  C   UNL     1      28.378  46.611  56.131  1.00  0.00     0.039 A 
HETATM   31  C   UNL     1      27.393  47.159  55.300  1.00  0.00     0.033 A 
BRANCH  29  32
HETATM   32  O   UNL     1      29.919  44.969  56.713  1.00  0.00    -0.270 OA
BRANCH  32  33
HETATM   33  C   UNL     1      30.902  44.037  56.277  1.00  0.00     0.447 C 
HETATM   34 CL   UNL     1      32.056  43.730  57.570  1.00  0.00    -0.014 Cl
HETATM   35  F   UNL     1      30.300  42.874  55.909  1.00  0.00    -0.159 F 
HETATM   36  F   UNL     1      31.542  44.526  55.184  1.00  0.00    -0.159 F 
ENDBRANCH  32  33
ENDBRANCH  29  32
ENDBRANCH  24  26
ENDBRANCH   1  24
BRANCH   5  37
HETATM   37  N   UNL     1      23.959  43.444  51.186  1.00  0.00    -0.221 N 
HETATM   38  H   UNL     1      23.454  43.210  52.033  1.00  0.00     0.177 HD
BRANCH  37  39
HETATM   39  C   UNL     1      24.902  42.449  50.707  1.00  0.00     0.140 C 
BRANCH  39  40
HETATM   40  C   UNL     1      24.529  41.965  49.306  1.00  0.00     0.046 C 
BRANCH  40  41
HETATM   41  C   UNL     1      23.057  42.131  48.946  1.00  0.00     0.165 C 
BRANCH  41  42
HETATM   42  O   UNL     1      22.815  43.390  48.333  1.00  0.00    -0.401 OA
HETATM   43  H   UNL     1      21.843  43.490  48.325  1.00  0.00     0.209 HD
ENDBRANCH  41  42
ENDBRANCH  40  41
ENDBRANCH  39  40
ENDBRANCH  37  39
ENDBRANCH   5  37
TORSDOF 11
ENDMDL
MODEL 7
REMARK VINA RESULT:      -8.8      2.440      3.830
REMARK  11 active torsions:
REMARK  status: ('A' for Active; 'I' for Inactive)
REMARK    1  A    between atoms: C_2  and  N_3 
REMARK    2  A    between atoms: N_3  and  C_4 
REMARK    3  A    between atoms: C_6  and  N_7 
REMARK    4  A    between atoms: N_10  and  C_12 
REMARK    5  A    between atoms: C_25  and  N_26 
REMARK    6  A    between atoms: N_26  and  C_27 
REMARK    7  A    between atoms: C_27  and  C_28 
REMARK    8  A    between atoms: C_28  and  C_29 
REMARK    9  A    between atoms: C_29  and  O_30 
REMARK   10  A    between atoms: C_34  and  O_35 
REMARK   11  A    between atoms: O_35  and  C_36 
ROOT
HETATM    1  C   UNL     1      24.605  47.018  49.895  1.00  0.00     0.758 C 
HETATM    2  N   UNL     1      24.386  48.328  49.824  1.00  0.00     0.131 NA
HETATM    3  C   UNL     1      23.221  48.704  49.320  1.00  0.00     0.756 C 
HETATM    4  N   UNL     1      22.256  47.855  49.008  1.00  0.00     0.131 NA
HETATM    5  C   UNL     1      22.563  46.568  49.076  1.00  0.00     0.754 C 
HETATM    6  N   UNL     1      23.734  46.104  49.494  1.00  0.00     0.131 NA
ENDROOT
BRANCH   3   7
HETATM    7  N   UNL     1      22.989  50.063  49.108  1.00  0.00    -0.210 N 
HETATM    8  C   UNL     1      22.142  50.731  50.101  1.00  0.00     0.169 C 
HETATM    9  C   UNL     1      20.641  50.549  49.804  1.00  0.00     0.256 C 
HETATM   10  N   UNL     1      20.314  50.989  48.354  1.00  0.00    -0.059 N 
HETATM   11  H   UNL     1      20.634  51.963  48.288  1.00  0.00     0.281 HD
HETATM   12  C   UNL     1      21.212  50.191  47.377  1.00  0.00     0.256 C 
HETATM   13  C   UNL     1      22.710  50.399  47.712  1.00  0.00     0.169 C 
BRANCH  10  14
HETATM   14  C   UNL     1      18.810  51.021  48.007  1.00  0.00     0.129 C 
HETATM   15  C   UNL     1      18.629  50.811  46.478  1.00  0.00     0.043 C 
HETATM   16  C   UNL     1      17.135  50.797  46.105  1.00  0.00    -0.012 C 
HETATM   17  C   UNL     1      16.503  52.136  46.526  1.00  0.00     0.009 C 
HETATM   18  C   UNL     1      16.439  49.647  46.843  1.00  0.00     0.009 C 
HETATM   19  C   UNL     1      16.653  52.337  48.044  1.00  0.00    -0.012 C 
HETATM   20  C   UNL     1      18.150  52.355  48.414  1.00  0.00     0.043 C 
HETATM   21  C   UNL     1      15.956  51.177  48.772  1.00  0.00     0.009 C 
HETATM   22  C   UNL     1      16.588  49.836  48.358  1.00  0.00    -0.012 C 
HETATM   23  C   UNL     1      18.082  49.854  48.727  1.00  0.00     0.043 C 
ENDBRANCH  10  14
ENDBRANCH   3   7
BRANCH   1  24
HETATM   24  N   UNL     1      25.828  46.551  50.376  1.00  0.00    -0.187 N 
HETATM   25  H   UNL     1      26.332  46.032  49.666  1.00  0.00     0.184 HD
BRANCH  24  26
HETATM   26  C   UNL     1      26.218  46.271  51.694  1.00  0.00     0.049 A 
HETATM   27  C   UNL     1      26.034  47.174  52.745  1.00  0.00     0.033 A 
HETATM   28  C   UNL     1      26.469  46.880  54.043  1.00  0.00     0.039 A 
HETATM   29  C   UNL     1      27.124  45.680  54.309  1.00  0.00     0.076 A 
HETATM   30  C   UNL     1      27.305  44.768  53.268  1.00  0.00     0.039 A 
HETATM   31  C   UNL     1      26.854  45.059  51.975  1.00  0.00     0.033 A 
BRANCH  29  32
HETATM   32  O   UNL     1      27.622  45.279  55.514  1.00  0.00    -0.270 OA
BRANCH  32  33
HETATM   33  C   UNL     1      28.953  45.652  55.852  1.00  0.00     0.447 C 
HETATM   34 CL   UNL     1      29.043  46.086  57.556  1.00  0.00    -0.014 Cl
HETATM   35  F   UNL     1      29.799  44.618  55.594  1.00  0.00    -0.159 F 
HETATM   36  F   UNL     1      29.344  46.698  55.081  1.00  0.00    -0.159 F 
ENDBRANCH  32  33
ENDBRANCH  29  32
ENDBRANCH  24  26
ENDBRANCH   1  24
BRANCH   5  37
HETATM   37  N   UNL     1      21.590  45.693  48.632  1.00  0.00    -0.221 N 
HETATM   38  H   UNL     1      21.837  44.746  48.898  1.00  0.00     0.177 HD
BRANCH  37  39
HETATM   39  C   UNL     1      21.045  45.863  47.297  1.00  0.00     0.140 C 
BRANCH  39  40
HETATM   40  C   UNL     1      19.725  46.633  47.334  1.00  0.00     0.046 C 
BRANCH  40  41
HETATM   41  C   UNL     1      18.720  46.126  48.362  1.00  0.00     0.165 C 
BRANCH  41  42
HETATM   42  O   UNL     1      18.862  44.728  48.575  1.00  0.00    -0.401 OA
HETATM   43  H   UNL     1      18.985  44.625  49.539  1.00  0.00     0.209 HD
ENDBRANCH  41  42
ENDBRANCH  40  41
ENDBRANCH  39  40
ENDBRANCH  37  39
ENDBRANCH   5  37
TORSDOF 11
ENDMDL
MODEL 8
REMARK VINA RESULT:      -8.8      2.159      3.744
REMARK  11 active torsions:
REMARK  status: ('A' for Active; 'I' for Inactive)
REMARK    1  A    between atoms: C_2  and  N_3 
REMARK    2  A    between atoms: N_3  and  C_4 
REMARK    3  A    between atoms: C_6  and  N_7 
REMARK    4  A    between atoms: N_10  and  C_12 
REMARK    5  A    between atoms: C_25  and  N_26 
REMARK    6  A    between atoms: N_26  and  C_27 
REMARK    7  A    between atoms: C_27  and  C_28 
REMARK    8  A    between atoms: C_28  and  C_29 
REMARK    9  A    between atoms: C_29  and  O_30 
REMARK   10  A    between atoms: C_34  and  O_35 
REMARK   11  A    between atoms: O_35  and  C_36 
ROOT
HETATM    1  C   UNL     1      23.420  44.317  50.004  1.00  0.00     0.758 C 
HETATM    2  N   UNL     1      22.533  44.908  49.208  1.00  0.00     0.131 NA
HETATM    3  C   UNL     1      22.067  44.183  48.204  1.00  0.00     0.756 C 
HETATM    4  N   UNL     1      22.350  42.901  48.040  1.00  0.00     0.131 NA
HETATM    5  C   UNL     1      23.266  42.395  48.852  1.00  0.00     0.754 C 
HETATM    6  N   UNL     1      23.844  43.073  49.836  1.00  0.00     0.131 NA
ENDROOT
BRANCH   3   7
HETATM    7  N   UNL     1      21.229  44.792  47.269  1.00  0.00    -0.210 N 
HETATM    8  C   UNL     1      21.794  45.940  46.554  1.00  0.00     0.169 C 
HETATM    9  C   UNL     1      21.657  47.250  47.354  1.00  0.00     0.256 C 
HETATM   10  N   UNL     1      20.183  47.481  47.775  1.00  0.00    -0.059 N 
HETATM   11  H   UNL     1      19.646  47.472  46.899  1.00  0.00     0.281 HD
HETATM   12  C   UNL     1      19.694  46.246  48.571  1.00  0.00     0.256 C 
HETATM   13  C   UNL     1      19.852  44.953  47.734  1.00  0.00     0.169 C 
BRANCH  10  14
HETATM   14  C   UNL     1      19.898  48.852  48.424  1.00  0.00     0.129 C 
HETATM   15  C   UNL     1      21.140  49.769  48.258  1.00  0.00     0.043 C 
HETATM   16  C   UNL     1      20.872  51.160  48.860  1.00  0.00    -0.012 C 
HETATM   17  C   UNL     1      20.537  51.002  50.354  1.00  0.00     0.009 C 
HETATM   18  C   UNL     1      19.685  51.807  48.135  1.00  0.00     0.009 C 
HETATM   19  C   UNL     1      19.290  50.118  50.525  1.00  0.00    -0.012 C 
HETATM   20  C   UNL     1      19.563  48.723  49.925  1.00  0.00     0.043 C 
HETATM   21  C   UNL     1      18.109  50.773  49.791  1.00  0.00     0.009 C 
HETATM   22  C   UNL     1      18.437  50.929  48.295  1.00  0.00    -0.012 C 
HETATM   23  C   UNL     1      18.710  49.538  47.696  1.00  0.00     0.043 C 
ENDBRANCH  10  14
ENDBRANCH   3   7
BRANCH   1  24
HETATM   24  N   UNL     1      23.985  45.035  51.057  1.00  0.00    -0.187 N 
HETATM   25  H   UNL     1      23.649  45.991  51.077  1.00  0.00     0.184 HD
BRANCH  24  26
HETATM   26  C   UNL     1      25.201  44.828  51.725  1.00  0.00     0.049 A 
HETATM   27  C   UNL     1      26.426  44.740  51.057  1.00  0.00     0.033 A 
HETATM   28  C   UNL     1      27.618  44.495  51.750  1.00  0.00     0.039 A 
HETATM   29  C   UNL     1      27.602  44.307  53.130  1.00  0.00     0.076 A 
HETATM   30  C   UNL     1      26.385  44.402  53.807  1.00  0.00     0.039 A 
HETATM   31  C   UNL     1      25.198  44.663  53.113  1.00  0.00     0.033 A 
BRANCH  29  32
HETATM   32  O   UNL     1      28.679  44.035  53.923  1.00  0.00    -0.270 OA
BRANCH  32  33
HETATM   33  C   UNL     1      29.450  42.873  53.638  1.00  0.00     0.447 C 
HETATM   34 CL   UNL     1      28.396  41.468  53.511  1.00  0.00    -0.014 Cl
HETATM   35  F   UNL     1      30.129  43.047  52.473  1.00  0.00    -0.159 F 
HETATM   36  F   UNL     1      30.368  42.682  54.619  1.00  0.00    -0.159 F 
ENDBRANCH  32  33
ENDBRANCH  29  32
ENDBRANCH  24  26
ENDBRANCH   1  24
BRANCH   5  37
HETATM   37  N   UNL     1      23.643  41.091  48.595  1.00  0.00    -0.221 N 
HETATM   38  H   UNL     1      23.638  40.558  49.457  1.00  0.00     0.177 HD
BRANCH  37  39
HETATM   39  C   UNL     1      24.758  40.844  47.697  1.00  0.00     0.140 C 
BRANCH  39  40
HETATM   40  C   UNL     1      25.955  40.264  48.451  1.00  0.00     0.046 C 
BRANCH  40  41
HETATM   41  C   UNL     1      26.936  41.303  48.983  1.00  0.00     0.165 C 
BRANCH  41  42
HETATM   42  O   UNL     1      26.684  42.585  48.423  1.00  0.00    -0.401 OA
HETATM   43  H   UNL     1      27.428  43.145  48.718  1.00  0.00     0.209 HD
ENDBRANCH  41  42
ENDBRANCH  40  41
ENDBRANCH  39  40
ENDBRANCH  37  39
ENDBRANCH   5  37
TORSDOF 11
ENDMDL
MODEL 9
REMARK VINA RESULT:      -8.6      3.150      4.555
REMARK  11 active torsions:
REMARK  status: ('A' for Active; 'I' for Inactive)
REMARK    1  A    between atoms: C_2  and  N_3 
REMARK    2  A    between atoms: N_3  and  C_4 
REMARK    3  A    between atoms: C_6  and  N_7 
REMARK    4  A    between atoms: N_10  and  C_12 
REMARK    5  A    between atoms: C_25  and  N_26 
REMARK    6  A    between atoms: N_26  and  C_27 
REMARK    7  A    between atoms: C_27  and  C_28 
REMARK    8  A    between atoms: C_28  and  C_29 
REMARK    9  A    between atoms: C_29  and  O_30 
REMARK   10  A    between atoms: C_34  and  O_35 
REMARK   11  A    between atoms: O_35  and  C_36 
ROOT
HETATM    1  C   UNL     1      25.458  44.820  52.041  1.00  0.00     0.758 C 
HETATM    2  N   UNL     1      25.388  45.251  50.785  1.00  0.00     0.131 NA
HETATM    3  C   UNL     1      25.385  46.562  50.611  1.00  0.00     0.756 C 
HETATM    4  N   UNL     1      25.565  47.427  51.596  1.00  0.00     0.131 NA
HETATM    5  C   UNL     1      25.594  46.923  52.820  1.00  0.00     0.754 C 
HETATM    6  N   UNL     1      25.522  45.625  53.092  1.00  0.00     0.131 NA
ENDROOT
BRANCH   3   7
HETATM    7  N   UNL     1      25.189  47.069  49.325  1.00  0.00    -0.210 N 
HETATM    8  C   UNL     1      25.290  48.524  49.188  1.00  0.00     0.169 C 
HETATM    9  C   UNL     1      23.969  49.236  49.542  1.00  0.00     0.256 C 
HETATM   10  N   UNL     1      22.793  48.644  48.724  1.00  0.00    -0.059 N 
HETATM   11  H   UNL     1      23.069  48.747  47.739  1.00  0.00     0.281 HD
HETATM   12  C   UNL     1      22.731  47.117  48.978  1.00  0.00     0.256 C 
HETATM   13  C   UNL     1      24.076  46.443  48.613  1.00  0.00     0.169 C 
BRANCH  10  14
HETATM   14  C   UNL     1      21.456  49.402  48.864  1.00  0.00     0.129 C 
HETATM   15  C   UNL     1      21.077  50.036  47.497  1.00  0.00     0.043 C 
HETATM   16  C   UNL     1      19.725  50.765  47.593  1.00  0.00    -0.012 C 
HETATM   17  C   UNL     1      19.827  51.864  48.666  1.00  0.00     0.009 C 
HETATM   18  C   UNL     1      18.634  49.762  47.987  1.00  0.00     0.009 C 
HETATM   19  C   UNL     1      20.173  51.240  50.030  1.00  0.00    -0.012 C 
HETATM   20  C   UNL     1      21.530  50.513  49.932  1.00  0.00     0.043 C 
HETATM   21  C   UNL     1      19.075  50.234  50.412  1.00  0.00     0.009 C 
HETATM   22  C   UNL     1      18.974  49.131  49.343  1.00  0.00    -0.012 C 
HETATM   23  C   UNL     1      20.328  48.405  49.245  1.00  0.00     0.043 C 
ENDBRANCH  10  14
ENDBRANCH   3   7
BRANCH   1  24
HETATM   24  N   UNL     1      25.422  43.451  52.301  1.00  0.00    -0.187 N 
HETATM   25  H   UNL     1      25.107  43.261  53.245  1.00  0.00     0.184 HD
BRANCH  24  26
HETATM   26  C   UNL     1      26.156  42.412  51.709  1.00  0.00     0.049 A 
HETATM   27  C   UNL     1      25.633  41.596  50.700  1.00  0.00     0.033 A 
HETATM   28  C   UNL     1      26.379  40.544  50.156  1.00  0.00     0.039 A 
HETATM   29  C   UNL     1      27.659  40.270  50.631  1.00  0.00     0.076 A 
HETATM   30  C   UNL     1      28.192  41.084  51.631  1.00  0.00     0.039 A 
HETATM   31  C   UNL     1      27.451  42.146  52.163  1.00  0.00     0.033 A 
BRANCH  29  32
HETATM   32  O   UNL     1      28.480  39.264  50.213  1.00  0.00    -0.270 OA
BRANCH  32  33
HETATM   33  C   UNL     1      28.981  39.311  48.881  1.00  0.00     0.447 C 
HETATM   34 CL   UNL     1      27.901  38.437  47.800  1.00  0.00    -0.014 Cl
HETATM   35  F   UNL     1      29.089  40.606  48.478  1.00  0.00    -0.159 F 
HETATM   36  F   UNL     1      30.224  38.768  48.841  1.00  0.00    -0.159 F 
ENDBRANCH  32  33
ENDBRANCH  29  32
ENDBRANCH  24  26
ENDBRANCH   1  24
BRANCH   5  37
HETATM   37  N   UNL     1      25.660  47.842  53.849  1.00  0.00    -0.221 N 
HETATM   38  H   UNL     1      25.846  48.764  53.470  1.00  0.00     0.177 HD
BRANCH  37  39
HETATM   39  C   UNL     1      26.376  47.492  55.062  1.00  0.00     0.140 C 
BRANCH  39  40
HETATM   40  C   UNL     1      27.877  47.367  54.799  1.00  0.00     0.046 C 
BRANCH  40  41
HETATM   41  C   UNL     1      28.488  46.035  55.219  1.00  0.00     0.165 C 
BRANCH  41  42
HETATM   42  O   UNL     1      28.423  45.083  54.165  1.00  0.00    -0.401 OA
HETATM   43  H   UNL     1      28.788  44.258  54.540  1.00  0.00     0.209 HD
ENDBRANCH  41  42
ENDBRANCH  40  41
ENDBRANCH  39  40
ENDBRANCH  37  39
ENDBRANCH   5  37
TORSDOF 11
ENDMDL
MODEL 10
REMARK VINA RESULT:      -8.4      5.543      8.020
REMARK  11 active torsions:
REMARK  status: ('A' for Active; 'I' for Inactive)
REMARK    1  A    between atoms: C_2  and  N_3 
REMARK    2  A    between atoms: N_3  and  C_4 
REMARK    3  A    between atoms: C_6  and  N_7 
REMARK    4  A    between atoms: N_10  and  C_12 
REMARK    5  A    between atoms: C_25  and  N_26 
REMARK    6  A    between atoms: N_26  and  C_27 
REMARK    7  A    between atoms: C_27  and  C_28 
REMARK    8  A    between atoms: C_28  and  C_29 
REMARK    9  A    between atoms: C_29  and  O_30 
REMARK   10  A    between atoms: C_34  and  O_35 
REMARK   11  A    between atoms: O_35  and  C_36 
ROOT
HETATM    1  C   UNL     1      22.762  48.855  49.232  1.00  0.00     0.758 C 
HETATM    2  N   UNL     1      21.905  47.954  48.762  1.00  0.00     0.131 NA
HETATM    3  C   UNL     1      22.343  46.707  48.686  1.00  0.00     0.756 C 
HETATM    4  N   UNL     1      23.518  46.320  49.155  1.00  0.00     0.131 NA
HETATM    5  C   UNL     1      24.327  47.280  49.576  1.00  0.00     0.754 C 
HETATM    6  N   UNL     1      23.998  48.566  49.613  1.00  0.00     0.131 NA
ENDROOT
BRANCH   3   7
HETATM    7  N   UNL     1      21.530  45.745  48.087  1.00  0.00    -0.210 N 
HETATM    8  C   UNL     1      21.467  45.780  46.623  1.00  0.00     0.169 C 
HETATM    9  C   UNL     1      20.435  46.803  46.108  1.00  0.00     0.256 C 
HETATM   10  N   UNL     1      19.049  46.552  46.755  1.00  0.00    -0.059 N 
HETATM   11  H   UNL     1      18.816  45.578  46.527  1.00  0.00     0.281 HD
HETATM   12  C   UNL     1      19.204  46.591  48.295  1.00  0.00     0.256 C 
HETATM   13  C   UNL     1      20.250  45.553  48.769  1.00  0.00     0.169 C 
BRANCH  10  14
HETATM   14  C   UNL     1      17.897  47.402  46.176  1.00  0.00     0.129 C 
HETATM   15  C   UNL     1      18.467  48.403  45.134  1.00  0.00     0.043 C 
HETATM   16  C   UNL     1      17.336  49.238  44.508  1.00  0.00    -0.012 C 
HETATM   17  C   UNL     1      16.607  50.007  45.624  1.00  0.00     0.009 C 
HETATM   18  C   UNL     1      16.349  48.304  43.798  1.00  0.00     0.009 C 
HETATM   19  C   UNL     1      16.013  49.020  46.644  1.00  0.00    -0.012 C 
HETATM   20  C   UNL     1      17.149  48.187  47.274  1.00  0.00     0.043 C 
HETATM   21  C   UNL     1      15.029  48.086  45.921  1.00  0.00     0.009 C 
HETATM   22  C   UNL     1      15.756  47.312  44.808  1.00  0.00    -0.012 C 
HETATM   23  C   UNL     1      16.890  46.481  45.435  1.00  0.00     0.043 C 
ENDBRANCH  10  14
ENDBRANCH   3   7
BRANCH   1  24
HETATM   24  N   UNL     1      22.383  50.195  49.300  1.00  0.00    -0.187 N 
HETATM   25  H   UNL     1      23.000  50.725  49.904  1.00  0.00     0.184 HD
BRANCH  24  26
HETATM   26  C   UNL     1      21.121  50.775  49.098  1.00  0.00     0.049 A 
HETATM   27  C   UNL     1      20.320  51.229  50.150  1.00  0.00     0.033 A 
HETATM   28  C   UNL     1      19.049  51.769  49.917  1.00  0.00     0.039 A 
HETATM   29  C   UNL     1      18.543  51.841  48.621  1.00  0.00     0.076 A 
HETATM   30  C   UNL     1      19.339  51.398  47.564  1.00  0.00     0.039 A 
HETATM   31  C   UNL     1      20.616  50.874  47.798  1.00  0.00     0.033 A 
BRANCH  29  32
HETATM   32  O   UNL     1      17.318  52.315  48.256  1.00  0.00    -0.270 OA
BRANCH  32  33
HETATM   33  C   UNL     1      16.176  51.857  48.971  1.00  0.00     0.447 C 
HETATM   34 CL   UNL     1      15.791  52.977  50.273  1.00  0.00    -0.014 Cl
HETATM   35  F   UNL     1      15.116  51.752  48.124  1.00  0.00    -0.159 F 
HETATM   36  F   UNL     1      16.418  50.620  49.474  1.00  0.00    -0.159 F 
ENDBRANCH  32  33
ENDBRANCH  29  32
ENDBRANCH  24  26
ENDBRANCH   1  24
BRANCH   5  37
HETATM   37  N   UNL     1      25.595  46.879  49.950  1.00  0.00    -0.221 N 
HETATM   38  H   UNL     1      25.531  46.065  50.550  1.00  0.00     0.177 HD
BRANCH  37  39
HETATM   39  C   UNL     1      26.567  47.886  50.337  1.00  0.00     0.140 C 
BRANCH  39  40
HETATM   40  C   UNL     1      27.429  48.307  49.147  1.00  0.00     0.046 C 
BRANCH  40  41
HETATM   41  C   UNL     1      27.251  49.758  48.714  1.00  0.00     0.165 C 
BRANCH  41  42
HETATM   42  O   UNL     1      26.350  49.862  47.620  1.00  0.00    -0.401 OA
HETATM   43  H   UNL     1      26.908  49.808  46.820  1.00  0.00     0.209 HD
ENDBRANCH  41  42
ENDBRANCH  40  41
ENDBRANCH  39  40
ENDBRANCH  37  39
ENDBRANCH   5  37
TORSDOF 11
ENDMDL
