MODEL 1
REMARK VINA RESULT:      -8.8      0.000      0.000
REMARK  2 active torsions:
REMARK  status: ('A' for Active; 'I' for Inactive)
REMARK    1  A    between atoms: C_8  and  C_9 
REMARK       I    between atoms: N_10  and  C_11 
REMARK    2  A    between atoms: C_11  and  C_12 
ROOT
HETATM    1  C   UNL     1      26.150  43.901  52.825  1.00  0.00     0.124 C 
HETATM    2  N   UNL     1      26.140  45.190  52.136  1.00  0.00    -0.339 N 
HETATM    3  C   UNL     1      26.239  45.235  50.762  1.00  0.00     0.260 C 
HETATM    4  O   UNL     1      26.374  44.218  50.078  1.00  0.00    -0.267 OA
HETATM    5  C   UNL     1      25.657  46.246  53.017  1.00  0.00     0.127 C 
HETATM    6  C   UNL     1      25.767  45.663  54.417  1.00  0.00     0.022 C 
HETATM    7  C   UNL     1      25.498  44.184  54.186  1.00  0.00     0.032 C 
ENDROOT
BRANCH   1   8
HETATM    8  C   UNL     1      27.529  43.315  52.953  1.00  0.00     0.014 A 
HETATM    9  C   UNL     1      28.651  43.734  53.653  1.00  0.00     0.034 A 
HETATM   10  C   UNL     1      28.935  44.909  54.508  1.00  0.00     0.070 C 
HETATM   11  N   UNL     1      29.629  42.818  53.383  1.00  0.00    -0.282 N 
HETATM   12  H   UNL     1      30.591  42.821  53.706  1.00  0.00     0.189 HD
HETATM   13  N   UNL     1      29.232  41.812  52.599  1.00  0.00    -0.179 NA
HETATM   14  C   UNL     1      27.965  42.114  52.306  1.00  0.00     0.061 A 
HETATM   15  C   UNL     1      27.186  41.230  51.402  1.00  0.00     0.073 C 
ENDBRANCH   1   8
BRANCH   3  16
HETATM   16  C   UNL     1      26.072  46.539  50.068  1.00  0.00     0.108 A 
HETATM   17  C   UNL     1      27.145  47.182  49.283  1.00  0.00     0.304 A 
HETATM   18  O   UNL     1      28.260  46.692  49.144  1.00  0.00    -0.259 OA
HETATM   19  O   UNL     1      26.842  48.412  48.699  1.00  0.00    -0.274 OA
HETATM   20  C   UNL     1      25.538  48.939  48.721  1.00  0.00     0.089 A 
HETATM   21  C   UNL     1      24.519  48.279  49.398  1.00  0.00    -0.001 A 
HETATM   22  C   UNL     1      25.310  50.122  48.023  1.00  0.00     0.038 A 
HETATM   23  C   UNL     1      23.230  48.815  49.364  1.00  0.00     0.014 A 
HETATM   24  C   UNL     1      24.831  47.051  50.106  1.00  0.00     0.037 A 
HETATM   25  C   UNL     1      22.982  49.997  48.659  1.00  0.00     0.001 A 
HETATM   26  C   UNL     1      24.021  50.651  47.993  1.00  0.00     0.003 A 
ENDBRANCH   3  16
TORSDOF 2
ENDMDL
MODEL 2
REMARK VINA RESULT:      -8.8      4.886      8.719
REMARK  2 active torsions:
REMARK  status: ('A' for Active; 'I' for Inactive)
REMARK    1  A    between atoms: C_8  and  C_9 
REMARK       I    between atoms: N_10  and  C_11 
REMARK    2  A    between atoms: C_11  and  C_12 
ROOT
HETATM    1  C   UNL     1      19.173  49.966  47.987  1.00  0.00     0.124 C 
HETATM    2  N   UNL     1      20.525  49.752  48.500  1.00  0.00    -0.339 N 
HETATM    3  C   UNL     1      21.344  48.815  47.907  1.00  0.00     0.260 C 
HETATM    4  O   UNL     1      20.966  48.111  46.968  1.00  0.00    -0.267 OA
HETATM    5  C   UNL     1      20.931  50.851  49.366  1.00  0.00     0.127 C 
HETATM    6  C   UNL     1      19.635  51.558  49.731  1.00  0.00     0.022 C 
HETATM    7  C   UNL     1      18.787  51.367  48.481  1.00  0.00     0.032 C 
ENDROOT
BRANCH   1   8
HETATM    8  C   UNL     1      18.203  48.906  48.432  1.00  0.00     0.014 A 
HETATM    9  C   UNL     1      17.987  48.310  49.666  1.00  0.00     0.034 A 
HETATM   10  C   UNL     1      18.629  48.457  50.993  1.00  0.00     0.070 C 
HETATM   11  N   UNL     1      16.989  47.395  49.476  1.00  0.00    -0.282 N 
HETATM   12  H   UNL     1      16.591  46.757  50.156  1.00  0.00     0.189 HD
HETATM   13  N   UNL     1      16.504  47.371  48.230  1.00  0.00    -0.179 NA
HETATM   14  C   UNL     1      17.251  48.265  47.577  1.00  0.00     0.061 A 
HETATM   15  C   UNL     1      17.029  48.491  46.126  1.00  0.00     0.073 C 
ENDBRANCH   1   8
BRANCH   3  16
HETATM   16  C   UNL     1      22.763  48.720  48.340  1.00  0.00     0.108 A 
HETATM   17  C   UNL     1      23.812  49.656  47.888  1.00  0.00     0.304 A 
HETATM   18  O   UNL     1      23.596  50.583  47.116  1.00  0.00    -0.259 OA
HETATM   19  O   UNL     1      25.102  49.431  48.372  1.00  0.00    -0.274 OA
HETATM   20  C   UNL     1      25.362  48.466  49.360  1.00  0.00     0.089 A 
HETATM   21  C   UNL     1      24.344  47.646  49.835  1.00  0.00    -0.001 A 
HETATM   22  C   UNL     1      26.660  48.385  49.855  1.00  0.00     0.038 A 
HETATM   23  C   UNL     1      24.635  46.726  50.844  1.00  0.00     0.014 A 
HETATM   24  C   UNL     1      23.014  47.785  49.270  1.00  0.00     0.037 A 
HETATM   25  C   UNL     1      25.932  46.639  51.359  1.00  0.00     0.001 A 
HETATM   26  C   UNL     1      26.944  47.465  50.863  1.00  0.00     0.003 A 
ENDBRANCH   3  16
TORSDOF 2
ENDMDL
MODEL 3
REMARK VINA RESULT:      -8.8      1.437      2.084
REMARK  2 active torsions:
REMARK  status: ('A' for Active; 'I' for Inactive)
REMARK    1  A    between atoms: C_8  and  C_9 
REMARK       I    between atoms: N_10  and  C_11 
REMARK    2  A    between atoms: C_11  and  C_12 
ROOT
HETATM    1  C   UNL     1      26.776  43.389  53.453  1.00  0.00     0.124 C 
HETATM    2  N   UNL     1      26.385  44.569  52.684  1.00  0.00    -0.339 N 
HETATM    3  C   UNL     1      26.502  44.563  51.310  1.00  0.00     0.260 C 
HETATM    4  O   UNL     1      26.964  43.602  50.693  1.00  0.00    -0.267 OA
HETATM    5  C   UNL     1      25.575  45.471  53.492  1.00  0.00     0.127 C 
HETATM    6  C   UNL     1      25.822  45.033  54.928  1.00  0.00     0.022 C 
HETATM    7  C   UNL     1      26.033  43.532  54.788  1.00  0.00     0.032 C 
ENDROOT
BRANCH   1   8
HETATM    8  C   UNL     1      28.266  43.271  53.627  1.00  0.00     0.014 A 
HETATM    9  C   UNL     1      29.185  44.071  54.289  1.00  0.00     0.034 A 
HETATM   10  C   UNL     1      29.072  45.342  55.042  1.00  0.00     0.070 C 
HETATM   11  N   UNL     1      30.405  43.485  54.096  1.00  0.00    -0.282 N 
HETATM   12  H   UNL     1      31.310  43.811  54.416  1.00  0.00     0.189 HD
HETATM   13  N   UNL     1      30.357  42.345  53.399  1.00  0.00    -0.179 NA
HETATM   14  C   UNL     1      29.066  42.216  53.083  1.00  0.00     0.061 A 
HETATM   15  C   UNL     1      28.621  41.065  52.257  1.00  0.00     0.073 C 
ENDBRANCH   1   8
BRANCH   3  16
HETATM   16  C   UNL     1      25.957  45.709  50.535  1.00  0.00     0.108 A 
HETATM   17  C   UNL     1      24.518  45.881  50.247  1.00  0.00     0.304 A 
HETATM   18  O   UNL     1      23.660  45.090  50.622  1.00  0.00    -0.259 OA
HETATM   19  O   UNL     1      24.160  47.001  49.497  1.00  0.00    -0.274 OA
HETATM   20  C   UNL     1      25.095  47.999  49.166  1.00  0.00     0.089 A 
HETATM   21  C   UNL     1      26.433  47.860  49.517  1.00  0.00    -0.001 A 
HETATM   22  C   UNL     1      24.623  49.129  48.505  1.00  0.00     0.038 A 
HETATM   23  C   UNL     1      27.323  48.890  49.205  1.00  0.00     0.014 A 
HETATM   24  C   UNL     1      26.853  46.652  50.204  1.00  0.00     0.037 A 
HETATM   25  C   UNL     1      26.862  50.036  48.549  1.00  0.00     0.001 A 
HETATM   26  C   UNL     1      25.515  50.154  48.197  1.00  0.00     0.003 A 
ENDBRANCH   3  16
TORSDOF 2
ENDMDL
MODEL 4
REMARK VINA RESULT:      -8.7     11.351     13.511
REMARK  2 active torsions:
REMARK  status: ('A' for Active; 'I' for Inactive)
REMARK    1  A    between atoms: C_8  and  C_9 
REMARK       I    between atoms: N_10  and  C_11 
REMARK    2  A    between atoms: C_11  and  C_12 
ROOT
HETATM    1  C   UNL     1      30.532  49.780  39.824  1.00  0.00     0.124 C 
HETATM    2  N   UNL     1      31.490  50.555  40.611  1.00  0.00    -0.339 N 
HETATM    3  C   UNL     1      32.180  49.952  41.640  1.00  0.00     0.260 C 
HETATM    4  O   UNL     1      31.994  48.775  41.956  1.00  0.00    -0.267 OA
HETATM    5  C   UNL     1      31.834  51.798  39.932  1.00  0.00     0.127 C 
HETATM    6  C   UNL     1      30.740  51.989  38.893  1.00  0.00     0.022 C 
HETATM    7  C   UNL     1      30.390  50.559  38.508  1.00  0.00     0.032 C 
ENDROOT
BRANCH   1   8
HETATM    8  C   UNL     1      29.217  49.586  40.528  1.00  0.00     0.014 A 
HETATM    9  C   UNL     1      28.383  50.475  41.191  1.00  0.00     0.034 A 
HETATM   10  C   UNL     1      28.469  51.924  41.485  1.00  0.00     0.070 C 
HETATM   11  N   UNL     1      27.332  49.733  41.654  1.00  0.00    -0.282 N 
HETATM   12  H   UNL     1      26.542  50.050  42.206  1.00  0.00     0.189 HD
HETATM   13  N   UNL     1      27.385  48.442  41.314  1.00  0.00    -0.179 NA
HETATM   14  C   UNL     1      28.540  48.330  40.653  1.00  0.00     0.061 A 
HETATM   15  C   UNL     1      28.973  47.005  40.143  1.00  0.00     0.073 C 
ENDBRANCH   1   8
BRANCH   3  16
HETATM   16  C   UNL     1      33.259  50.710  42.327  1.00  0.00     0.108 A 
HETATM   17  C   UNL     1      33.009  51.645  43.443  1.00  0.00     0.304 A 
HETATM   18  O   UNL     1      31.889  51.873  43.888  1.00  0.00    -0.259 OA
HETATM   19  O   UNL     1      34.122  52.292  43.979  1.00  0.00    -0.274 OA
HETATM   20  C   UNL     1      35.431  51.956  43.588  1.00  0.00     0.089 A 
HETATM   21  C   UNL     1      35.653  51.012  42.591  1.00  0.00    -0.001 A 
HETATM   22  C   UNL     1      36.482  52.582  44.253  1.00  0.00     0.038 A 
HETATM   23  C   UNL     1      36.967  50.678  42.259  1.00  0.00     0.014 A 
HETATM   24  C   UNL     1      34.507  50.402  41.940  1.00  0.00     0.037 A 
HETATM   25  C   UNL     1      38.033  51.291  42.924  1.00  0.00     0.001 A 
HETATM   26  C   UNL     1      37.791  52.244  43.917  1.00  0.00     0.003 A 
ENDBRANCH   3  16
TORSDOF 2
ENDMDL
MODEL 5
REMARK VINA RESULT:      -8.4     10.890     12.647
REMARK  2 active torsions:
REMARK  status: ('A' for Active; 'I' for Inactive)
REMARK    1  A    between atoms: C_8  and  C_9 
REMARK       I    between atoms: N_10  and  C_11 
REMARK    2  A    between atoms: C_11  and  C_12 
ROOT
HETATM    1  C   UNL     1      30.609  51.493  42.216  1.00  0.00     0.124 C 
HETATM    2  N   UNL     1      30.084  50.509  41.272  1.00  0.00    -0.339 N 
HETATM    3  C   UNL     1      30.157  49.165  41.569  1.00  0.00     0.260 C 
HETATM    4  O   UNL     1      30.690  48.747  42.598  1.00  0.00    -0.267 OA
HETATM    5  C   UNL     1      29.216  51.144  40.288  1.00  0.00     0.127 C 
HETATM    6  C   UNL     1      29.548  52.626  40.378  1.00  0.00     0.022 C 
HETATM    7  C   UNL     1      29.897  52.802  41.848  1.00  0.00     0.032 C 
ENDROOT
BRANCH   1   8
HETATM    8  C   UNL     1      32.108  51.613  42.164  1.00  0.00     0.014 A 
HETATM    9  C   UNL     1      33.001  51.588  41.102  1.00  0.00     0.034 A 
HETATM   10  C   UNL     1      32.839  51.412  39.641  1.00  0.00     0.070 C 
HETATM   11  N   UNL     1      34.245  51.721  41.652  1.00  0.00    -0.282 N 
HETATM   12  H   UNL     1      35.140  51.719  41.175  1.00  0.00     0.189 HD
HETATM   13  N   UNL     1      34.241  51.872  42.980  1.00  0.00    -0.179 NA
HETATM   14  C   UNL     1      32.950  51.780  43.310  1.00  0.00     0.061 A 
HETATM   15  C   UNL     1      32.545  51.861  44.736  1.00  0.00     0.073 C 
ENDBRANCH   1   8
BRANCH   3  16
HETATM   16  C   UNL     1      29.481  48.189  40.673  1.00  0.00     0.108 A 
HETATM   17  C   UNL     1      30.025  47.783  39.361  1.00  0.00     0.304 A 
HETATM   18  O   UNL     1      31.075  48.221  38.905  1.00  0.00    -0.259 OA
HETATM   19  O   UNL     1      29.270  46.866  38.628  1.00  0.00    -0.274 OA
HETATM   20  C   UNL     1      28.135  46.240  39.174  1.00  0.00     0.089 A 
HETATM   21  C   UNL     1      27.683  46.576  40.445  1.00  0.00    -0.001 A 
HETATM   22  C   UNL     1      27.508  45.263  38.406  1.00  0.00     0.038 A 
HETATM   23  C   UNL     1      26.576  45.904  40.966  1.00  0.00     0.014 A 
HETATM   24  C   UNL     1      28.387  47.606  41.188  1.00  0.00     0.037 A 
HETATM   25  C   UNL     1      25.940  44.913  40.211  1.00  0.00     0.001 A 
HETATM   26  C   UNL     1      26.403  44.596  38.932  1.00  0.00     0.003 A 
ENDBRANCH   3  16
TORSDOF 2
ENDMDL
MODEL 6
REMARK VINA RESULT:      -8.3      5.888      9.770
REMARK  2 active torsions:
REMARK  status: ('A' for Active; 'I' for Inactive)
REMARK    1  A    between atoms: C_8  and  C_9 
REMARK       I    between atoms: N_10  and  C_11 
REMARK    2  A    between atoms: C_11  and  C_12 
ROOT
HETATM    1  C   UNL     1      18.571  51.051  47.761  1.00  0.00     0.124 C 
HETATM    2  N   UNL     1      19.781  50.487  48.357  1.00  0.00    -0.339 N 
HETATM    3  C   UNL     1      20.565  49.618  47.629  1.00  0.00     0.260 C 
HETATM    4  O   UNL     1      20.265  49.260  46.489  1.00  0.00    -0.267 OA
HETATM    5  C   UNL     1      20.170  51.234  49.547  1.00  0.00     0.127 C 
HETATM    6  C   UNL     1      18.930  52.024  49.932  1.00  0.00     0.022 C 
HETATM    7  C   UNL     1      18.286  52.315  48.584  1.00  0.00     0.032 C 
ENDROOT
BRANCH   1   8
HETATM    8  C   UNL     1      17.416  50.088  47.758  1.00  0.00     0.014 A 
HETATM    9  C   UNL     1      17.141  48.972  48.535  1.00  0.00     0.034 A 
HETATM   10  C   UNL     1      17.869  48.289  49.629  1.00  0.00     0.070 C 
HETATM   11  N   UNL     1      15.956  48.471  48.071  1.00  0.00    -0.282 N 
HETATM   12  H   UNL     1      15.464  47.643  48.388  1.00  0.00     0.189 HD
HETATM   13  N   UNL     1      15.411  49.188  47.084  1.00  0.00    -0.179 NA
HETATM   14  C   UNL     1      16.301  50.159  46.862  1.00  0.00     0.061 A 
HETATM   15  C   UNL     1      16.058  51.151  45.785  1.00  0.00     0.073 C 
ENDBRANCH   1   8
BRANCH   3  16
HETATM   16  C   UNL     1      21.868  49.177  48.192  1.00  0.00     0.108 A 
HETATM   17  C   UNL     1      22.045  47.909  48.930  1.00  0.00     0.304 A 
HETATM   18  O   UNL     1      21.129  47.123  49.140  1.00  0.00    -0.259 OA
HETATM   19  O   UNL     1      23.327  47.637  49.408  1.00  0.00    -0.274 OA
HETATM   20  C   UNL     1      24.428  48.445  49.072  1.00  0.00     0.089 A 
HETATM   21  C   UNL     1      24.257  49.593  48.307  1.00  0.00    -0.001 A 
HETATM   22  C   UNL     1      25.684  48.036  49.511  1.00  0.00     0.038 A 
HETATM   23  C   UNL     1      25.380  50.348  47.961  1.00  0.00     0.014 A 
HETATM   24  C   UNL     1      22.916  49.959  47.886  1.00  0.00     0.037 A 
HETATM   25  C   UNL     1      26.650  49.945  48.386  1.00  0.00     0.001 A 
HETATM   26  C   UNL     1      26.801  48.793  49.163  1.00  0.00     0.003 A 
ENDBRANCH   3  16
TORSDOF 2
ENDMDL
MODEL 7
REMARK VINA RESULT:      -8.1     11.335     13.229
REMARK  2 active torsions:
REMARK  status: ('A' for Active; 'I' for Inactive)
REMARK    1  A    between atoms: C_8  and  C_9 
REMARK       I    between atoms: N_10  and  C_11 
REMARK    2  A    between atoms: C_11  and  C_12 
ROOT
HETATM    1  C   UNL     1      32.010  49.968  40.665  1.00  0.00     0.124 C 
HETATM    2  N   UNL     1      30.675  49.398  40.486  1.00  0.00    -0.339 N 
HETATM    3  C   UNL     1      30.132  49.302  39.223  1.00  0.00     0.260 C 
HETATM    4  O   UNL     1      30.719  49.718  38.222  1.00  0.00    -0.267 OA
HETATM    5  C   UNL     1      30.257  48.672  41.679  1.00  0.00     0.127 C 
HETATM    6  C   UNL     1      31.188  49.161  42.777  1.00  0.00     0.022 C 
HETATM    7  C   UNL     1      32.482  49.431  42.024  1.00  0.00     0.032 C 
ENDROOT
BRANCH   1   8
HETATM    8  C   UNL     1      32.018  51.470  40.599  1.00  0.00     0.014 A 
HETATM    9  C   UNL     1      31.136  52.422  41.090  1.00  0.00     0.034 A 
HETATM   10  C   UNL     1      29.855  52.337  41.828  1.00  0.00     0.070 C 
HETATM   11  N   UNL     1      31.641  53.636  40.713  1.00  0.00    -0.282 N 
HETATM   12  H   UNL     1      31.244  54.554  40.878  1.00  0.00     0.189 HD
HETATM   13  N   UNL     1      32.802  53.562  40.054  1.00  0.00    -0.179 NA
HETATM   14  C   UNL     1      33.030  52.250  39.952  1.00  0.00     0.061 A 
HETATM   15  C   UNL     1      34.234  51.764  39.230  1.00  0.00     0.073 C 
ENDBRANCH   1   8
BRANCH   3  16
HETATM   16  C   UNL     1      28.845  48.582  39.043  1.00  0.00     0.108 A 
HETATM   17  C   UNL     1      28.743  47.110  38.971  1.00  0.00     0.304 A 
HETATM   18  O   UNL     1      29.714  46.367  39.050  1.00  0.00    -0.259 OA
HETATM   19  O   UNL     1      27.466  46.579  38.789  1.00  0.00    -0.274 OA
HETATM   20  C   UNL     1      26.317  47.389  38.830  1.00  0.00     0.089 A 
HETATM   21  C   UNL     1      26.425  48.767  38.980  1.00  0.00    -0.001 A 
HETATM   22  C   UNL     1      25.080  46.756  38.741  1.00  0.00     0.038 A 
HETATM   23  C   UNL     1      25.260  49.531  39.055  1.00  0.00     0.014 A 
HETATM   24  C   UNL     1      27.749  49.358  39.064  1.00  0.00     0.037 A 
HETATM   25  C   UNL     1      24.010  48.909  38.977  1.00  0.00     0.001 A 
HETATM   26  C   UNL     1      23.920  47.524  38.817  1.00  0.00     0.003 A 
ENDBRANCH   3  16
TORSDOF 2
ENDMDL
MODEL 8
REMARK VINA RESULT:      -8.0      7.062     11.367
REMARK  2 active torsions:
REMARK  status: ('A' for Active; 'I' for Inactive)
REMARK    1  A    between atoms: C_8  and  C_9 
REMARK       I    between atoms: N_10  and  C_11 
REMARK    2  A    between atoms: C_11  and  C_12 
ROOT
HETATM    1  C   UNL     1      16.739  51.610  47.338  1.00  0.00     0.124 C 
HETATM    2  N   UNL     1      17.857  50.885  47.939  1.00  0.00    -0.339 N 
HETATM    3  C   UNL     1      18.841  50.351  47.134  1.00  0.00     0.260 C 
HETATM    4  O   UNL     1      18.799  50.428  45.905  1.00  0.00    -0.267 OA
HETATM    5  C   UNL     1      17.942  51.154  49.369  1.00  0.00     0.127 C 
HETATM    6  C   UNL     1      16.585  51.733  49.736  1.00  0.00     0.022 C 
HETATM    7  C   UNL     1      16.188  52.484  48.473  1.00  0.00     0.032 C 
ENDROOT
BRANCH   1   8
HETATM    8  C   UNL     1      15.697  50.697  46.752  1.00  0.00     0.014 A 
HETATM    9  C   UNL     1      15.278  49.423  47.108  1.00  0.00     0.034 A 
HETATM   10  C   UNL     1      15.699  48.471  48.161  1.00  0.00     0.070 C 
HETATM   11  N   UNL     1      14.313  49.076  46.203  1.00  0.00    -0.282 N 
HETATM   12  H   UNL     1      13.803  48.202  46.143  1.00  0.00     0.189 HD
HETATM   13  N   UNL     1      14.035  50.031  45.310  1.00  0.00    -0.179 NA
HETATM   14  C   UNL     1      14.888  51.012  45.613  1.00  0.00     0.061 A 
HETATM   15  C   UNL     1      14.906  52.252  44.796  1.00  0.00     0.073 C 
ENDBRANCH   1   8
BRANCH   3  16
HETATM   16  C   UNL     1      20.047  49.754  47.768  1.00  0.00     0.108 A 
HETATM   17  C   UNL     1      20.042  48.439  48.439  1.00  0.00     0.304 A 
HETATM   18  O   UNL     1      19.041  47.737  48.531  1.00  0.00    -0.259 OA
HETATM   19  O   UNL     1      21.249  48.017  48.997  1.00  0.00    -0.274 OA
HETATM   20  C   UNL     1      22.445  48.729  48.795  1.00  0.00     0.089 A 
HETATM   21  C   UNL     1      22.446  49.927  48.089  1.00  0.00    -0.001 A 
HETATM   22  C   UNL     1      23.617  48.175  49.303  1.00  0.00     0.038 A 
HETATM   23  C   UNL     1      23.660  50.583  47.876  1.00  0.00     0.014 A 
HETATM   24  C   UNL     1      21.185  50.444  47.590  1.00  0.00     0.037 A 
HETATM   25  C   UNL     1      24.847  50.035  48.372  1.00  0.00     0.001 A 
HETATM   26  C   UNL     1      24.825  48.835  49.087  1.00  0.00     0.003 A 
ENDBRANCH   3  16
TORSDOF 2
ENDMDL
MODEL 9
REMARK VINA RESULT:      -8.0     11.339     13.465
REMARK  2 active torsions:
REMARK  status: ('A' for Active; 'I' for Inactive)
REMARK    1  A    between atoms: C_8  and  C_9 
REMARK       I    between atoms: N_10  and  C_11 
REMARK    2  A    between atoms: C_11  and  C_12 
ROOT
HETATM    1  C   UNL     1      27.735  48.058  40.052  1.00  0.00     0.124 C 
HETATM    2  N   UNL     1      29.072  48.643  40.139  1.00  0.00    -0.339 N 
HETATM    3  C   UNL     1      29.350  49.580  41.111  1.00  0.00     0.260 C 
HETATM    4  O   UNL     1      28.495  49.981  41.902  1.00  0.00    -0.267 OA
HETATM    5  C   UNL     1      30.033  47.855  39.378  1.00  0.00     0.127 C 
HETATM    6  C   UNL     1      29.185  46.994  38.455  1.00  0.00     0.022 C 
HETATM    7  C   UNL     1      27.935  46.744  39.285  1.00  0.00     0.032 C 
ENDROOT
BRANCH   1   8
HETATM    8  C   UNL     1      26.739  48.971  39.390  1.00  0.00     0.014 A 
HETATM    9  C   UNL     1      26.902  50.094  38.593  1.00  0.00     0.034 A 
HETATM   10  C   UNL     1      28.089  50.838  38.113  1.00  0.00     0.070 C 
HETATM   11  N   UNL     1      25.641  50.531  38.293  1.00  0.00    -0.282 N 
HETATM   12  H   UNL     1      25.378  51.345  37.749  1.00  0.00     0.189 HD
HETATM   13  N   UNL     1      24.666  49.764  38.791  1.00  0.00    -0.179 NA
HETATM   14  C   UNL     1      25.317  48.827  39.485  1.00  0.00     0.061 A 
HETATM   15  C   UNL     1      24.552  47.796  40.231  1.00  0.00     0.073 C 
ENDBRANCH   1   8
BRANCH   3  16
HETATM   16  C   UNL     1      30.751  50.048  41.283  1.00  0.00     0.108 A 
HETATM   17  C   UNL     1      31.673  49.489  42.292  1.00  0.00     0.304 A 
HETATM   18  O   UNL     1      31.355  48.598  43.071  1.00  0.00    -0.259 OA
HETATM   19  O   UNL     1      32.955  50.039  42.341  1.00  0.00    -0.274 OA
HETATM   20  C   UNL     1      33.399  50.963  41.378  1.00  0.00     0.089 A 
HETATM   21  C   UNL     1      32.541  51.419  40.384  1.00  0.00    -0.001 A 
HETATM   22  C   UNL     1      34.726  51.377  41.449  1.00  0.00     0.038 A 
HETATM   23  C   UNL     1      33.031  52.307  39.424  1.00  0.00     0.014 A 
HETATM   24  C   UNL     1      31.168  50.944  40.374  1.00  0.00     0.037 A 
HETATM   25  C   UNL     1      34.364  52.725  39.476  1.00  0.00     0.001 A 
HETATM   26  C   UNL     1      35.210  52.264  40.488  1.00  0.00     0.003 A 
ENDBRANCH   3  16
TORSDOF 2
ENDMDL
MODEL 10
REMARK VINA RESULT:      -7.9     11.394     14.387
REMARK  2 active torsions:
REMARK  status: ('A' for Active; 'I' for Inactive)
REMARK    1  A    between atoms: C_8  and  C_9 
REMARK       I    between atoms: N_10  and  C_11 
REMARK    2  A    between atoms: C_11  and  C_12 
ROOT
HETATM    1  C   UNL     1      30.205  50.540  41.696  1.00  0.00     0.124 C 
HETATM    2  N   UNL     1      31.667  50.559  41.702  1.00  0.00    -0.339 N 
HETATM    3  C   UNL     1      32.337  51.760  41.794  1.00  0.00     0.260 C 
HETATM    4  O   UNL     1      31.748  52.841  41.836  1.00  0.00    -0.267 OA
HETATM    5  C   UNL     1      32.202  49.231  41.973  1.00  0.00     0.127 C 
HETATM    6  C   UNL     1      31.041  48.284  41.714  1.00  0.00     0.022 C 
HETATM    7  C   UNL     1      29.834  49.114  42.126  1.00  0.00     0.032 C 
ENDROOT
BRANCH   1   8
HETATM    8  C   UNL     1      29.619  50.915  40.362  1.00  0.00     0.014 A 
HETATM    9  C   UNL     1      30.073  50.719  39.066  1.00  0.00     0.034 A 
HETATM   10  C   UNL     1      31.295  50.105  38.497  1.00  0.00     0.070 C 
HETATM   11  N   UNL     1      29.137  51.289  38.248  1.00  0.00    -0.282 N 
HETATM   12  H   UNL     1      29.154  51.358  37.236  1.00  0.00     0.189 HD
HETATM   13  N   UNL     1      28.088  51.805  38.897  1.00  0.00    -0.179 NA
HETATM   14  C   UNL     1      28.380  51.610  40.185  1.00  0.00     0.061 A 
HETATM   15  C   UNL     1      27.449  52.097  41.234  1.00  0.00     0.073 C 
ENDBRANCH   1   8
BRANCH   3  16
HETATM   16  C   UNL     1      33.815  51.751  41.954  1.00  0.00     0.108 A 
HETATM   17  C   UNL     1      34.488  51.774  43.269  1.00  0.00     0.304 A 
HETATM   18  O   UNL     1      33.879  51.807  44.332  1.00  0.00    -0.259 OA
HETATM   19  O   UNL     1      35.883  51.773  43.258  1.00  0.00    -0.274 OA
HETATM   20  C   UNL     1      36.613  51.599  42.068  1.00  0.00     0.089 A 
HETATM   21  C   UNL     1      35.959  51.497  40.845  1.00  0.00    -0.001 A 
HETATM   22  C   UNL     1      37.998  51.508  42.170  1.00  0.00     0.038 A 
HETATM   23  C   UNL     1      36.717  51.286  39.691  1.00  0.00     0.014 A 
HETATM   24  C   UNL     1      34.511  51.603  40.815  1.00  0.00     0.037 A 
HETATM   25  C   UNL     1      38.109  51.183  39.779  1.00  0.00     0.001 A 
HETATM   26  C   UNL     1      38.748  51.297  41.015  1.00  0.00     0.003 A 
ENDBRANCH   3  16
TORSDOF 2
ENDMDL
