MODEL 1
REMARK VINA RESULT:      -9.2      0.000      0.000
REMARK  5 active torsions:
REMARK  status: ('A' for Active; 'I' for Inactive)
REMARK    1  A    between atoms: C_2  and  C_3 
REMARK    2  A    between atoms: C_14  and  C_17 
REMARK       I    between atoms: C_17  and  N_19 
REMARK    3  A    between atoms: N_19  and  C_20 
REMARK    4  A    between atoms: C_20  and  C_22 
REMARK    5  A    between atoms: C_26  and  O_27 
ROOT
HETATM    1  C   UNL     1      25.142  48.254  49.884  1.00  0.00     0.162 C 
HETATM    2  O   UNL     1      23.894  48.970  49.884  1.00  0.00    -0.339 OA
HETATM    3  C   UNL     1      22.920  48.467  49.066  1.00  0.00     0.098 A 
HETATM    4  C   UNL     1      21.933  49.344  48.638  1.00  0.00     0.153 A 
HETATM    5  N   UNL     1      20.908  48.992  47.829  1.00  0.00    -0.270 NA
HETATM    6  C   UNL     1      20.870  47.702  47.445  1.00  0.00     0.117 A 
HETATM    7  C   UNL     1      21.800  46.748  47.838  1.00  0.00     0.034 A 
HETATM    8  C   UNL     1      22.853  47.122  48.682  1.00  0.00     0.011 A 
HETATM    9  C   UNL     1      23.875  46.193  49.186  1.00  0.00    -0.014 A 
HETATM   10  C   UNL     1      23.781  44.796  49.104  1.00  0.00     0.014 A 
HETATM   11  C   UNL     1      24.802  43.974  49.599  1.00  0.00     0.018 A 
HETATM   12  C   UNL     1      25.944  44.522  50.193  1.00  0.00     0.032 A 
HETATM   13  C   UNL     1      26.038  45.913  50.296  1.00  0.00     0.027 A 
HETATM   14  C   UNL     1      25.010  46.743  49.802  1.00  0.00    -0.017 A 
ENDROOT
BRANCH  12  15
HETATM   15  C   UNL     1      27.011  43.578  50.656  1.00  0.00     0.252 C 
HETATM   16  O   UNL     1      27.604  42.879  49.842  1.00  0.00    -0.268 OA
HETATM   17  N   UNL     1      27.304  43.552  52.001  1.00  0.00    -0.349 N 
HETATM   18  H   UNL     1      26.788  44.104  52.666  1.00  0.00     0.163 HD
BRANCH  17  19
HETATM   19  C   UNL     1      28.381  42.736  52.542  1.00  0.00     0.114 C 
HETATM   20  C   UNL     1      27.896  41.311  52.820  1.00  0.00     0.037 C 
BRANCH  19  21
HETATM   21  C   UNL     1      28.970  43.462  53.743  1.00  0.00    -0.033 A 
HETATM   22  C   UNL     1      30.114  42.920  54.355  1.00  0.00     0.009 A 
HETATM   23  C   UNL     1      30.733  43.575  55.418  1.00  0.00     0.003 A 
HETATM   24  C   UNL     1      30.218  44.784  55.881  1.00  0.00     0.037 A 
HETATM   25  C   UNL     1      29.085  45.345  55.289  1.00  0.00     0.068 A 
HETATM   26  C   UNL     1      28.472  44.689  54.217  1.00  0.00     0.046 A 
BRANCH  25  27
HETATM   27  O   UNL     1      28.690  46.535  55.836  1.00  0.00    -0.356 OA
HETATM   28  C   UNL     1      27.657  47.243  55.160  1.00  0.00     0.210 C 
ENDBRANCH  25  27
ENDBRANCH  19  21
ENDBRANCH  17  19
ENDBRANCH  12  15
BRANCH   1  29
HETATM   29  C   UNL     1      26.064  48.799  48.778  1.00  0.00     0.033 C 
HETATM   30  C   UNL     1      27.505  48.948  49.247  1.00  0.00     0.008 C 
ENDBRANCH   1  29
TORSDOF 5
ENDMDL
MODEL 2
REMARK VINA RESULT:      -8.9      4.641      8.685
REMARK  5 active torsions:
REMARK  status: ('A' for Active; 'I' for Inactive)
REMARK    1  A    between atoms: C_2  and  C_3 
REMARK    2  A    between atoms: C_14  and  C_17 
REMARK       I    between atoms: C_17  and  N_19 
REMARK    3  A    between atoms: N_19  and  C_20 
REMARK    4  A    between atoms: C_20  and  C_22 
REMARK    5  A    between atoms: C_26  and  O_27 
ROOT
HETATM    1  C   UNL     1      27.885  45.731  54.762  1.00  0.00     0.162 C 
HETATM    2  O   UNL     1      28.869  46.274  55.661  1.00  0.00    -0.339 OA
HETATM    3  C   UNL     1      29.738  45.371  56.208  1.00  0.00     0.098 A 
HETATM    4  C   UNL     1      30.340  45.715  57.411  1.00  0.00     0.153 A 
HETATM    5  N   UNL     1      31.218  44.925  58.069  1.00  0.00    -0.270 NA
HETATM    6  C   UNL     1      31.510  43.747  57.486  1.00  0.00     0.117 A 
HETATM    7  C   UNL     1      30.976  43.326  56.276  1.00  0.00     0.034 A 
HETATM    8  C   UNL     1      30.071  44.155  55.599  1.00  0.00     0.011 A 
HETATM    9  C   UNL     1      29.467  43.827  54.300  1.00  0.00    -0.014 A 
HETATM   10  C   UNL     1      29.906  42.791  53.464  1.00  0.00     0.014 A 
HETATM   11  C   UNL     1      29.273  42.533  52.241  1.00  0.00     0.018 A 
HETATM   12  C   UNL     1      28.185  43.303  51.815  1.00  0.00     0.032 A 
HETATM   13  C   UNL     1      27.752  44.351  52.634  1.00  0.00     0.027 A 
HETATM   14  C   UNL     1      28.390  44.615  53.864  1.00  0.00    -0.017 A 
ENDROOT
BRANCH  12  15
HETATM   15  C   UNL     1      27.533  42.935  50.518  1.00  0.00     0.252 C 
HETATM   16  O   UNL     1      27.268  43.808  49.698  1.00  0.00    -0.268 OA
HETATM   17  N   UNL     1      27.275  41.603  50.286  1.00  0.00    -0.349 N 
HETATM   18  H   UNL     1      27.464  40.898  50.979  1.00  0.00     0.163 HD
BRANCH  17  19
HETATM   19  C   UNL     1      26.725  41.131  49.023  1.00  0.00     0.114 C 
HETATM   20  C   UNL     1      25.213  40.925  49.133  1.00  0.00     0.037 C 
BRANCH  19  21
HETATM   21  C   UNL     1      27.514  39.903  48.592  1.00  0.00    -0.033 A 
HETATM   22  C   UNL     1      27.334  39.419  47.284  1.00  0.00     0.009 A 
HETATM   23  C   UNL     1      28.076  38.337  46.814  1.00  0.00     0.003 A 
HETATM   24  C   UNL     1      29.011  37.725  47.646  1.00  0.00     0.037 A 
HETATM   25  C   UNL     1      29.210  38.187  48.948  1.00  0.00     0.068 A 
HETATM   26  C   UNL     1      28.471  39.279  49.413  1.00  0.00     0.046 A 
BRANCH  25  27
HETATM   27  O   UNL     1      30.161  37.501  49.653  1.00  0.00    -0.356 OA
HETATM   28  C   UNL     1      29.989  37.427  51.063  1.00  0.00     0.210 C 
ENDBRANCH  25  27
ENDBRANCH  19  21
ENDBRANCH  17  19
ENDBRANCH  12  15
BRANCH   1  29
HETATM   29  C   UNL     1      26.634  45.298  55.547  1.00  0.00     0.033 C 
HETATM   30  C   UNL     1      25.486  44.898  54.629  1.00  0.00     0.008 C 
ENDBRANCH   1  29
TORSDOF 5
ENDMDL
MODEL 3
REMARK VINA RESULT:      -8.9      7.266     13.293
REMARK  5 active torsions:
REMARK  status: ('A' for Active; 'I' for Inactive)
REMARK    1  A    between atoms: C_2  and  C_3 
REMARK    2  A    between atoms: C_14  and  C_17 
REMARK       I    between atoms: C_17  and  N_19 
REMARK    3  A    between atoms: N_19  and  C_20 
REMARK    4  A    between atoms: C_20  and  C_22 
REMARK    5  A    between atoms: C_26  and  O_27 
ROOT
HETATM    1  C   UNL     1      18.810  48.536  49.365  1.00  0.00     0.162 C 
HETATM    2  O   UNL     1      20.162  48.129  49.647  1.00  0.00    -0.339 OA
HETATM    3  C   UNL     1      21.141  48.835  49.004  1.00  0.00     0.098 A 
HETATM    4  C   UNL     1      22.366  48.206  48.825  1.00  0.00     0.153 A 
HETATM    5  N   UNL     1      23.425  48.777  48.209  1.00  0.00    -0.270 NA
HETATM    6  C   UNL     1      23.247  50.036  47.765  1.00  0.00     0.117 A 
HETATM    7  C   UNL     1      22.068  50.752  47.916  1.00  0.00     0.034 A 
HETATM    8  C   UNL     1      20.978  50.153  48.563  1.00  0.00     0.011 A 
HETATM    9  C   UNL     1      19.694  50.826  48.805  1.00  0.00    -0.014 A 
HETATM   10  C   UNL     1      19.484  52.205  48.662  1.00  0.00     0.014 A 
HETATM   11  C   UNL     1      18.227  52.773  48.903  1.00  0.00     0.018 A 
HETATM   12  C   UNL     1      17.142  51.982  49.298  1.00  0.00     0.032 A 
HETATM   13  C   UNL     1      17.346  50.608  49.461  1.00  0.00     0.027 A 
HETATM   14  C   UNL     1      18.612  50.035  49.222  1.00  0.00    -0.017 A 
ENDROOT
BRANCH  12  15
HETATM   15  C   UNL     1      15.820  52.657  49.491  1.00  0.00     0.252 C 
HETATM   16  O   UNL     1      14.839  51.998  49.820  1.00  0.00    -0.268 OA
HETATM   17  N   UNL     1      15.764  54.021  49.312  1.00  0.00    -0.349 N 
HETATM   18  H   UNL     1      16.566  54.549  49.009  1.00  0.00     0.163 HD
BRANCH  17  19
HETATM   19  C   UNL     1      14.549  54.785  49.561  1.00  0.00     0.114 C 
HETATM   20  C   UNL     1      13.922  55.248  48.244  1.00  0.00     0.037 C 
BRANCH  19  21
HETATM   21  C   UNL     1      14.881  55.898  50.544  1.00  0.00    -0.033 A 
HETATM   22  C   UNL     1      14.898  57.222  50.073  1.00  0.00     0.009 A 
HETATM   23  C   UNL     1      15.133  58.287  50.941  1.00  0.00     0.003 A 
HETATM   24  C   UNL     1      15.351  58.040  52.294  1.00  0.00     0.037 A 
HETATM   25  C   UNL     1      15.338  56.735  52.789  1.00  0.00     0.068 A 
HETATM   26  C   UNL     1      15.092  55.671  51.916  1.00  0.00     0.046 A 
BRANCH  25  27
HETATM   27  O   UNL     1      15.559  56.637  54.135  1.00  0.00    -0.356 OA
HETATM   28  C   UNL     1      15.946  57.826  54.813  1.00  0.00     0.210 C 
ENDBRANCH  25  27
ENDBRANCH  19  21
ENDBRANCH  17  19
ENDBRANCH  12  15
BRANCH   1  29
HETATM   29  C   UNL     1      18.276  47.778  48.136  1.00  0.00     0.033 C 
HETATM   30  C   UNL     1      17.097  46.877  48.480  1.00  0.00     0.008 C 
ENDBRANCH   1  29
TORSDOF 5
ENDMDL
MODEL 4
REMARK VINA RESULT:      -8.7      1.313      2.214
REMARK  5 active torsions:
REMARK  status: ('A' for Active; 'I' for Inactive)
REMARK    1  A    between atoms: C_2  and  C_3 
REMARK    2  A    between atoms: C_14  and  C_17 
REMARK       I    between atoms: C_17  and  N_19 
REMARK    3  A    between atoms: N_19  and  C_20 
REMARK    4  A    between atoms: C_20  and  C_22 
REMARK    5  A    between atoms: C_26  and  O_27 
ROOT
HETATM    1  C   UNL     1      23.876  49.533  49.111  1.00  0.00     0.162 C 
HETATM    2  O   UNL     1      22.543  50.076  49.080  1.00  0.00    -0.339 OA
HETATM    3  C   UNL     1      21.624  49.354  48.371  1.00  0.00     0.098 A 
HETATM    4  C   UNL     1      20.517  50.035  47.884  1.00  0.00     0.153 A 
HETATM    5  N   UNL     1      19.528  49.456  47.168  1.00  0.00    -0.270 NA
HETATM    6  C   UNL     1      19.653  48.134  46.941  1.00  0.00     0.117 A 
HETATM    7  C   UNL     1      20.712  47.365  47.405  1.00  0.00     0.034 A 
HETATM    8  C   UNL     1      21.728  47.974  48.153  1.00  0.00     0.011 A 
HETATM    9  C   UNL     1      22.878  47.255  48.718  1.00  0.00    -0.014 A 
HETATM   10  C   UNL     1      22.971  45.859  48.807  1.00  0.00     0.014 A 
HETATM   11  C   UNL     1      24.106  45.244  49.352  1.00  0.00     0.018 A 
HETATM   12  C   UNL     1      25.180  46.005  49.827  1.00  0.00     0.032 A 
HETATM   13  C   UNL     1      25.089  47.399  49.760  1.00  0.00     0.027 A 
HETATM   14  C   UNL     1      23.946  48.020  49.215  1.00  0.00    -0.017 A 
ENDROOT
BRANCH  12  15
HETATM   15  C   UNL     1      26.376  45.272  50.353  1.00  0.00     0.252 C 
HETATM   16  O   UNL     1      27.363  45.124  49.641  1.00  0.00    -0.268 OA
HETATM   17  N   UNL     1      26.324  44.806  51.647  1.00  0.00    -0.349 N 
HETATM   18  H   UNL     1      25.497  44.902  52.212  1.00  0.00     0.163 HD
BRANCH  17  19
HETATM   19  C   UNL     1      27.464  44.160  52.282  1.00  0.00     0.114 C 
HETATM   20  C   UNL     1      27.194  42.668  52.491  1.00  0.00     0.037 C 
BRANCH  19  21
HETATM   21  C   UNL     1      27.807  44.935  53.546  1.00  0.00    -0.033 A 
HETATM   22  C   UNL     1      26.990  46.022  53.905  1.00  0.00     0.009 A 
HETATM   23  C   UNL     1      27.220  46.729  55.084  1.00  0.00     0.003 A 
HETATM   24  C   UNL     1      28.268  46.356  55.922  1.00  0.00     0.037 A 
HETATM   25  C   UNL     1      29.093  45.280  55.590  1.00  0.00     0.068 A 
HETATM   26  C   UNL     1      28.854  44.567  54.411  1.00  0.00     0.046 A 
BRANCH  25  27
HETATM   27  O   UNL     1      30.078  45.017  56.502  1.00  0.00    -0.356 OA
HETATM   28  C   UNL     1      31.071  44.073  56.124  1.00  0.00     0.210 C 
ENDBRANCH  25  27
ENDBRANCH  19  21
ENDBRANCH  17  19
ENDBRANCH  12  15
BRANCH   1  29
HETATM   29  C   UNL     1      24.686  50.053  47.910  1.00  0.00     0.033 C 
HETATM   30  C   UNL     1      26.186  50.044  48.176  1.00  0.00     0.008 C 
ENDBRANCH   1  29
TORSDOF 5
ENDMDL
MODEL 5
REMARK VINA RESULT:      -8.6      1.207      2.620
REMARK  5 active torsions:
REMARK  status: ('A' for Active; 'I' for Inactive)
REMARK    1  A    between atoms: C_2  and  C_3 
REMARK    2  A    between atoms: C_14  and  C_17 
REMARK       I    between atoms: C_17  and  N_19 
REMARK    3  A    between atoms: N_19  and  C_20 
REMARK    4  A    between atoms: C_20  and  C_22 
REMARK    5  A    between atoms: C_26  and  O_27 
ROOT
HETATM    1  C   UNL     1      22.506  45.561  48.043  1.00  0.00     0.162 C 
HETATM    2  O   UNL     1      21.961  46.696  47.344  1.00  0.00    -0.339 OA
HETATM    3  C   UNL     1      22.021  47.888  48.010  1.00  0.00     0.098 A 
HETATM    4  C   UNL     1      21.103  48.866  47.649  1.00  0.00     0.153 A 
HETATM    5  N   UNL     1      21.042  50.091  48.217  1.00  0.00    -0.270 NA
HETATM    6  C   UNL     1      21.949  50.347  49.180  1.00  0.00     0.117 A 
HETATM    7  C   UNL     1      22.917  49.441  49.592  1.00  0.00     0.034 A 
HETATM    8  C   UNL     1      22.977  48.177  48.992  1.00  0.00     0.011 A 
HETATM    9  C   UNL     1      23.976  47.152  49.327  1.00  0.00    -0.014 A 
HETATM   10  C   UNL     1      25.133  47.394  50.081  1.00  0.00     0.014 A 
HETATM   11  C   UNL     1      26.037  46.362  50.367  1.00  0.00     0.018 A 
HETATM   12  C   UNL     1      25.813  45.060  49.906  1.00  0.00     0.032 A 
HETATM   13  C   UNL     1      24.672  44.813  49.138  1.00  0.00     0.027 A 
HETATM   14  C   UNL     1      23.763  45.851  48.845  1.00  0.00    -0.017 A 
ENDROOT
BRANCH  12  15
HETATM   15  C   UNL     1      26.802  44.004  50.294  1.00  0.00     0.252 C 
HETATM   16  O   UNL     1      27.277  43.267  49.435  1.00  0.00    -0.268 OA
HETATM   17  N   UNL     1      27.162  43.917  51.620  1.00  0.00    -0.349 N 
HETATM   18  H   UNL     1      26.741  44.503  52.322  1.00  0.00     0.163 HD
BRANCH  17  19
HETATM   19  C   UNL     1      28.178  42.985  52.086  1.00  0.00     0.114 C 
HETATM   20  C   UNL     1      27.605  41.571  52.202  1.00  0.00     0.037 C 
BRANCH  19  21
HETATM   21  C   UNL     1      28.783  43.543  53.366  1.00  0.00    -0.033 A 
HETATM   22  C   UNL     1      29.898  42.889  53.918  1.00  0.00     0.009 A 
HETATM   23  C   UNL     1      30.531  43.390  55.054  1.00  0.00     0.003 A 
HETATM   24  C   UNL     1      30.058  44.557  55.651  1.00  0.00     0.037 A 
HETATM   25  C   UNL     1      28.954  45.227  55.122  1.00  0.00     0.068 A 
HETATM   26  C   UNL     1      28.328  44.725  53.977  1.00  0.00     0.046 A 
BRANCH  25  27
HETATM   27  O   UNL     1      28.600  46.361  55.801  1.00  0.00    -0.356 OA
HETATM   28  C   UNL     1      27.531  47.128  55.260  1.00  0.00     0.210 C 
ENDBRANCH  25  27
ENDBRANCH  19  21
ENDBRANCH  17  19
ENDBRANCH  12  15
BRANCH   1  29
HETATM   29  C   UNL     1      21.420  44.906  48.915  1.00  0.00     0.033 C 
HETATM   30  C   UNL     1      20.014  45.221  48.421  1.00  0.00     0.008 C 
ENDBRANCH   1  29
TORSDOF 5
ENDMDL
MODEL 6
REMARK VINA RESULT:      -8.5      4.139      6.596
REMARK  5 active torsions:
REMARK  status: ('A' for Active; 'I' for Inactive)
REMARK    1  A    between atoms: C_2  and  C_3 
REMARK    2  A    between atoms: C_14  and  C_17 
REMARK       I    between atoms: C_17  and  N_19 
REMARK    3  A    between atoms: N_19  and  C_20 
REMARK    4  A    between atoms: C_20  and  C_22 
REMARK    5  A    between atoms: C_26  and  O_27 
ROOT
HETATM    1  C   UNL     1      28.461  40.269  49.276  1.00  0.00     0.162 C 
HETATM    2  O   UNL     1      28.570  39.849  47.903  1.00  0.00    -0.339 OA
HETATM    3  C   UNL     1      27.407  39.442  47.312  1.00  0.00     0.098 A 
HETATM    4  C   UNL     1      27.511  38.580  46.228  1.00  0.00     0.153 A 
HETATM    5  N   UNL     1      26.451  38.095  45.544  1.00  0.00    -0.270 NA
HETATM    6  C   UNL     1      25.237  38.502  45.961  1.00  0.00     0.117 A 
HETATM    7  C   UNL     1      25.034  39.377  47.020  1.00  0.00     0.034 A 
HETATM    8  C   UNL     1      26.140  39.880  47.718  1.00  0.00     0.011 A 
HETATM    9  C   UNL     1      26.047  40.833  48.832  1.00  0.00    -0.014 A 
HETATM   10  C   UNL     1      24.889  41.550  49.165  1.00  0.00     0.014 A 
HETATM   11  C   UNL     1      24.874  42.436  50.249  1.00  0.00     0.018 A 
HETATM   12  C   UNL     1      26.016  42.636  51.033  1.00  0.00     0.032 A 
HETATM   13  C   UNL     1      27.182  41.939  50.698  1.00  0.00     0.027 A 
HETATM   14  C   UNL     1      27.200  41.049  49.604  1.00  0.00    -0.017 A 
ENDROOT
BRANCH  12  15
HETATM   15  C   UNL     1      25.907  43.565  52.202  1.00  0.00     0.252 C 
HETATM   16  O   UNL     1      24.816  43.758  52.730  1.00  0.00    -0.268 OA
HETATM   17  N   UNL     1      27.062  44.157  52.661  1.00  0.00    -0.349 N 
HETATM   18  H   UNL     1      27.946  44.020  52.200  1.00  0.00     0.163 HD
BRANCH  17  19
HETATM   19  C   UNL     1      27.079  45.006  53.843  1.00  0.00     0.114 C 
HETATM   20  C   UNL     1      26.882  46.474  53.459  1.00  0.00     0.037 C 
BRANCH  19  21
HETATM   21  C   UNL     1      28.351  44.709  54.623  1.00  0.00    -0.033 A 
HETATM   22  C   UNL     1      29.100  43.572  54.272  1.00  0.00     0.009 A 
HETATM   23  C   UNL     1      30.305  43.285  54.910  1.00  0.00     0.003 A 
HETATM   24  C   UNL     1      30.781  44.135  55.905  1.00  0.00     0.037 A 
HETATM   25  C   UNL     1      30.059  45.272  56.272  1.00  0.00     0.068 A 
HETATM   26  C   UNL     1      28.854  45.561  55.623  1.00  0.00     0.046 A 
BRANCH  25  27
HETATM   27  O   UNL     1      30.642  46.021  57.256  1.00  0.00    -0.356 OA
HETATM   28  C   UNL     1      30.533  45.532  58.588  1.00  0.00     0.210 C 
ENDBRANCH  25  27
ENDBRANCH  19  21
ENDBRANCH  17  19
ENDBRANCH  12  15
BRANCH   1  29
HETATM   29  C   UNL     1      28.636  39.062  50.214  1.00  0.00     0.033 C 
HETATM   30  C   UNL     1      29.762  38.140  49.766  1.00  0.00     0.008 C 
ENDBRANCH   1  29
TORSDOF 5
ENDMDL
MODEL 7
REMARK VINA RESULT:      -8.5      2.335      8.985
REMARK  5 active torsions:
REMARK  status: ('A' for Active; 'I' for Inactive)
REMARK    1  A    between atoms: C_2  and  C_3 
REMARK    2  A    between atoms: C_14  and  C_17 
REMARK       I    between atoms: C_17  and  N_19 
REMARK    3  A    between atoms: N_19  and  C_20 
REMARK    4  A    between atoms: C_20  and  C_22 
REMARK    5  A    between atoms: C_26  and  O_27 
ROOT
HETATM    1  C   UNL     1      25.929  42.952  50.612  1.00  0.00     0.162 C 
HETATM    2  O   UNL     1      26.315  42.287  51.829  1.00  0.00    -0.339 OA
HETATM    3  C   UNL     1      27.052  43.034  52.706  1.00  0.00     0.098 A 
HETATM    4  C   UNL     1      27.859  42.348  53.605  1.00  0.00     0.153 A 
HETATM    5  N   UNL     1      28.642  42.949  54.528  1.00  0.00    -0.270 NA
HETATM    6  C   UNL     1      28.602  44.295  54.556  1.00  0.00     0.117 A 
HETATM    7  C   UNL     1      27.812  45.066  53.712  1.00  0.00     0.034 A 
HETATM    8  C   UNL     1      26.999  44.432  52.763  1.00  0.00     0.011 A 
HETATM    9  C   UNL     1      26.102  45.143  51.842  1.00  0.00    -0.014 A 
HETATM   10  C   UNL     1      25.752  46.494  51.966  1.00  0.00     0.014 A 
HETATM   11  C   UNL     1      24.895  47.106  51.041  1.00  0.00     0.018 A 
HETATM   12  C   UNL     1      24.361  46.385  49.967  1.00  0.00     0.032 A 
HETATM   13  C   UNL     1      24.689  45.032  49.846  1.00  0.00     0.027 A 
HETATM   14  C   UNL     1      25.548  44.413  50.778  1.00  0.00    -0.017 A 
ENDROOT
BRANCH  12  15
HETATM   15  C   UNL     1      23.490  47.122  48.996  1.00  0.00     0.252 C 
HETATM   16  O   UNL     1      22.820  46.498  48.181  1.00  0.00    -0.268 OA
HETATM   17  N   UNL     1      23.461  48.496  49.077  1.00  0.00    -0.349 N 
HETATM   18  H   UNL     1      24.040  49.001  49.726  1.00  0.00     0.163 HD
BRANCH  17  19
HETATM   19  C   UNL     1      22.583  49.301  48.239  1.00  0.00     0.114 C 
HETATM   20  C   UNL     1      23.313  50.544  47.726  1.00  0.00     0.037 C 
BRANCH  19  21
HETATM   21  C   UNL     1      21.306  49.579  49.019  1.00  0.00    -0.033 A 
HETATM   22  C   UNL     1      21.071  50.890  49.470  1.00  0.00     0.009 A 
HETATM   23  C   UNL     1      19.891  51.216  50.134  1.00  0.00     0.003 A 
HETATM   24  C   UNL     1      18.926  50.235  50.353  1.00  0.00     0.037 A 
HETATM   25  C   UNL     1      19.132  48.927  49.913  1.00  0.00     0.068 A 
HETATM   26  C   UNL     1      20.314  48.605  49.239  1.00  0.00     0.046 A 
BRANCH  25  27
HETATM   27  O   UNL     1      18.104  48.067  50.187  1.00  0.00    -0.356 OA
HETATM   28  C   UNL     1      17.269  47.695  49.097  1.00  0.00     0.210 C 
ENDBRANCH  25  27
ENDBRANCH  19  21
ENDBRANCH  17  19
ENDBRANCH  12  15
BRANCH   1  29
HETATM   29  C   UNL     1      27.021  42.773  49.542  1.00  0.00     0.033 C 
HETATM   30  C   UNL     1      27.450  41.319  49.392  1.00  0.00     0.008 C 
ENDBRANCH   1  29
TORSDOF 5
ENDMDL
MODEL 8
REMARK VINA RESULT:      -8.1      2.355      3.853
REMARK  5 active torsions:
REMARK  status: ('A' for Active; 'I' for Inactive)
REMARK    1  A    between atoms: C_2  and  C_3 
REMARK    2  A    between atoms: C_14  and  C_17 
REMARK       I    between atoms: C_17  and  N_19 
REMARK    3  A    between atoms: N_19  and  C_20 
REMARK    4  A    between atoms: C_20  and  C_22 
REMARK    5  A    between atoms: C_26  and  O_27 
ROOT
HETATM    1  C   UNL     1      22.164  50.529  49.547  1.00  0.00     0.162 C 
HETATM    2  O   UNL     1      20.902  51.222  49.516  1.00  0.00    -0.339 OA
HETATM    3  C   UNL     1      20.089  50.929  48.456  1.00  0.00     0.098 A 
HETATM    4  C   UNL     1      19.146  51.882  48.095  1.00  0.00     0.153 A 
HETATM    5  N   UNL     1      18.276  51.733  47.071  1.00  0.00    -0.270 NA
HETATM    6  C   UNL     1      18.350  50.573  46.391  1.00  0.00     0.117 A 
HETATM    7  C   UNL     1      19.244  49.554  46.692  1.00  0.00     0.034 A 
HETATM    8  C   UNL     1      20.137  49.716  47.759  1.00  0.00     0.011 A 
HETATM    9  C   UNL     1      21.104  48.694  48.186  1.00  0.00    -0.014 A 
HETATM   10  C   UNL     1      21.081  47.358  47.762  1.00  0.00     0.014 A 
HETATM   11  C   UNL     1      22.044  46.443  48.206  1.00  0.00     0.018 A 
HETATM   12  C   UNL     1      23.057  46.833  49.089  1.00  0.00     0.032 A 
HETATM   13  C   UNL     1      23.077  48.160  49.532  1.00  0.00     0.027 A 
HETATM   14  C   UNL     1      22.106  49.082  49.089  1.00  0.00    -0.017 A 
ENDROOT
BRANCH  12  15
HETATM   15  C   UNL     1      24.075  45.808  49.481  1.00  0.00     0.252 C 
HETATM   16  O   UNL     1      24.605  45.113  48.621  1.00  0.00    -0.268 OA
HETATM   17  N   UNL     1      24.398  45.702  50.815  1.00  0.00    -0.349 N 
HETATM   18  H   UNL     1      23.932  46.252  51.518  1.00  0.00     0.163 HD
BRANCH  17  19
HETATM   19  C   UNL     1      25.436  44.799  51.290  1.00  0.00     0.114 C 
HETATM   20  C   UNL     1      24.855  43.418  51.598  1.00  0.00     0.037 C 
BRANCH  19  21
HETATM   21  C   UNL     1      26.154  45.470  52.452  1.00  0.00    -0.033 A 
HETATM   22  C   UNL     1      25.720  46.745  52.859  1.00  0.00     0.009 A 
HETATM   23  C   UNL     1      26.299  47.380  53.956  1.00  0.00     0.003 A 
HETATM   24  C   UNL     1      27.317  46.747  54.665  1.00  0.00     0.037 A 
HETATM   25  C   UNL     1      27.764  45.480  54.284  1.00  0.00     0.068 A 
HETATM   26  C   UNL     1      27.176  44.843  53.188  1.00  0.00     0.046 A 
BRANCH  25  27
HETATM   27  O   UNL     1      28.763  44.972  55.070  1.00  0.00    -0.356 OA
HETATM   28  C   UNL     1      29.394  45.873  55.971  1.00  0.00     0.210 C 
ENDBRANCH  25  27
ENDBRANCH  19  21
ENDBRANCH  17  19
ENDBRANCH  12  15
BRANCH   1  29
HETATM   29  C   UNL     1      23.224  51.325  48.765  1.00  0.00     0.033 C 
HETATM   30  C   UNL     1      23.797  50.532  47.598  1.00  0.00     0.008 C 
ENDBRANCH   1  29
TORSDOF 5
ENDMDL
MODEL 9
REMARK VINA RESULT:      -8.1      4.407      8.955
REMARK  5 active torsions:
REMARK  status: ('A' for Active; 'I' for Inactive)
REMARK    1  A    between atoms: C_2  and  C_3 
REMARK    2  A    between atoms: C_14  and  C_17 
REMARK       I    between atoms: C_17  and  N_19 
REMARK    3  A    between atoms: N_19  and  C_20 
REMARK    4  A    between atoms: C_20  and  C_22 
REMARK    5  A    between atoms: C_26  and  O_27 
ROOT
HETATM    1  C   UNL     1      27.727  45.561  54.412  1.00  0.00     0.162 C 
HETATM    2  O   UNL     1      28.762  46.069  55.275  1.00  0.00    -0.339 OA
HETATM    3  C   UNL     1      29.617  45.135  55.791  1.00  0.00     0.098 A 
HETATM    4  C   UNL     1      30.274  45.458  56.971  1.00  0.00     0.153 A 
HETATM    5  N   UNL     1      31.147  44.637  57.598  1.00  0.00    -0.270 NA
HETATM    6  C   UNL     1      31.375  43.449  57.007  1.00  0.00     0.117 A 
HETATM    7  C   UNL     1      30.782  43.047  55.818  1.00  0.00     0.034 A 
HETATM    8  C   UNL     1      29.884  43.908  55.172  1.00  0.00     0.011 A 
HETATM    9  C   UNL     1      29.222  43.601  53.897  1.00  0.00    -0.014 A 
HETATM   10  C   UNL     1      29.592  42.549  53.047  1.00  0.00     0.014 A 
HETATM   11  C   UNL     1      28.906  42.313  51.849  1.00  0.00     0.018 A 
HETATM   12  C   UNL     1      27.832  43.122  51.462  1.00  0.00     0.032 A 
HETATM   13  C   UNL     1      27.467  44.186  52.293  1.00  0.00     0.027 A 
HETATM   14  C   UNL     1      28.159  44.427  53.499  1.00  0.00    -0.017 A 
ENDROOT
BRANCH  12  15
HETATM   15  C   UNL     1      27.121  42.777  50.190  1.00  0.00     0.252 C 
HETATM   16  O   UNL     1      27.137  43.563  49.248  1.00  0.00    -0.268 OA
HETATM   17  N   UNL     1      26.487  41.557  50.121  1.00  0.00    -0.349 N 
HETATM   18  H   UNL     1      26.450  40.934  50.910  1.00  0.00     0.163 HD
BRANCH  17  19
HETATM   19  C   UNL     1      25.842  41.089  48.902  1.00  0.00     0.114 C 
HETATM   20  C   UNL     1      24.327  41.290  48.978  1.00  0.00     0.037 C 
BRANCH  19  21
HETATM   21  C   UNL     1      26.291  39.657  48.648  1.00  0.00    -0.033 A 
HETATM   22  C   UNL     1      26.950  38.970  49.682  1.00  0.00     0.009 A 
HETATM   23  C   UNL     1      27.328  37.638  49.527  1.00  0.00     0.003 A 
HETATM   24  C   UNL     1      27.046  36.973  48.336  1.00  0.00     0.037 A 
HETATM   25  C   UNL     1      26.390  37.630  47.294  1.00  0.00     0.068 A 
HETATM   26  C   UNL     1      26.005  38.965  47.457  1.00  0.00     0.046 A 
BRANCH  25  27
HETATM   27  O   UNL     1      26.171  36.859  46.186  1.00  0.00    -0.356 OA
HETATM   28  C   UNL     1      26.037  35.458  46.392  1.00  0.00     0.210 C 
ENDBRANCH  25  27
ENDBRANCH  19  21
ENDBRANCH  17  19
ENDBRANCH  12  15
BRANCH   1  29
HETATM   29  C   UNL     1      26.491  45.174  55.243  1.00  0.00     0.033 C 
HETATM   30  C   UNL     1      25.269  44.909  54.372  1.00  0.00     0.008 C 
ENDBRANCH   1  29
TORSDOF 5
ENDMDL
MODEL 10
REMARK VINA RESULT:      -8.0      6.811     13.175
REMARK  5 active torsions:
REMARK  status: ('A' for Active; 'I' for Inactive)
REMARK    1  A    between atoms: C_2  and  C_3 
REMARK    2  A    between atoms: C_14  and  C_17 
REMARK       I    between atoms: C_17  and  N_19 
REMARK    3  A    between atoms: N_19  and  C_20 
REMARK    4  A    between atoms: C_20  and  C_22 
REMARK    5  A    between atoms: C_26  and  O_27 
ROOT
HETATM    1  C   UNL     1      19.668  48.227  48.208  1.00  0.00     0.162 C 
HETATM    2  O   UNL     1      20.853  47.922  48.966  1.00  0.00    -0.339 OA
HETATM    3  C   UNL     1      21.849  48.857  48.915  1.00  0.00     0.098 A 
HETATM    4  C   UNL     1      23.143  48.425  49.173  1.00  0.00     0.153 A 
HETATM    5  N   UNL     1      24.226  49.233  49.160  1.00  0.00    -0.270 NA
HETATM    6  C   UNL     1      23.996  50.532  48.886  1.00  0.00     0.117 A 
HETATM    7  C   UNL     1      22.736  51.060  48.636  1.00  0.00     0.034 A 
HETATM    8  C   UNL     1      21.619  50.215  48.660  1.00  0.00     0.011 A 
HETATM    9  C   UNL     1      20.239  50.669  48.441  1.00  0.00    -0.014 A 
HETATM   10  C   UNL     1      19.839  52.012  48.441  1.00  0.00     0.014 A 
HETATM   11  C   UNL     1      18.503  52.368  48.215  1.00  0.00     0.018 A 
HETATM   12  C   UNL     1      17.526  51.393  47.986  1.00  0.00     0.032 A 
HETATM   13  C   UNL     1      17.911  50.049  48.002  1.00  0.00     0.027 A 
HETATM   14  C   UNL     1      19.255  49.689  48.233  1.00  0.00    -0.017 A 
ENDROOT
BRANCH  12  15
HETATM   15  C   UNL     1      16.130  51.857  47.707  1.00  0.00     0.252 C 
HETATM   16  O   UNL     1      15.304  51.071  47.254  1.00  0.00    -0.268 OA
HETATM   17  N   UNL     1      15.818  53.165  47.999  1.00  0.00    -0.349 N 
HETATM   18  H   UNL     1      16.511  53.812  48.338  1.00  0.00     0.163 HD
BRANCH  17  19
HETATM   19  C   UNL     1      14.469  53.691  47.848  1.00  0.00     0.114 C 
HETATM   20  C   UNL     1      14.264  54.263  46.444  1.00  0.00     0.037 C 
BRANCH  19  21
HETATM   21  C   UNL     1      14.209  54.667  48.987  1.00  0.00    -0.033 A 
HETATM   22  C   UNL     1      13.066  55.482  48.920  1.00  0.00     0.009 A 
HETATM   23  C   UNL     1      12.744  56.350  49.962  1.00  0.00     0.003 A 
HETATM   24  C   UNL     1      13.561  56.410  51.089  1.00  0.00     0.037 A 
HETATM   25  C   UNL     1      14.701  55.610  51.182  1.00  0.00     0.068 A 
HETATM   26  C   UNL     1      15.015  54.735  50.138  1.00  0.00     0.046 A 
BRANCH  25  27
HETATM   27  O   UNL     1      15.409  55.764  52.343  1.00  0.00    -0.356 OA
HETATM   28  C   UNL     1      15.225  56.983  53.052  1.00  0.00     0.210 C 
ENDBRANCH  25  27
ENDBRANCH  19  21
ENDBRANCH  17  19
ENDBRANCH  12  15
BRANCH   1  29
HETATM   29  C   UNL     1      19.815  47.708  46.766  1.00  0.00     0.033 C 
HETATM   30  C   UNL     1      20.277  46.257  46.718  1.00  0.00     0.008 C 
ENDBRANCH   1  29
TORSDOF 5
ENDMDL
