MODEL 1
REMARK VINA RESULT:      -9.7      0.000      0.000
REMARK  4 active torsions:
REMARK  status: ('A' for Active; 'I' for Inactive)
REMARK    1  A    between atoms: N_8  and  C_9 
REMARK    2  A    between atoms: C_19  and  C_20 
REMARK    3  A    between atoms: C_20  and  C_21 
REMARK    4  A    between atoms: C_24  and  C_25 
ROOT
HETATM    1  C   UNL     1      20.777  47.517  47.287  1.00  0.00     0.069 C 
HETATM    2  C   UNL     1      22.050  47.661  48.082  1.00  0.00     0.017 C 
HETATM    3  N   UNL     1      22.487  46.494  48.696  1.00  0.00    -0.348 N 
HETATM    4  C   UNL     1      23.531  46.482  49.577  1.00  0.00     0.119 A 
HETATM    5  C   UNL     1      24.285  47.573  49.769  1.00  0.00     0.124 A 
HETATM    6  C   UNL     1      25.351  47.199  50.710  1.00  0.00     0.280 A 
HETATM    7  O   UNL     1      26.231  47.942  51.107  1.00  0.00    -0.265 OA
HETATM    8  N   UNL     1      25.109  45.852  51.024  1.00  0.00    -0.236 N 
HETATM    9  N   UNL     1      23.958  45.410  50.339  1.00  0.00    -0.179 NA
HETATM   10  C   UNL     1      23.995  48.813  49.051  1.00  0.00     0.199 C 
HETATM   11  O   UNL     1      24.738  49.786  49.102  1.00  0.00    -0.287 OA
HETATM   12  C   UNL     1      22.724  48.831  48.228  1.00  0.00     0.020 C 
HETATM   13  H   UNL     1      21.838  45.716  48.749  1.00  0.00     0.167 HD
HETATM   14  H   UNL     1      24.150  44.606  49.740  1.00  0.00     0.155 HD
ENDROOT
BRANCH  12  15
HETATM   15  C   UNL     1      22.342  50.178  47.664  1.00  0.00     0.083 C 
BRANCH  15  16
HETATM   16  C   UNL     1      20.995  50.647  48.173  1.00  0.00    -0.054 A 
HETATM   17  C   UNL     1      20.795  50.877  49.540  1.00  0.00     0.008 A 
HETATM   18  C   UNL     1      19.536  51.235  50.027  1.00  0.00     0.008 A 
HETATM   19  C   UNL     1      18.444  51.374  49.159  1.00  0.00    -0.055 A 
HETATM   20  C   UNL     1      18.651  51.162  47.789  1.00  0.00     0.008 A 
HETATM   21  C   UNL     1      19.911  50.802  47.301  1.00  0.00     0.008 A 
BRANCH  19  22
HETATM   22  C   UNL     1      17.078  51.728  49.717  1.00  0.00     0.010 C 
HETATM   23  C   UNL     1      16.896  53.240  49.857  1.00  0.00     0.015 C 
HETATM   24  C   UNL     1      15.958  51.119  48.869  1.00  0.00     0.015 C 
ENDBRANCH  19  22
ENDBRANCH  15  16
ENDBRANCH  12  15
BRANCH   8  25
HETATM   25  C   UNL     1      25.773  45.006  51.939  1.00  0.00     0.055 A 
HETATM   26  C   UNL     1      25.381  44.937  53.283  1.00  0.00     0.034 A 
HETATM   27  C   UNL     1      26.045  44.098  54.185  1.00  0.00     0.044 A 
HETATM   28  C   UNL     1      27.105  43.319  53.743  1.00  0.00     0.116 A 
HETATM   29  F   UNL     1      27.740  42.513  54.604  1.00  0.00    -0.206 F 
HETATM   30  C   UNL     1      27.511  43.361  52.418  1.00  0.00     0.044 A 
HETATM   31  C   UNL     1      26.848  44.202  51.518  1.00  0.00     0.034 A 
ENDBRANCH   8  25
TORSDOF 4
ENDMDL
MODEL 2
REMARK VINA RESULT:      -9.6      3.289      9.536
REMARK  4 active torsions:
REMARK  status: ('A' for Active; 'I' for Inactive)
REMARK    1  A    between atoms: N_8  and  C_9 
REMARK    2  A    between atoms: C_19  and  C_20 
REMARK    3  A    between atoms: C_20  and  C_21 
REMARK    4  A    between atoms: C_24  and  C_25 
ROOT
HETATM    1  C   UNL     1      24.208  42.774  50.020  1.00  0.00     0.069 C 
HETATM    2  C   UNL     1      24.355  44.269  49.885  1.00  0.00     0.017 C 
HETATM    3  N   UNL     1      23.156  44.964  49.786  1.00  0.00    -0.348 N 
HETATM    4  C   UNL     1      23.111  46.299  49.502  1.00  0.00     0.119 A 
HETATM    5  C   UNL     1      24.230  47.036  49.464  1.00  0.00     0.124 A 
HETATM    6  C   UNL     1      23.823  48.426  49.212  1.00  0.00     0.280 A 
HETATM    7  O   UNL     1      24.580  49.376  49.123  1.00  0.00    -0.265 OA
HETATM    8  N   UNL     1      22.423  48.384  49.097  1.00  0.00    -0.236 N 
HETATM    9  N   UNL     1      21.980  47.054  49.250  1.00  0.00    -0.179 NA
HETATM   10  C   UNL     1      25.534  46.420  49.708  1.00  0.00     0.199 C 
HETATM   11  O   UNL     1      26.560  47.082  49.811  1.00  0.00    -0.287 OA
HETATM   12  C   UNL     1      25.550  44.911  49.835  1.00  0.00     0.020 C 
HETATM   13  H   UNL     1      22.315  44.430  49.597  1.00  0.00     0.167 HD
HETATM   14  H   UNL     1      21.313  46.956  50.017  1.00  0.00     0.155 HD
ENDROOT
BRANCH  12  15
HETATM   15  C   UNL     1      26.923  44.285  49.882  1.00  0.00     0.083 C 
BRANCH  15  16
HETATM   16  C   UNL     1      27.471  44.219  51.292  1.00  0.00    -0.054 A 
HETATM   17  C   UNL     1      26.848  44.927  52.328  1.00  0.00     0.008 A 
HETATM   18  C   UNL     1      27.391  44.933  53.615  1.00  0.00     0.008 A 
HETATM   19  C   UNL     1      28.570  44.230  53.899  1.00  0.00    -0.055 A 
HETATM   20  C   UNL     1      29.180  43.506  52.866  1.00  0.00     0.008 A 
HETATM   21  C   UNL     1      28.638  43.501  51.577  1.00  0.00     0.008 A 
BRANCH  19  22
HETATM   22  C   UNL     1      29.159  44.282  55.297  1.00  0.00     0.010 C 
HETATM   23  C   UNL     1      30.515  43.578  55.369  1.00  0.00     0.015 C 
HETATM   24  C   UNL     1      29.264  45.725  55.801  1.00  0.00     0.015 C 
ENDBRANCH  19  22
ENDBRANCH  15  16
ENDBRANCH  12  15
BRANCH   8  25
HETATM   25  C   UNL     1      21.514  49.415  48.776  1.00  0.00     0.055 A 
HETATM   26  C   UNL     1      20.782  49.394  47.580  1.00  0.00     0.034 A 
HETATM   27  C   UNL     1      19.884  50.421  47.268  1.00  0.00     0.044 A 
HETATM   28  C   UNL     1      19.711  51.473  48.155  1.00  0.00     0.116 A 
HETATM   29  F   UNL     1      18.850  52.456  47.859  1.00  0.00    -0.206 F 
HETATM   30  C   UNL     1      20.416  51.518  49.349  1.00  0.00     0.044 A 
HETATM   31  C   UNL     1      21.315  50.492  49.659  1.00  0.00     0.034 A 
ENDBRANCH   8  25
TORSDOF 4
ENDMDL
MODEL 3
REMARK VINA RESULT:      -9.4      3.606      9.467
REMARK  4 active torsions:
REMARK  status: ('A' for Active; 'I' for Inactive)
REMARK    1  A    between atoms: N_8  and  C_9 
REMARK    2  A    between atoms: C_19  and  C_20 
REMARK    3  A    between atoms: C_20  and  C_21 
REMARK    4  A    between atoms: C_24  and  C_25 
ROOT
HETATM    1  C   UNL     1      27.118  47.586  49.857  1.00  0.00     0.069 C 
HETATM    2  C   UNL     1      25.645  47.440  49.569  1.00  0.00     0.017 C 
HETATM    3  N   UNL     1      24.952  48.640  49.468  1.00  0.00    -0.348 N 
HETATM    4  C   UNL     1      23.591  48.687  49.367  1.00  0.00     0.119 A 
HETATM    5  C   UNL     1      22.871  47.569  49.200  1.00  0.00     0.124 A 
HETATM    6  C   UNL     1      21.466  47.979  49.053  1.00  0.00     0.280 A 
HETATM    7  O   UNL     1      20.528  47.222  48.874  1.00  0.00    -0.265 OA
HETATM    8  N   UNL     1      21.477  49.378  49.172  1.00  0.00    -0.236 N 
HETATM    9  N   UNL     1      22.798  49.820  49.396  1.00  0.00    -0.179 NA
HETATM   10  C   UNL     1      23.528  46.264  49.141  1.00  0.00     0.199 C 
HETATM   11  O   UNL     1      22.919  45.238  48.859  1.00  0.00    -0.287 OA
HETATM   12  C   UNL     1      25.012  46.246  49.440  1.00  0.00     0.020 C 
HETATM   13  H   UNL     1      25.414  49.481  49.798  1.00  0.00     0.167 HD
HETATM   14  H   UNL     1      23.107  50.485  48.685  1.00  0.00     0.155 HD
ENDROOT
BRANCH  12  15
HETATM   15  C   UNL     1      25.624  44.872  49.574  1.00  0.00     0.083 C 
BRANCH  15  16
HETATM   16  C   UNL     1      26.275  44.668  50.926  1.00  0.00    -0.054 A 
HETATM   17  C   UNL     1      25.637  45.106  52.093  1.00  0.00     0.008 A 
HETATM   18  C   UNL     1      26.263  44.991  53.336  1.00  0.00     0.008 A 
HETATM   19  C   UNL     1      27.545  44.434  53.443  1.00  0.00    -0.055 A 
HETATM   20  C   UNL     1      28.175  43.979  52.277  1.00  0.00     0.008 A 
HETATM   21  C   UNL     1      27.548  44.095  51.032  1.00  0.00     0.008 A 
BRANCH  19  22
HETATM   22  C   UNL     1      28.220  44.354  54.800  1.00  0.00     0.010 C 
HETATM   23  C   UNL     1      29.518  43.546  54.743  1.00  0.00     0.015 C 
HETATM   24  C   UNL     1      28.470  45.750  55.379  1.00  0.00     0.015 C 
ENDBRANCH  19  22
ENDBRANCH  15  16
ENDBRANCH  12  15
BRANCH   8  25
HETATM   25  C   UNL     1      20.399  50.289  49.190  1.00  0.00     0.055 A 
HETATM   26  C   UNL     1      19.250  50.043  49.956  1.00  0.00     0.034 A 
HETATM   27  C   UNL     1      18.185  50.950  49.967  1.00  0.00     0.044 A 
HETATM   28  C   UNL     1      18.265  52.112  49.213  1.00  0.00     0.116 A 
HETATM   29  F   UNL     1      17.247  52.982  49.223  1.00  0.00    -0.206 F 
HETATM   30  C   UNL     1      19.391  52.385  48.450  1.00  0.00     0.044 A 
HETATM   31  C   UNL     1      20.455  51.477  48.438  1.00  0.00     0.034 A 
ENDBRANCH   8  25
TORSDOF 4
ENDMDL
MODEL 4
REMARK VINA RESULT:      -9.1      8.843     10.870
REMARK  4 active torsions:
REMARK  status: ('A' for Active; 'I' for Inactive)
REMARK    1  A    between atoms: N_8  and  C_9 
REMARK    2  A    between atoms: C_19  and  C_20 
REMARK    3  A    between atoms: C_20  and  C_21 
REMARK    4  A    between atoms: C_24  and  C_25 
ROOT
HETATM    1  C   UNL     1      28.628  37.966  49.956  1.00  0.00     0.069 C 
HETATM    2  C   UNL     1      28.340  39.400  50.320  1.00  0.00     0.017 C 
HETATM    3  N   UNL     1      29.112  39.902  51.360  1.00  0.00    -0.348 N 
HETATM    4  C   UNL     1      28.875  41.126  51.919  1.00  0.00     0.119 A 
HETATM    5  C   UNL     1      27.982  41.969  51.381  1.00  0.00     0.124 A 
HETATM    6  C   UNL     1      28.029  43.207  52.172  1.00  0.00     0.280 A 
HETATM    7  O   UNL     1      27.355  44.201  51.964  1.00  0.00    -0.265 OA
HETATM    8  N   UNL     1      28.982  42.967  53.175  1.00  0.00    -0.236 N 
HETATM    9  N   UNL     1      29.491  41.659  53.036  1.00  0.00    -0.179 NA
HETATM   10  C   UNL     1      27.225  41.589  50.189  1.00  0.00     0.199 C 
HETATM   11  O   UNL     1      26.501  42.380  49.596  1.00  0.00    -0.287 OA
HETATM   12  C   UNL     1      27.389  40.159  49.717  1.00  0.00     0.020 C 
HETATM   13  H   UNL     1      29.635  39.239  51.923  1.00  0.00     0.167 HD
HETATM   14  H   UNL     1      30.505  41.651  52.916  1.00  0.00     0.155 HD
ENDROOT
BRANCH  12  15
HETATM   15  C   UNL     1      26.448  39.734  48.615  1.00  0.00     0.083 C 
BRANCH  15  16
HETATM   16  C   UNL     1      27.143  39.660  47.272  1.00  0.00    -0.054 A 
HETATM   17  C   UNL     1      27.605  40.826  46.648  1.00  0.00     0.008 A 
HETATM   18  C   UNL     1      28.178  40.776  45.375  1.00  0.00     0.008 A 
HETATM   19  C   UNL     1      28.303  39.558  44.693  1.00  0.00    -0.055 A 
HETATM   20  C   UNL     1      27.857  38.390  45.327  1.00  0.00     0.008 A 
HETATM   21  C   UNL     1      27.283  38.440  46.600  1.00  0.00     0.008 A 
BRANCH  19  22
HETATM   22  C   UNL     1      28.895  39.534  43.296  1.00  0.00     0.010 C 
HETATM   23  C   UNL     1      29.564  40.863  42.940  1.00  0.00     0.015 C 
HETATM   24  C   UNL     1      29.872  38.367  43.127  1.00  0.00     0.015 C 
ENDBRANCH  19  22
ENDBRANCH  15  16
ENDBRANCH  12  15
BRANCH   8  25
HETATM   25  C   UNL     1      29.373  43.781  54.261  1.00  0.00     0.055 A 
HETATM   26  C   UNL     1      30.495  43.465  55.040  1.00  0.00     0.034 A 
HETATM   27  C   UNL     1      30.874  44.275  56.116  1.00  0.00     0.044 A 
HETATM   28  C   UNL     1      30.135  45.410  56.416  1.00  0.00     0.116 A 
HETATM   29  F   UNL     1      30.498  46.187  57.443  1.00  0.00    -0.206 F 
HETATM   30  C   UNL     1      29.023  45.751  55.659  1.00  0.00     0.044 A 
HETATM   31  C   UNL     1      28.643  44.940  54.585  1.00  0.00     0.034 A 
ENDBRANCH   8  25
TORSDOF 4
ENDMDL
MODEL 5
REMARK VINA RESULT:      -9.0      3.759      5.883
REMARK  4 active torsions:
REMARK  status: ('A' for Active; 'I' for Inactive)
REMARK    1  A    between atoms: N_8  and  C_9 
REMARK    2  A    between atoms: C_19  and  C_20 
REMARK    3  A    between atoms: C_20  and  C_21 
REMARK    4  A    between atoms: C_24  and  C_25 
ROOT
HETATM    1  C   UNL     1      17.707  52.369  49.697  1.00  0.00     0.069 C 
HETATM    2  C   UNL     1      18.605  51.283  49.162  1.00  0.00     0.017 C 
HETATM    3  N   UNL     1      19.902  51.302  49.662  1.00  0.00    -0.348 N 
HETATM    4  C   UNL     1      20.884  50.491  49.170  1.00  0.00     0.119 A 
HETATM    5  C   UNL     1      20.602  49.523  48.286  1.00  0.00     0.124 A 
HETATM    6  C   UNL     1      21.855  48.800  48.026  1.00  0.00     0.280 A 
HETATM    7  O   UNL     1      21.974  47.846  47.276  1.00  0.00    -0.265 OA
HETATM    8  N   UNL     1      22.825  49.450  48.806  1.00  0.00    -0.236 N 
HETATM    9  N   UNL     1      22.227  50.523  49.500  1.00  0.00    -0.179 NA
HETATM   10  C   UNL     1      19.233  49.325  47.812  1.00  0.00     0.199 C 
HETATM   11  O   UNL     1      18.917  48.373  47.109  1.00  0.00    -0.287 OA
HETATM   12  C   UNL     1      18.217  50.361  48.244  1.00  0.00     0.020 C 
HETATM   13  H   UNL     1      20.204  52.134  50.158  1.00  0.00     0.167 HD
HETATM   14  H   UNL     1      22.343  50.442  50.511  1.00  0.00     0.155 HD
ENDROOT
BRANCH  12  15
HETATM   15  C   UNL     1      16.865  50.251  47.581  1.00  0.00     0.083 C 
BRANCH  15  16
HETATM   16  C   UNL     1      16.750  51.152  46.370  1.00  0.00    -0.054 A 
HETATM   17  C   UNL     1      17.492  50.882  45.213  1.00  0.00     0.008 A 
HETATM   18  C   UNL     1      17.451  51.750  44.119  1.00  0.00     0.008 A 
HETATM   19  C   UNL     1      16.665  52.910  44.154  1.00  0.00    -0.055 A 
HETATM   20  C   UNL     1      15.909  53.169  45.305  1.00  0.00     0.008 A 
HETATM   21  C   UNL     1      15.951  52.301  46.400  1.00  0.00     0.008 A 
BRANCH  19  22
HETATM   22  C   UNL     1      16.666  53.856  42.968  1.00  0.00     0.010 C 
HETATM   23  C   UNL     1      17.603  53.376  41.858  1.00  0.00     0.015 C 
HETATM   24  C   UNL     1      15.248  54.073  42.430  1.00  0.00     0.015 C 
ENDBRANCH  19  22
ENDBRANCH  15  16
ENDBRANCH  12  15
BRANCH   8  25
HETATM   25  C   UNL     1      24.217  49.228  48.885  1.00  0.00     0.055 A 
HETATM   26  C   UNL     1      24.743  48.169  49.639  1.00  0.00     0.034 A 
HETATM   27  C   UNL     1      26.124  47.956  49.715  1.00  0.00     0.044 A 
HETATM   28  C   UNL     1      26.987  48.801  49.031  1.00  0.00     0.116 A 
HETATM   29  F   UNL     1      28.308  48.597  49.101  1.00  0.00    -0.206 F 
HETATM   30  C   UNL     1      26.495  49.853  48.273  1.00  0.00     0.044 A 
HETATM   31  C   UNL     1      25.115  50.066  48.199  1.00  0.00     0.034 A 
ENDBRANCH   8  25
TORSDOF 4
ENDMDL
MODEL 6
REMARK VINA RESULT:      -9.0      1.912      2.625
REMARK  4 active torsions:
REMARK  status: ('A' for Active; 'I' for Inactive)
REMARK    1  A    between atoms: N_8  and  C_9 
REMARK    2  A    between atoms: C_19  and  C_20 
REMARK    3  A    between atoms: C_20  and  C_21 
REMARK    4  A    between atoms: C_24  and  C_25 
ROOT
HETATM    1  C   UNL     1      23.644  49.865  48.322  1.00  0.00     0.069 C 
HETATM    2  C   UNL     1      23.731  48.474  48.898  1.00  0.00     0.017 C 
HETATM    3  N   UNL     1      24.760  48.288  49.813  1.00  0.00    -0.348 N 
HETATM    4  C   UNL     1      25.077  47.056  50.311  1.00  0.00     0.119 A 
HETATM    5  C   UNL     1      24.305  45.989  50.059  1.00  0.00     0.124 A 
HETATM    6  C   UNL     1      24.883  44.856  50.796  1.00  0.00     0.280 A 
HETATM    7  O   UNL     1      24.435  43.723  50.808  1.00  0.00    -0.265 OA
HETATM    8  N   UNL     1      26.018  45.376  51.439  1.00  0.00    -0.236 N 
HETATM    9  N   UNL     1      26.157  46.742  51.115  1.00  0.00    -0.179 NA
HETATM   10  C   UNL     1      23.110  46.117  49.226  1.00  0.00     0.199 C 
HETATM   11  O   UNL     1      22.313  45.197  49.083  1.00  0.00    -0.287 OA
HETATM   12  C   UNL     1      22.903  47.456  48.550  1.00  0.00     0.020 C 
HETATM   13  H   UNL     1      25.482  48.999  49.864  1.00  0.00     0.167 HD
HETATM   14  H   UNL     1      26.162  47.336  51.945  1.00  0.00     0.155 HD
ENDROOT
BRANCH  12  15
HETATM   15  C   UNL     1      21.781  47.500  47.540  1.00  0.00     0.083 C 
BRANCH  15  16
HETATM   16  C   UNL     1      20.620  48.348  48.016  1.00  0.00    -0.054 A 
HETATM   17  C   UNL     1      20.212  49.467  47.278  1.00  0.00     0.008 A 
HETATM   18  C   UNL     1      19.193  50.299  47.748  1.00  0.00     0.008 A 
HETATM   19  C   UNL     1      18.556  50.033  48.968  1.00  0.00    -0.055 A 
HETATM   20  C   UNL     1      18.953  48.902  49.695  1.00  0.00     0.008 A 
HETATM   21  C   UNL     1      19.973  48.070  49.225  1.00  0.00     0.008 A 
BRANCH  19  22
HETATM   22  C   UNL     1      17.477  50.973  49.475  1.00  0.00     0.010 C 
HETATM   23  C   UNL     1      18.008  52.393  49.674  1.00  0.00     0.015 C 
HETATM   24  C   UNL     1      16.258  50.970  48.547  1.00  0.00     0.015 C 
ENDBRANCH  19  22
ENDBRANCH  15  16
ENDBRANCH  12  15
BRANCH   8  25
HETATM   25  C   UNL     1      26.995  44.717  52.218  1.00  0.00     0.055 A 
HETATM   26  C   UNL     1      27.869  43.780  51.648  1.00  0.00     0.034 A 
HETATM   27  C   UNL     1      28.832  43.129  52.426  1.00  0.00     0.044 A 
HETATM   28  C   UNL     1      28.928  43.415  53.780  1.00  0.00     0.116 A 
HETATM   29  F   UNL     1      29.851  42.795  54.526  1.00  0.00    -0.206 F 
HETATM   30  C   UNL     1      28.081  44.341  54.370  1.00  0.00     0.044 A 
HETATM   31  C   UNL     1      27.117  44.990  53.592  1.00  0.00     0.034 A 
ENDBRANCH   8  25
TORSDOF 4
ENDMDL
MODEL 7
REMARK VINA RESULT:      -8.9      7.045     10.803
REMARK  4 active torsions:
REMARK  status: ('A' for Active; 'I' for Inactive)
REMARK    1  A    between atoms: N_8  and  C_9 
REMARK    2  A    between atoms: C_19  and  C_20 
REMARK    3  A    between atoms: C_20  and  C_21 
REMARK    4  A    between atoms: C_24  and  C_25 
ROOT
HETATM    1  C   UNL     1      26.129  45.629  51.441  1.00  0.00     0.069 C 
HETATM    2  C   UNL     1      26.590  44.220  51.164  1.00  0.00     0.017 C 
HETATM    3  N   UNL     1      26.827  43.940  49.823  1.00  0.00    -0.348 N 
HETATM    4  C   UNL     1      27.097  42.676  49.381  1.00  0.00     0.119 A 
HETATM    5  C   UNL     1      27.304  41.672  50.243  1.00  0.00     0.124 A 
HETATM    6  C   UNL     1      27.640  40.483  49.447  1.00  0.00     0.280 A 
HETATM    7  O   UNL     1      27.902  39.382  49.901  1.00  0.00    -0.265 OA
HETATM    8  N   UNL     1      27.580  40.906  48.109  1.00  0.00    -0.236 N 
HETATM    9  N   UNL     1      27.214  42.268  48.064  1.00  0.00    -0.179 NA
HETATM   10  C   UNL     1      27.227  41.902  51.685  1.00  0.00     0.199 C 
HETATM   11  O   UNL     1      27.538  41.043  52.502  1.00  0.00    -0.287 OA
HETATM   12  C   UNL     1      26.746  43.270  52.121  1.00  0.00     0.020 C 
HETATM   13  H   UNL     1      26.479  44.599  49.134  1.00  0.00     0.167 HD
HETATM   14  H   UNL     1      27.909  42.838  47.579  1.00  0.00     0.155 HD
ENDROOT
BRANCH  12  15
HETATM   15  C   UNL     1      26.480  43.417  53.600  1.00  0.00     0.083 C 
BRANCH  15  16
HETATM   16  C   UNL     1      27.722  43.827  54.364  1.00  0.00    -0.054 A 
HETATM   17  C   UNL     1      28.825  42.967  54.438  1.00  0.00     0.008 A 
HETATM   18  C   UNL     1      29.944  43.305  55.202  1.00  0.00     0.008 A 
HETATM   19  C   UNL     1      29.989  44.513  55.912  1.00  0.00    -0.055 A 
HETATM   20  C   UNL     1      28.892  45.381  55.821  1.00  0.00     0.008 A 
HETATM   21  C   UNL     1      27.772  45.043  55.057  1.00  0.00     0.008 A 
BRANCH  19  22
HETATM   22  C   UNL     1      31.201  44.840  56.765  1.00  0.00     0.010 C 
HETATM   23  C   UNL     1      30.818  45.639  58.013  1.00  0.00     0.015 C 
HETATM   24  C   UNL     1      31.972  43.572  57.143  1.00  0.00     0.015 C 
ENDBRANCH  19  22
ENDBRANCH  15  16
ENDBRANCH  12  15
BRANCH   8  25
HETATM   25  C   UNL     1      27.734  40.162  46.919  1.00  0.00     0.055 A 
HETATM   26  C   UNL     1      27.510  38.778  46.893  1.00  0.00     0.034 A 
HETATM   27  C   UNL     1      27.667  38.046  45.711  1.00  0.00     0.044 A 
HETATM   28  C   UNL     1      28.046  38.698  44.546  1.00  0.00     0.116 A 
HETATM   29  F   UNL     1      28.194  38.000  43.413  1.00  0.00    -0.206 F 
HETATM   30  C   UNL     1      28.269  40.067  44.540  1.00  0.00     0.044 A 
HETATM   31  C   UNL     1      28.113  40.797  45.723  1.00  0.00     0.034 A 
ENDBRANCH   8  25
TORSDOF 4
ENDMDL
MODEL 8
REMARK VINA RESULT:      -8.9      7.981     11.510
REMARK  4 active torsions:
REMARK  status: ('A' for Active; 'I' for Inactive)
REMARK    1  A    between atoms: N_8  and  C_9 
REMARK    2  A    between atoms: C_19  and  C_20 
REMARK    3  A    between atoms: C_20  and  C_21 
REMARK    4  A    between atoms: C_24  and  C_25 
ROOT
HETATM    1  C   UNL     1      25.945  43.668  50.942  1.00  0.00     0.069 C 
HETATM    2  C   UNL     1      26.692  42.534  50.286  1.00  0.00     0.017 C 
HETATM    3  N   UNL     1      26.790  42.627  48.903  1.00  0.00    -0.348 N 
HETATM    4  C   UNL     1      27.294  41.612  48.140  1.00  0.00     0.119 A 
HETATM    5  C   UNL     1      27.865  40.540  48.706  1.00  0.00     0.124 A 
HETATM    6  C   UNL     1      28.362  39.690  47.614  1.00  0.00     0.280 A 
HETATM    7  O   UNL     1      28.948  38.631  47.757  1.00  0.00    -0.265 OA
HETATM    8  N   UNL     1      28.004  40.361  46.433  1.00  0.00    -0.236 N 
HETATM    9  N   UNL     1      27.313  41.547  46.758  1.00  0.00    -0.179 NA
HETATM   10  C   UNL     1      27.946  40.422  50.161  1.00  0.00     0.199 C 
HETATM   11  O   UNL     1      28.575  39.524  50.710  1.00  0.00    -0.287 OA
HETATM   12  C   UNL     1      27.214  41.479  50.962  1.00  0.00     0.020 C 
HETATM   13  H   UNL     1      26.194  43.299  48.431  1.00  0.00     0.167 HD
HETATM   14  H   UNL     1      27.767  42.376  46.373  1.00  0.00     0.155 HD
ENDROOT
BRANCH  12  15
HETATM   15  C   UNL     1      27.140  41.223  52.448  1.00  0.00     0.083 C 
BRANCH  15  16
HETATM   16  C   UNL     1      28.094  42.106  53.225  1.00  0.00    -0.054 A 
HETATM   17  C   UNL     1      29.478  41.975  53.057  1.00  0.00     0.008 A 
HETATM   18  C   UNL     1      30.366  42.731  53.825  1.00  0.00     0.008 A 
HETATM   19  C   UNL     1      29.891  43.641  54.781  1.00  0.00    -0.055 A 
HETATM   20  C   UNL     1      28.505  43.785  54.934  1.00  0.00     0.008 A 
HETATM   21  C   UNL     1      27.617  43.026  54.166  1.00  0.00     0.008 A 
BRANCH  19  22
HETATM   22  C   UNL     1      30.876  44.424  55.629  1.00  0.00     0.010 C 
HETATM   23  C   UNL     1      30.216  45.634  56.294  1.00  0.00     0.015 C 
HETATM   24  C   UNL     1      31.548  43.526  56.671  1.00  0.00     0.015 C 
ENDBRANCH  19  22
ENDBRANCH  15  16
ENDBRANCH  12  15
BRANCH   8  25
HETATM   25  C   UNL     1      28.159  39.963  45.087  1.00  0.00     0.055 A 
HETATM   26  C   UNL     1      28.872  40.752  44.173  1.00  0.00     0.034 A 
HETATM   27  C   UNL     1      29.019  40.353  42.840  1.00  0.00     0.044 A 
HETATM   28  C   UNL     1      28.457  39.157  42.416  1.00  0.00     0.116 A 
HETATM   29  F   UNL     1      28.600  38.772  41.141  1.00  0.00    -0.206 F 
HETATM   30  C   UNL     1      27.752  38.353  43.299  1.00  0.00     0.044 A 
HETATM   31  C   UNL     1      27.603  38.754  44.631  1.00  0.00     0.034 A 
ENDBRANCH   8  25
TORSDOF 4
ENDMDL
MODEL 9
REMARK VINA RESULT:      -8.9     20.931     23.506
REMARK  4 active torsions:
REMARK  status: ('A' for Active; 'I' for Inactive)
REMARK    1  A    between atoms: N_8  and  C_9 
REMARK    2  A    between atoms: C_19  and  C_20 
REMARK    3  A    between atoms: C_20  and  C_21 
REMARK    4  A    between atoms: C_24  and  C_25 
ROOT
HETATM    1  C   UNL     1      40.477  43.888  63.064  1.00  0.00     0.069 C 
HETATM    2  C   UNL     1      39.315  44.703  63.571  1.00  0.00     0.017 C 
HETATM    3  N   UNL     1      39.662  45.936  64.110  1.00  0.00    -0.348 N 
HETATM    4  C   UNL     1      38.756  46.730  64.754  1.00  0.00     0.119 A 
HETATM    5  C   UNL     1      37.450  46.427  64.755  1.00  0.00     0.124 A 
HETATM    6  C   UNL     1      36.756  47.513  65.462  1.00  0.00     0.280 A 
HETATM    7  O   UNL     1      35.554  47.577  65.646  1.00  0.00    -0.265 OA
HETATM    8  N   UNL     1      37.770  48.402  65.855  1.00  0.00    -0.236 N 
HETATM    9  N   UNL     1      39.021  47.902  65.439  1.00  0.00    -0.179 NA
HETATM   10  C   UNL     1      36.965  45.223  64.081  1.00  0.00     0.199 C 
HETATM   11  O   UNL     1      35.771  44.984  63.949  1.00  0.00    -0.287 OA
HETATM   12  C   UNL     1      38.024  44.284  63.542  1.00  0.00     0.020 C 
HETATM   13  H   UNL     1      40.641  46.101  64.319  1.00  0.00     0.167 HD
HETATM   14  H   UNL     1      39.517  48.558  64.834  1.00  0.00     0.155 HD
ENDROOT
BRANCH  12  15
HETATM   15  C   UNL     1      37.509  42.958  63.034  1.00  0.00     0.083 C 
BRANCH  15  16
HETATM   16  C   UNL     1      38.355  41.798  63.513  1.00  0.00    -0.054 A 
HETATM   17  C   UNL     1      38.965  40.937  62.592  1.00  0.00     0.008 A 
HETATM   18  C   UNL     1      39.684  39.821  63.025  1.00  0.00     0.008 A 
HETATM   19  C   UNL     1      39.812  39.536  64.392  1.00  0.00    -0.055 A 
HETATM   20  C   UNL     1      39.217  40.409  65.313  1.00  0.00     0.008 A 
HETATM   21  C   UNL     1      38.496  41.526  64.879  1.00  0.00     0.008 A 
BRANCH  19  22
HETATM   22  C   UNL     1      40.566  38.297  64.836  1.00  0.00     0.010 C 
HETATM   23  C   UNL     1      42.067  38.418  64.565  1.00  0.00     0.015 C 
HETATM   24  C   UNL     1      40.300  37.984  66.311  1.00  0.00     0.015 C 
ENDBRANCH  19  22
ENDBRANCH  15  16
ENDBRANCH  12  15
BRANCH   8  25
HETATM   25  C   UNL     1      37.687  49.578  66.633  1.00  0.00     0.055 A 
HETATM   26  C   UNL     1      37.917  50.841  66.070  1.00  0.00     0.034 A 
HETATM   27  C   UNL     1      37.836  52.001  66.848  1.00  0.00     0.044 A 
HETATM   28  C   UNL     1      37.518  51.903  68.195  1.00  0.00     0.116 A 
HETATM   29  F   UNL     1      37.437  53.013  68.940  1.00  0.00    -0.206 F 
HETATM   30  C   UNL     1      37.279  50.667  68.778  1.00  0.00     0.044 A 
HETATM   31  C   UNL     1      37.363  49.508  68.001  1.00  0.00     0.034 A 
ENDBRANCH   8  25
TORSDOF 4
ENDMDL
MODEL 10
REMARK VINA RESULT:      -8.7     21.325     23.815
REMARK  4 active torsions:
REMARK  status: ('A' for Active; 'I' for Inactive)
REMARK    1  A    between atoms: N_8  and  C_9 
REMARK    2  A    between atoms: C_19  and  C_20 
REMARK    3  A    between atoms: C_20  and  C_21 
REMARK    4  A    between atoms: C_24  and  C_25 
ROOT
HETATM    1  C   UNL     1      36.642  42.600  64.136  1.00  0.00     0.069 C 
HETATM    2  C   UNL     1      37.512  43.818  64.321  1.00  0.00     0.017 C 
HETATM    3  N   UNL     1      36.992  44.778  65.180  1.00  0.00    -0.348 N 
HETATM    4  C   UNL     1      37.573  46.004  65.338  1.00  0.00     0.119 A 
HETATM    5  C   UNL     1      38.765  46.280  64.790  1.00  0.00     0.124 A 
HETATM    6  C   UNL     1      39.129  47.640  65.213  1.00  0.00     0.280 A 
HETATM    7  O   UNL     1      40.157  48.219  64.910  1.00  0.00    -0.265 OA
HETATM    8  N   UNL     1      38.053  48.081  66.001  1.00  0.00    -0.236 N 
HETATM    9  N   UNL     1      37.069  47.072  66.057  1.00  0.00    -0.179 NA
HETATM   10  C   UNL     1      39.465  45.275  63.991  1.00  0.00     0.199 C 
HETATM   11  O   UNL     1      40.610  45.445  63.586  1.00  0.00    -0.287 OA
HETATM   12  C   UNL     1      38.701  44.002  63.693  1.00  0.00     0.020 C 
HETATM   13  H   UNL     1      36.013  44.701  65.437  1.00  0.00     0.167 HD
HETATM   14  H   UNL     1      36.864  46.786  67.016  1.00  0.00     0.155 HD
ENDROOT
BRANCH  12  15
HETATM   15  C   UNL     1      39.362  43.073  62.703  1.00  0.00     0.083 C 
BRANCH  15  16
HETATM   16  C   UNL     1      39.659  41.717  63.306  1.00  0.00    -0.054 A 
HETATM   17  C   UNL     1      40.385  41.615  64.499  1.00  0.00     0.008 A 
HETATM   18  C   UNL     1      40.729  40.367  65.023  1.00  0.00     0.008 A 
HETATM   19  C   UNL     1      40.355  39.187  64.365  1.00  0.00    -0.055 A 
HETATM   20  C   UNL     1      39.612  39.289  63.181  1.00  0.00     0.008 A 
HETATM   21  C   UNL     1      39.268  40.539  62.657  1.00  0.00     0.008 A 
BRANCH  19  22
HETATM   22  C   UNL     1      40.773  37.843  64.934  1.00  0.00     0.010 C 
HETATM   23  C   UNL     1      42.232  37.517  64.610  1.00  0.00     0.015 C 
HETATM   24  C   UNL     1      40.520  37.777  66.443  1.00  0.00     0.015 C 
ENDBRANCH  19  22
ENDBRANCH  15  16
ENDBRANCH  12  15
BRANCH   8  25
HETATM   25  C   UNL     1      37.831  49.340  66.600  1.00  0.00     0.055 A 
HETATM   26  C   UNL     1      37.454  49.448  67.946  1.00  0.00     0.034 A 
HETATM   27  C   UNL     1      37.233  50.700  68.532  1.00  0.00     0.044 A 
HETATM   28  C   UNL     1      37.392  51.850  67.774  1.00  0.00     0.116 A 
HETATM   29  F   UNL     1      37.183  53.049  68.334  1.00  0.00    -0.206 F 
HETATM   30  C   UNL     1      37.770  51.774  66.441  1.00  0.00     0.044 A 
HETATM   31  C   UNL     1      37.989  50.523  65.856  1.00  0.00     0.034 A 
ENDBRANCH   8  25
TORSDOF 4
ENDMDL
