MODEL 1
REMARK VINA RESULT:      -8.9      0.000      0.000
REMARK  8 active torsions:
REMARK  status: ('A' for Active; 'I' for Inactive)
REMARK    1  A    between atoms: N_2  and  C_4 
REMARK    2  A    between atoms: C_4  and  C_5 
REMARK    3  A    between atoms: C_5  and  N_6 
REMARK       I    between atoms: N_6  and  C_7 
REMARK    4  A    between atoms: N_6  and  C_23 
REMARK       I    between atoms: C_7  and  N_8 
REMARK    5  A    between atoms: N_8  and  C_9 
REMARK    6  A    between atoms: C_11  and  O_12 
REMARK    7  A    between atoms: O_12  and  C_13 
REMARK    8  A    between atoms: C_23  and  C_24 
ROOT
HETATM    1  N   UNL     1      25.926  45.156  51.389  1.00  0.00    -0.328 N 
HETATM    2  C   UNL     1      25.586  45.835  50.214  1.00  0.00     0.323 C 
HETATM    3  N   UNL     1      25.075  47.093  50.423  1.00  0.00    -0.309 N 
HETATM    4  O   UNL     1      25.797  45.313  49.123  1.00  0.00    -0.247 OA
HETATM    5  H   UNL     1      25.104  47.433  51.372  1.00  0.00     0.170 HD
ENDROOT
BRANCH   1   6
HETATM    6  C   UNL     1      26.764  43.968  51.267  1.00  0.00     0.155 C 
BRANCH   6   7
HETATM    7  C   UNL     1      25.960  42.658  51.281  1.00  0.00     0.254 C 
BRANCH   7   8
HETATM    8  N   UNL     1      26.842  41.473  51.657  1.00  0.00    -0.077 N 
HETATM    9  C   UNL     1      28.235  41.886  52.052  1.00  0.00     0.269 C 
HETATM   10  H   UNL     1      26.420  41.009  52.473  1.00  0.00     0.279 HD
HETATM   11  C   UNL     1      26.874  40.438  50.563  1.00  0.00     0.269 C 
ENDBRANCH   7   8
ENDBRANCH   6   7
ENDBRANCH   1   6
BRANCH   1  12
HETATM   12  C   UNL     1      25.423  45.496  52.726  1.00  0.00     0.166 C 
BRANCH  12  13
HETATM   13  C   UNL     1      26.491  45.888  53.720  1.00  0.00    -0.040 A 
HETATM   14  C   UNL     1      27.230  44.945  54.451  1.00  0.00     0.009 A 
HETATM   15  C   UNL     1      28.249  45.354  55.313  1.00  0.00     0.001 A 
HETATM   16  C   UNL     1      28.531  46.708  55.468  1.00  0.00     0.000 A 
HETATM   17  C   UNL     1      27.789  47.656  54.770  1.00  0.00     0.001 A 
HETATM   18  C   UNL     1      26.773  47.250  53.904  1.00  0.00     0.009 A 
ENDBRANCH  12  13
ENDBRANCH   1  12
BRANCH   3  19
HETATM   19  C   UNL     1      24.770  48.096  49.481  1.00  0.00     0.042 A 
HETATM   20  C   UNL     1      23.437  48.166  49.071  1.00  0.00     0.087 A 
HETATM   21  C   UNL     1      23.061  49.147  48.168  1.00  0.00     0.171 A 
HETATM   22  N   UNL     1      23.922  50.043  47.650  1.00  0.00    -0.237 NA
HETATM   23  C   UNL     1      25.208  49.952  48.060  1.00  0.00     0.122 A 
HETATM   24  C   UNL     1      25.678  49.008  48.965  1.00  0.00     0.049 A 
BRANCH  21  25
HETATM   25  O   UNL     1      21.708  49.144  47.843  1.00  0.00    -0.292 OA
BRANCH  25  26
HETATM   26  C   UNL     1      20.848  49.912  48.583  1.00  0.00     0.077 A 
HETATM   27  C   UNL     1      20.073  49.380  49.612  1.00  0.00     0.037 A 
HETATM   28  C   UNL     1      19.123  50.182  50.247  1.00  0.00     0.003 A 
HETATM   29  C   UNL     1      18.936  51.503  49.838  1.00  0.00     0.000 A 
HETATM   30  C   UNL     1      19.698  52.027  48.793  1.00  0.00     0.003 A 
HETATM   31  C   UNL     1      20.649  51.227  48.159  1.00  0.00     0.037 A 
ENDBRANCH  25  26
ENDBRANCH  21  25
ENDBRANCH   3  19
TORSDOF 8
ENDMDL
MODEL 2
REMARK VINA RESULT:      -8.6      2.535      8.497
REMARK  8 active torsions:
REMARK  status: ('A' for Active; 'I' for Inactive)
REMARK    1  A    between atoms: N_2  and  C_4 
REMARK    2  A    between atoms: C_4  and  C_5 
REMARK    3  A    between atoms: C_5  and  N_6 
REMARK       I    between atoms: N_6  and  C_7 
REMARK    4  A    between atoms: N_6  and  C_23 
REMARK       I    between atoms: C_7  and  N_8 
REMARK    5  A    between atoms: N_8  and  C_9 
REMARK    6  A    between atoms: C_11  and  O_12 
REMARK    7  A    between atoms: O_12  and  C_13 
REMARK    8  A    between atoms: C_23  and  C_24 
ROOT
HETATM    1  N   UNL     1      20.471  48.247  48.772  1.00  0.00    -0.328 N 
HETATM    2  C   UNL     1      21.805  48.236  48.351  1.00  0.00     0.323 C 
HETATM    3  N   UNL     1      22.697  48.658  49.307  1.00  0.00    -0.309 N 
HETATM    4  O   UNL     1      22.088  47.829  47.228  1.00  0.00    -0.247 OA
HETATM    5  H   UNL     1      22.319  48.818  50.228  1.00  0.00     0.170 HD
ENDROOT
BRANCH   1   6
HETATM    6  C   UNL     1      19.498  47.522  47.961  1.00  0.00     0.155 C 
BRANCH   6   7
HETATM    7  C   UNL     1      19.294  46.069  48.419  1.00  0.00     0.254 C 
BRANCH   7   8
HETATM    8  N   UNL     1      17.841  45.639  48.257  1.00  0.00    -0.077 N 
HETATM    9  C   UNL     1      17.550  45.070  46.892  1.00  0.00     0.269 C 
HETATM   10  H   UNL     1      17.651  44.894  48.942  1.00  0.00     0.279 HD
HETATM   11  C   UNL     1      16.891  46.759  48.590  1.00  0.00     0.269 C 
ENDBRANCH   7   8
ENDBRANCH   6   7
ENDBRANCH   1   6
BRANCH   1  12
HETATM   12  C   UNL     1      19.963  49.012  49.917  1.00  0.00     0.166 C 
BRANCH  12  13
HETATM   13  C   UNL     1      19.328  50.336  49.558  1.00  0.00    -0.040 A 
HETATM   14  C   UNL     1      19.960  51.283  48.738  1.00  0.00     0.009 A 
HETATM   15  C   UNL     1      19.307  52.465  48.384  1.00  0.00     0.001 A 
HETATM   16  C   UNL     1      18.025  52.724  48.858  1.00  0.00     0.000 A 
HETATM   17  C   UNL     1      17.395  51.807  49.694  1.00  0.00     0.001 A 
HETATM   18  C   UNL     1      18.043  50.622  50.046  1.00  0.00     0.009 A 
ENDBRANCH  12  13
ENDBRANCH   1  12
BRANCH   3  19
HETATM   19  C   UNL     1      24.106  48.636  49.279  1.00  0.00     0.042 A 
HETATM   20  C   UNL     1      24.714  47.543  49.898  1.00  0.00     0.087 A 
HETATM   21  C   UNL     1      26.095  47.444  49.884  1.00  0.00     0.171 A 
HETATM   22  N   UNL     1      26.896  48.359  49.305  1.00  0.00    -0.237 NA
HETATM   23  C   UNL     1      26.283  49.411  48.715  1.00  0.00     0.122 A 
HETATM   24  C   UNL     1      24.906  49.593  48.673  1.00  0.00     0.049 A 
BRANCH  21  25
HETATM   25  O   UNL     1      26.599  46.306  50.509  1.00  0.00    -0.292 OA
BRANCH  25  26
HETATM   26  C   UNL     1      26.171  46.003  51.774  1.00  0.00     0.077 A 
HETATM   27  C   UNL     1      26.291  46.899  52.835  1.00  0.00     0.037 A 
HETATM   28  C   UNL     1      25.955  46.490  54.126  1.00  0.00     0.003 A 
HETATM   29  C   UNL     1      25.521  45.183  54.356  1.00  0.00     0.000 A 
HETATM   30  C   UNL     1      25.422  44.282  53.296  1.00  0.00     0.003 A 
HETATM   31  C   UNL     1      25.756  44.690  52.005  1.00  0.00     0.037 A 
ENDBRANCH  25  26
ENDBRANCH  21  25
ENDBRANCH   3  19
TORSDOF 8
ENDMDL
MODEL 3
REMARK VINA RESULT:      -8.2      2.553      8.636
REMARK  8 active torsions:
REMARK  status: ('A' for Active; 'I' for Inactive)
REMARK    1  A    between atoms: N_2  and  C_4 
REMARK    2  A    between atoms: C_4  and  C_5 
REMARK    3  A    between atoms: C_5  and  N_6 
REMARK       I    between atoms: N_6  and  C_7 
REMARK    4  A    between atoms: N_6  and  C_23 
REMARK       I    between atoms: C_7  and  N_8 
REMARK    5  A    between atoms: N_8  and  C_9 
REMARK    6  A    between atoms: C_11  and  O_12 
REMARK    7  A    between atoms: O_12  and  C_13 
REMARK    8  A    between atoms: C_23  and  C_24 
ROOT
HETATM    1  N   UNL     1      23.865  46.159  49.257  1.00  0.00    -0.328 N 
HETATM    2  C   UNL     1      24.630  44.989  49.204  1.00  0.00     0.323 C 
HETATM    3  N   UNL     1      25.487  44.832  50.265  1.00  0.00    -0.309 N 
HETATM    4  O   UNL     1      24.465  44.193  48.284  1.00  0.00    -0.247 OA
HETATM    5  H   UNL     1      25.396  45.502  51.014  1.00  0.00     0.170 HD
ENDROOT
BRANCH   1   6
HETATM    6  C   UNL     1      22.713  46.257  48.366  1.00  0.00     0.155 C 
BRANCH   6   7
HETATM    7  C   UNL     1      21.701  47.328  48.804  1.00  0.00     0.254 C 
BRANCH   7   8
HETATM    8  N   UNL     1      20.320  46.722  49.030  1.00  0.00    -0.077 N 
HETATM    9  C   UNL     1      20.268  45.253  48.699  1.00  0.00     0.269 C 
HETATM   10  H   UNL     1      20.091  46.815  50.029  1.00  0.00     0.279 HD
HETATM   11  C   UNL     1      19.253  47.482  48.287  1.00  0.00     0.269 C 
ENDBRANCH   7   8
ENDBRANCH   6   7
ENDBRANCH   1   6
BRANCH   1  12
HETATM   12  C   UNL     1      24.191  47.334  50.075  1.00  0.00     0.166 C 
BRANCH  12  13
HETATM   13  C   UNL     1      25.219  48.259  49.467  1.00  0.00    -0.040 A 
HETATM   14  C   UNL     1      24.877  49.311  48.602  1.00  0.00     0.009 A 
HETATM   15  C   UNL     1      25.856  50.177  48.115  1.00  0.00     0.001 A 
HETATM   16  C   UNL     1      27.190  49.994  48.469  1.00  0.00     0.000 A 
HETATM   17  C   UNL     1      27.548  48.940  49.303  1.00  0.00     0.001 A 
HETATM   18  C   UNL     1      26.570  48.075  49.797  1.00  0.00     0.009 A 
ENDBRANCH  12  13
ENDBRANCH   1  12
BRANCH   3  19
HETATM   19  C   UNL     1      26.286  43.722  50.607  1.00  0.00     0.042 A 
HETATM   20  C   UNL     1      26.499  43.517  51.971  1.00  0.00     0.087 A 
HETATM   21  C   UNL     1      27.251  42.429  52.379  1.00  0.00     0.171 A 
HETATM   22  N   UNL     1      27.803  41.549  51.521  1.00  0.00    -0.237 NA
HETATM   23  C   UNL     1      27.586  41.771  50.205  1.00  0.00     0.122 A 
HETATM   24  C   UNL     1      26.841  42.831  49.701  1.00  0.00     0.049 A 
BRANCH  21  25
HETATM   25  O   UNL     1      27.385  42.304  53.759  1.00  0.00    -0.292 OA
BRANCH  25  26
HETATM   26  C   UNL     1      28.274  43.114  54.413  1.00  0.00     0.077 A 
HETATM   27  C   UNL     1      27.947  44.409  54.813  1.00  0.00     0.037 A 
HETATM   28  C   UNL     1      28.931  45.232  55.361  1.00  0.00     0.003 A 
HETATM   29  C   UNL     1      30.242  44.768  55.488  1.00  0.00     0.000 A 
HETATM   30  C   UNL     1      30.572  43.480  55.067  1.00  0.00     0.003 A 
HETATM   31  C   UNL     1      29.588  42.655  54.520  1.00  0.00     0.037 A 
ENDBRANCH  25  26
ENDBRANCH  21  25
ENDBRANCH   3  19
TORSDOF 8
ENDMDL
MODEL 4
REMARK VINA RESULT:      -8.1      1.656      2.350
REMARK  8 active torsions:
REMARK  status: ('A' for Active; 'I' for Inactive)
REMARK    1  A    between atoms: N_2  and  C_4 
REMARK    2  A    between atoms: C_4  and  C_5 
REMARK    3  A    between atoms: C_5  and  N_6 
REMARK       I    between atoms: N_6  and  C_7 
REMARK    4  A    between atoms: N_6  and  C_23 
REMARK       I    between atoms: C_7  and  N_8 
REMARK    5  A    between atoms: N_8  and  C_9 
REMARK    6  A    between atoms: C_11  and  O_12 
REMARK    7  A    between atoms: O_12  and  C_13 
REMARK    8  A    between atoms: C_23  and  C_24 
ROOT
HETATM    1  N   UNL     1      26.840  44.297  51.552  1.00  0.00    -0.328 N 
HETATM    2  C   UNL     1      26.516  45.135  50.479  1.00  0.00     0.323 C 
HETATM    3  N   UNL     1      26.047  46.370  50.854  1.00  0.00    -0.309 N 
HETATM    4  O   UNL     1      26.704  44.752  49.327  1.00  0.00    -0.247 OA
HETATM    5  H   UNL     1      26.092  46.582  51.839  1.00  0.00     0.170 HD
ENDROOT
BRANCH   1   6
HETATM    6  C   UNL     1      27.639  43.110  51.268  1.00  0.00     0.155 C 
BRANCH   6   7
HETATM    7  C   UNL     1      26.829  41.805  51.347  1.00  0.00     0.254 C 
BRANCH   7   8
HETATM    8  N   UNL     1      27.729  40.616  51.664  1.00  0.00    -0.077 N 
HETATM    9  C   UNL     1      28.799  40.948  52.671  1.00  0.00     0.269 C 
HETATM   10  H   UNL     1      27.144  39.876  52.077  1.00  0.00     0.279 HD
HETATM   11  C   UNL     1      28.326  40.024  50.415  1.00  0.00     0.269 C 
ENDBRANCH   7   8
ENDBRANCH   6   7
ENDBRANCH   1   6
BRANCH   1  12
HETATM   12  C   UNL     1      26.355  44.476  52.926  1.00  0.00     0.166 C 
BRANCH  12  13
HETATM   13  C   UNL     1      27.353  45.107  53.869  1.00  0.00    -0.040 A 
HETATM   14  C   UNL     1      27.287  46.457  54.251  1.00  0.00     0.009 A 
HETATM   15  C   UNL     1      28.196  46.979  55.174  1.00  0.00     0.001 A 
HETATM   16  C   UNL     1      29.191  46.168  55.711  1.00  0.00     0.000 A 
HETATM   17  C   UNL     1      29.286  44.835  55.321  1.00  0.00     0.001 A 
HETATM   18  C   UNL     1      28.376  44.308  54.403  1.00  0.00     0.009 A 
ENDBRANCH  12  13
ENDBRANCH   1  12
BRANCH   3  19
HETATM   19  C   UNL     1      25.769  47.496  50.054  1.00  0.00     0.042 A 
HETATM   20  C   UNL     1      24.426  47.866  49.963  1.00  0.00     0.087 A 
HETATM   21  C   UNL     1      24.084  48.981  49.216  1.00  0.00     0.171 A 
HETATM   22  N   UNL     1      24.986  49.733  48.556  1.00  0.00    -0.237 NA
HETATM   23  C   UNL     1      26.280  49.352  48.657  1.00  0.00     0.122 A 
HETATM   24  C   UNL     1      26.719  48.254  49.387  1.00  0.00     0.049 A 
BRANCH  21  25
HETATM   25  O   UNL     1      22.724  49.276  49.208  1.00  0.00    -0.292 OA
BRANCH  25  26
HETATM   26  C   UNL     1      21.851  48.353  48.697  1.00  0.00     0.077 A 
HETATM   27  C   UNL     1      22.175  47.543  47.610  1.00  0.00     0.037 A 
HETATM   28  C   UNL     1      21.202  46.712  47.053  1.00  0.00     0.003 A 
HETATM   29  C   UNL     1      19.905  46.707  47.570  1.00  0.00     0.000 A 
HETATM   30  C   UNL     1      19.577  47.534  48.645  1.00  0.00     0.003 A 
HETATM   31  C   UNL     1      20.549  48.365  49.203  1.00  0.00     0.037 A 
ENDBRANCH  25  26
ENDBRANCH  21  25
ENDBRANCH   3  19
TORSDOF 8
ENDMDL
MODEL 5
REMARK VINA RESULT:      -8.0      2.201      8.922
REMARK  8 active torsions:
REMARK  status: ('A' for Active; 'I' for Inactive)
REMARK    1  A    between atoms: N_2  and  C_4 
REMARK    2  A    between atoms: C_4  and  C_5 
REMARK    3  A    between atoms: C_5  and  N_6 
REMARK       I    between atoms: N_6  and  C_7 
REMARK    4  A    between atoms: N_6  and  C_23 
REMARK       I    between atoms: C_7  and  N_8 
REMARK    5  A    between atoms: N_8  and  C_9 
REMARK    6  A    between atoms: C_11  and  O_12 
REMARK    7  A    between atoms: O_12  and  C_13 
REMARK    8  A    between atoms: C_23  and  C_24 
ROOT
HETATM    1  N   UNL     1      21.917  48.022  48.793  1.00  0.00    -0.328 N 
HETATM    2  C   UNL     1      22.852  46.982  48.840  1.00  0.00     0.323 C 
HETATM    3  N   UNL     1      23.818  47.141  49.804  1.00  0.00    -0.309 N 
HETATM    4  O   UNL     1      22.732  46.018  48.089  1.00  0.00    -0.247 OA
HETATM    5  H   UNL     1      23.690  47.914  50.438  1.00  0.00     0.170 HD
ENDROOT
BRANCH   1   6
HETATM    6  C   UNL     1      20.687  47.794  48.041  1.00  0.00     0.155 C 
BRANCH   6   7
HETATM    7  C   UNL     1      19.689  46.887  48.779  1.00  0.00     0.254 C 
BRANCH   7   8
HETATM    8  N   UNL     1      18.250  47.300  48.490  1.00  0.00    -0.077 N 
HETATM    9  C   UNL     1      17.373  46.134  48.116  1.00  0.00     0.269 C 
HETATM   10  H   UNL     1      17.858  47.711  49.349  1.00  0.00     0.279 HD
HETATM   11  C   UNL     1      18.184  48.383  47.446  1.00  0.00     0.269 C 
ENDBRANCH   7   8
ENDBRANCH   6   7
ENDBRANCH   1   6
BRANCH   1  12
HETATM   12  C   UNL     1      22.125  49.358  49.364  1.00  0.00     0.166 C 
BRANCH  12  13
HETATM   13  C   UNL     1      20.910  50.257  49.322  1.00  0.00    -0.040 A 
HETATM   14  C   UNL     1      19.862  50.160  50.251  1.00  0.00     0.009 A 
HETATM   15  C   UNL     1      18.790  51.053  50.209  1.00  0.00     0.001 A 
HETATM   16  C   UNL     1      18.742  52.041  49.230  1.00  0.00     0.000 A 
HETATM   17  C   UNL     1      19.760  52.133  48.285  1.00  0.00     0.001 A 
HETATM   18  C   UNL     1      20.836  51.244  48.328  1.00  0.00     0.009 A 
ENDBRANCH  12  13
ENDBRANCH   1  12
BRANCH   3  19
HETATM   19  C   UNL     1      24.812  46.235  50.224  1.00  0.00     0.042 A 
HETATM   20  C   UNL     1      24.881  45.995  51.597  1.00  0.00     0.087 A 
HETATM   21  C   UNL     1      25.817  45.094  52.077  1.00  0.00     0.171 A 
HETATM   22  N   UNL     1      26.681  44.434  51.283  1.00  0.00    -0.237 NA
HETATM   23  C   UNL     1      26.597  44.686  49.957  1.00  0.00     0.122 A 
HETATM   24  C   UNL     1      25.689  45.568  49.382  1.00  0.00     0.049 A 
BRANCH  21  25
HETATM   25  O   UNL     1      25.788  44.911  53.456  1.00  0.00    -0.292 OA
BRANCH  25  26
HETATM   26  C   UNL     1      26.839  45.366  54.206  1.00  0.00     0.077 A 
HETATM   27  C   UNL     1      27.032  46.721  54.473  1.00  0.00     0.037 A 
HETATM   28  C   UNL     1      28.189  47.137  55.133  1.00  0.00     0.003 A 
HETATM   29  C   UNL     1      29.157  46.203  55.506  1.00  0.00     0.000 A 
HETATM   30  C   UNL     1      28.973  44.851  55.218  1.00  0.00     0.003 A 
HETATM   31  C   UNL     1      27.816  44.433  54.560  1.00  0.00     0.037 A 
ENDBRANCH  25  26
ENDBRANCH  21  25
ENDBRANCH   3  19
TORSDOF 8
ENDMDL
MODEL 6
REMARK VINA RESULT:      -7.9      2.058      2.930
REMARK  8 active torsions:
REMARK  status: ('A' for Active; 'I' for Inactive)
REMARK    1  A    between atoms: N_2  and  C_4 
REMARK    2  A    between atoms: C_4  and  C_5 
REMARK    3  A    between atoms: C_5  and  N_6 
REMARK       I    between atoms: N_6  and  C_7 
REMARK    4  A    between atoms: N_6  and  C_23 
REMARK       I    between atoms: C_7  and  N_8 
REMARK    5  A    between atoms: N_8  and  C_9 
REMARK    6  A    between atoms: C_11  and  O_12 
REMARK    7  A    between atoms: O_12  and  C_13 
REMARK    8  A    between atoms: C_23  and  C_24 
ROOT
HETATM    1  N   UNL     1      26.369  42.990  51.102  1.00  0.00    -0.328 N 
HETATM    2  C   UNL     1      25.124  43.579  50.854  1.00  0.00     0.323 C 
HETATM    3  N   UNL     1      25.196  44.779  50.189  1.00  0.00    -0.309 N 
HETATM    4  O   UNL     1      24.096  42.997  51.186  1.00  0.00    -0.247 OA
HETATM    5  H   UNL     1      26.108  45.049  49.855  1.00  0.00     0.170 HD
ENDROOT
BRANCH   1   6
HETATM    6  C   UNL     1      26.387  41.586  51.502  1.00  0.00     0.155 C 
BRANCH   6   7
HETATM    7  C   UNL     1      26.289  40.619  50.311  1.00  0.00     0.254 C 
BRANCH   7   8
HETATM    8  N   UNL     1      27.189  39.405  50.511  1.00  0.00    -0.077 N 
HETATM    9  C   UNL     1      28.653  39.760  50.516  1.00  0.00     0.269 C 
HETATM   10  H   UNL     1      26.973  38.998  51.432  1.00  0.00     0.279 HD
HETATM   11  C   UNL     1      26.897  38.327  49.502  1.00  0.00     0.269 C 
ENDBRANCH   7   8
ENDBRANCH   6   7
ENDBRANCH   1   6
BRANCH   1  12
HETATM   12  C   UNL     1      27.651  43.705  51.081  1.00  0.00     0.166 C 
BRANCH  12  13
HETATM   13  C   UNL     1      28.379  43.731  52.405  1.00  0.00    -0.040 A 
HETATM   14  C   UNL     1      27.900  44.434  53.521  1.00  0.00     0.009 A 
HETATM   15  C   UNL     1      28.576  44.376  54.741  1.00  0.00     0.001 A 
HETATM   16  C   UNL     1      29.746  43.633  54.857  1.00  0.00     0.000 A 
HETATM   17  C   UNL     1      30.249  42.952  53.752  1.00  0.00     0.001 A 
HETATM   18  C   UNL     1      29.572  43.003  52.532  1.00  0.00     0.009 A 
ENDBRANCH  12  13
ENDBRANCH   1  12
BRANCH   3  19
HETATM   19  C   UNL     1      24.154  45.563  49.655  1.00  0.00     0.042 A 
HETATM   20  C   UNL     1      24.225  46.933  49.913  1.00  0.00     0.087 A 
HETATM   21  C   UNL     1      23.248  47.768  49.395  1.00  0.00     0.171 A 
HETATM   22  N   UNL     1      22.215  47.324  48.653  1.00  0.00    -0.237 NA
HETATM   23  C   UNL     1      22.167  45.992  48.420  1.00  0.00     0.122 A 
HETATM   24  C   UNL     1      23.102  45.079  48.892  1.00  0.00     0.049 A 
BRANCH  21  25
HETATM   25  O   UNL     1      23.424  49.116  49.691  1.00  0.00    -0.292 OA
BRANCH  25  26
HETATM   26  C   UNL     1      22.422  49.997  49.382  1.00  0.00     0.077 A 
HETATM   27  C   UNL     1      21.510  50.453  50.333  1.00  0.00     0.037 A 
HETATM   28  C   UNL     1      20.435  51.248  49.935  1.00  0.00     0.003 A 
HETATM   29  C   UNL     1      20.262  51.568  48.587  1.00  0.00     0.000 A 
HETATM   30  C   UNL     1      21.163  51.093  47.634  1.00  0.00     0.003 A 
HETATM   31  C   UNL     1      22.239  50.299  48.031  1.00  0.00     0.037 A 
ENDBRANCH  25  26
ENDBRANCH  21  25
ENDBRANCH   3  19
TORSDOF 8
ENDMDL
MODEL 7
REMARK VINA RESULT:      -7.7      2.334      9.322
REMARK  8 active torsions:
REMARK  status: ('A' for Active; 'I' for Inactive)
REMARK    1  A    between atoms: N_2  and  C_4 
REMARK    2  A    between atoms: C_4  and  C_5 
REMARK    3  A    between atoms: C_5  and  N_6 
REMARK       I    between atoms: N_6  and  C_7 
REMARK    4  A    between atoms: N_6  and  C_23 
REMARK       I    between atoms: C_7  and  N_8 
REMARK    5  A    between atoms: N_8  and  C_9 
REMARK    6  A    between atoms: C_11  and  O_12 
REMARK    7  A    between atoms: O_12  and  C_13 
REMARK    8  A    between atoms: C_23  and  C_24 
ROOT
HETATM    1  N   UNL     1      21.960  47.702  48.384  1.00  0.00    -0.328 N 
HETATM    2  C   UNL     1      22.644  46.483  48.456  1.00  0.00     0.323 C 
HETATM    3  N   UNL     1      23.343  46.302  49.624  1.00  0.00    -0.309 N 
HETATM    4  O   UNL     1      22.544  45.671  47.540  1.00  0.00    -0.247 OA
HETATM    5  H   UNL     1      23.203  46.998  50.339  1.00  0.00     0.170 HD
ENDROOT
BRANCH   1   6
HETATM    6  C   UNL     1      20.942  47.848  47.348  1.00  0.00     0.155 C 
BRANCH   6   7
HETATM    7  C   UNL     1      19.651  47.073  47.658  1.00  0.00     0.254 C 
BRANCH   7   8
HETATM    8  N   UNL     1      18.430  47.982  47.578  1.00  0.00    -0.077 N 
HETATM    9  C   UNL     1      17.145  47.216  47.397  1.00  0.00     0.269 C 
HETATM   10  H   UNL     1      18.355  48.493  48.468  1.00  0.00     0.279 HD
HETATM   11  C   UNL     1      18.589  49.031  46.510  1.00  0.00     0.269 C 
ENDBRANCH   7   8
ENDBRANCH   6   7
ENDBRANCH   1   6
BRANCH   1  12
HETATM   12  C   UNL     1      22.258  48.876  49.213  1.00  0.00     0.166 C 
BRANCH  12  13
HETATM   13  C   UNL     1      21.155  49.908  49.263  1.00  0.00    -0.040 A 
HETATM   14  C   UNL     1      21.133  51.037  48.428  1.00  0.00     0.009 A 
HETATM   15  C   UNL     1      20.061  51.929  48.468  1.00  0.00     0.001 A 
HETATM   16  C   UNL     1      19.007  51.717  49.352  1.00  0.00     0.000 A 
HETATM   17  C   UNL     1      19.027  50.617  50.205  1.00  0.00     0.001 A 
HETATM   18  C   UNL     1      20.096  49.719  50.164  1.00  0.00     0.009 A 
ENDBRANCH  12  13
ENDBRANCH   1  12
BRANCH   3  19
HETATM   19  C   UNL     1      24.013  45.153  50.090  1.00  0.00     0.042 A 
HETATM   20  C   UNL     1      25.379  45.298  50.337  1.00  0.00     0.087 A 
HETATM   21  C   UNL     1      26.094  44.216  50.824  1.00  0.00     0.171 A 
HETATM   22  N   UNL     1      25.540  43.013  51.067  1.00  0.00    -0.237 NA
HETATM   23  C   UNL     1      24.216  42.896  50.816  1.00  0.00     0.122 A 
HETATM   24  C   UNL     1      23.416  43.925  50.333  1.00  0.00     0.049 A 
BRANCH  21  25
HETATM   25  O   UNL     1      27.442  44.473  51.057  1.00  0.00    -0.292 OA
BRANCH  25  26
HETATM   26  C   UNL     1      27.995  44.076  52.245  1.00  0.00     0.077 A 
HETATM   27  C   UNL     1      27.641  44.659  53.462  1.00  0.00     0.037 A 
HETATM   28  C   UNL     1      28.328  44.303  54.624  1.00  0.00     0.003 A 
HETATM   29  C   UNL     1      29.377  43.385  54.564  1.00  0.00     0.000 A 
HETATM   30  C   UNL     1      29.743  42.819  53.342  1.00  0.00     0.003 A 
HETATM   31  C   UNL     1      29.057  43.173  52.180  1.00  0.00     0.037 A 
ENDBRANCH  25  26
ENDBRANCH  21  25
ENDBRANCH   3  19
TORSDOF 8
ENDMDL
MODEL 8
REMARK VINA RESULT:      -7.5      2.974      8.847
REMARK  8 active torsions:
REMARK  status: ('A' for Active; 'I' for Inactive)
REMARK    1  A    between atoms: N_2  and  C_4 
REMARK    2  A    between atoms: C_4  and  C_5 
REMARK    3  A    between atoms: C_5  and  N_6 
REMARK       I    between atoms: N_6  and  C_7 
REMARK    4  A    between atoms: N_6  and  C_23 
REMARK       I    between atoms: C_7  and  N_8 
REMARK    5  A    between atoms: N_8  and  C_9 
REMARK    6  A    between atoms: C_11  and  O_12 
REMARK    7  A    between atoms: O_12  and  C_13 
REMARK    8  A    between atoms: C_23  and  C_24 
ROOT
HETATM    1  N   UNL     1      20.747  46.539  48.331  1.00  0.00    -0.328 N 
HETATM    2  C   UNL     1      21.513  45.487  48.845  1.00  0.00     0.323 C 
HETATM    3  N   UNL     1      22.856  45.761  48.929  1.00  0.00    -0.309 N 
HETATM    4  O   UNL     1      20.963  44.454  49.215  1.00  0.00    -0.247 OA
HETATM    5  H   UNL     1      23.130  46.710  48.723  1.00  0.00     0.170 HD
ENDROOT
BRANCH   1   6
HETATM    6  C   UNL     1      19.300  46.471  48.505  1.00  0.00     0.155 C 
BRANCH   6   7
HETATM    7  C   UNL     1      18.553  46.121  47.207  1.00  0.00     0.254 C 
BRANCH   7   8
HETATM    8  N   UNL     1      17.069  46.450  47.320  1.00  0.00    -0.077 N 
HETATM    9  C   UNL     1      16.587  47.353  46.214  1.00  0.00     0.269 C 
HETATM   10  H   UNL     1      16.541  45.569  47.242  1.00  0.00     0.279 HD
HETATM   11  C   UNL     1      16.728  47.020  48.671  1.00  0.00     0.269 C 
ENDBRANCH   7   8
ENDBRANCH   6   7
ENDBRANCH   1   6
BRANCH   1  12
HETATM   12  C   UNL     1      21.284  47.658  47.547  1.00  0.00     0.166 C 
BRANCH  12  13
HETATM   13  C   UNL     1      20.876  49.026  48.041  1.00  0.00    -0.040 A 
HETATM   14  C   UNL     1      21.381  49.588  49.224  1.00  0.00     0.009 A 
HETATM   15  C   UNL     1      21.021  50.881  49.607  1.00  0.00     0.001 A 
HETATM   16  C   UNL     1      20.139  51.621  48.825  1.00  0.00     0.000 A 
HETATM   17  C   UNL     1      19.608  51.068  47.663  1.00  0.00     0.001 A 
HETATM   18  C   UNL     1      19.971  49.777  47.275  1.00  0.00     0.009 A 
ENDBRANCH  12  13
ENDBRANCH   1  12
BRANCH   3  19
HETATM   19  C   UNL     1      23.884  45.002  49.523  1.00  0.00     0.042 A 
HETATM   20  C   UNL     1      23.988  45.095  50.912  1.00  0.00     0.087 A 
HETATM   21  C   UNL     1      24.958  44.353  51.566  1.00  0.00     0.171 A 
HETATM   22  N   UNL     1      25.823  43.543  50.927  1.00  0.00    -0.237 NA
HETATM   23  C   UNL     1      25.705  43.473  49.582  1.00  0.00     0.122 A 
HETATM   24  C   UNL     1      24.761  44.173  48.840  1.00  0.00     0.049 A 
BRANCH  21  25
HETATM   25  O   UNL     1      24.963  44.501  52.950  1.00  0.00    -0.292 OA
BRANCH  25  26
HETATM   26  C   UNL     1      26.009  45.159  53.541  1.00  0.00     0.077 A 
HETATM   27  C   UNL     1      27.050  44.483  54.177  1.00  0.00     0.037 A 
HETATM   28  C   UNL     1      28.021  45.207  54.870  1.00  0.00     0.003 A 
HETATM   29  C   UNL     1      27.938  46.598  54.944  1.00  0.00     0.000 A 
HETATM   30  C   UNL     1      26.884  47.270  54.325  1.00  0.00     0.003 A 
HETATM   31  C   UNL     1      25.914  46.549  53.630  1.00  0.00     0.037 A 
ENDBRANCH  25  26
ENDBRANCH  21  25
ENDBRANCH   3  19
TORSDOF 8
ENDMDL
MODEL 9
REMARK VINA RESULT:      -7.4      3.197      8.779
REMARK  8 active torsions:
REMARK  status: ('A' for Active; 'I' for Inactive)
REMARK    1  A    between atoms: N_2  and  C_4 
REMARK    2  A    between atoms: C_4  and  C_5 
REMARK    3  A    between atoms: C_5  and  N_6 
REMARK       I    between atoms: N_6  and  C_7 
REMARK    4  A    between atoms: N_6  and  C_23 
REMARK       I    between atoms: C_7  and  N_8 
REMARK    5  A    between atoms: N_8  and  C_9 
REMARK    6  A    between atoms: C_11  and  O_12 
REMARK    7  A    between atoms: O_12  and  C_13 
REMARK    8  A    between atoms: C_23  and  C_24 
ROOT
HETATM    1  N   UNL     1      19.679  47.412  48.161  1.00  0.00    -0.328 N 
HETATM    2  C   UNL     1      20.832  46.710  47.791  1.00  0.00     0.323 C 
HETATM    3  N   UNL     1      21.638  46.360  48.846  1.00  0.00    -0.309 N 
HETATM    4  O   UNL     1      21.020  46.423  46.612  1.00  0.00    -0.247 OA
HETATM    5  H   UNL     1      21.268  46.540  49.767  1.00  0.00     0.170 HD
ENDROOT
BRANCH   1   6
HETATM    6  C   UNL     1      18.616  47.540  47.170  1.00  0.00     0.155 C 
BRANCH   6   7
HETATM    7  C   UNL     1      17.317  46.831  47.585  1.00  0.00     0.254 C 
BRANCH   7   8
HETATM    8  N   UNL     1      16.867  45.838  46.520  1.00  0.00    -0.077 N 
HETATM    9  C   UNL     1      17.823  44.685  46.357  1.00  0.00     0.269 C 
HETATM   10  H   UNL     1      15.963  45.442  46.815  1.00  0.00     0.279 HD
HETATM   11  C   UNL     1      16.610  46.518  45.201  1.00  0.00     0.269 C 
ENDBRANCH   7   8
ENDBRANCH   6   7
ENDBRANCH   1   6
BRANCH   1  12
HETATM   12  C   UNL     1      19.502  48.110  49.441  1.00  0.00     0.166 C 
BRANCH  12  13
HETATM   13  C   UNL     1      19.344  49.608  49.324  1.00  0.00    -0.040 A 
HETATM   14  C   UNL     1      20.268  50.418  48.645  1.00  0.00     0.009 A 
HETATM   15  C   UNL     1      20.047  51.790  48.512  1.00  0.00     0.001 A 
HETATM   16  C   UNL     1      18.912  52.372  49.068  1.00  0.00     0.000 A 
HETATM   17  C   UNL     1      18.000  51.587  49.768  1.00  0.00     0.001 A 
HETATM   18  C   UNL     1      18.216  50.214  49.899  1.00  0.00     0.009 A 
ENDBRANCH  12  13
ENDBRANCH   1  12
BRANCH   3  19
HETATM   19  C   UNL     1      22.781  45.536  48.857  1.00  0.00     0.042 A 
HETATM   20  C   UNL     1      23.918  46.074  49.464  1.00  0.00     0.087 A 
HETATM   21  C   UNL     1      25.069  45.308  49.535  1.00  0.00     0.171 A 
HETATM   22  N   UNL     1      25.158  44.059  49.037  1.00  0.00    -0.237 NA
HETATM   23  C   UNL     1      24.045  43.562  48.451  1.00  0.00     0.122 A 
HETATM   24  C   UNL     1      22.843  44.252  48.338  1.00  0.00     0.049 A 
BRANCH  21  25
HETATM   25  O   UNL     1      26.137  45.928  50.178  1.00  0.00    -0.292 OA
BRANCH  25  26
HETATM   26  C   UNL     1      26.165  45.942  51.547  1.00  0.00     0.077 A 
HETATM   27  C   UNL     1      26.165  44.771  52.304  1.00  0.00     0.037 A 
HETATM   28  C   UNL     1      26.067  44.847  53.694  1.00  0.00     0.003 A 
HETATM   29  C   UNL     1      25.947  46.088  54.321  1.00  0.00     0.000 A 
HETATM   30  C   UNL     1      25.926  47.257  53.560  1.00  0.00     0.003 A 
HETATM   31  C   UNL     1      26.026  47.183  52.171  1.00  0.00     0.037 A 
ENDBRANCH  25  26
ENDBRANCH  21  25
ENDBRANCH   3  19
TORSDOF 8
ENDMDL
MODEL 10
REMARK VINA RESULT:      -7.1      6.826     11.494
REMARK  8 active torsions:
REMARK  status: ('A' for Active; 'I' for Inactive)
REMARK    1  A    between atoms: N_2  and  C_4 
REMARK    2  A    between atoms: C_4  and  C_5 
REMARK    3  A    between atoms: C_5  and  N_6 
REMARK       I    between atoms: N_6  and  C_7 
REMARK    4  A    between atoms: N_6  and  C_23 
REMARK       I    between atoms: C_7  and  N_8 
REMARK    5  A    between atoms: N_8  and  C_9 
REMARK    6  A    between atoms: C_11  and  O_12 
REMARK    7  A    between atoms: O_12  and  C_13 
REMARK    8  A    between atoms: C_23  and  C_24 
ROOT
HETATM    1  N   UNL     1      17.475  50.653  49.296  1.00  0.00    -0.328 N 
HETATM    2  C   UNL     1      16.975  51.935  49.547  1.00  0.00     0.323 C 
HETATM    3  N   UNL     1      15.684  52.126  49.118  1.00  0.00    -0.309 N 
HETATM    4  O   UNL     1      17.666  52.755  50.145  1.00  0.00    -0.247 OA
HETATM    5  H   UNL     1      15.202  51.307  48.779  1.00  0.00     0.170 HD
ENDROOT
BRANCH   1   6
HETATM    6  C   UNL     1      18.695  50.254  49.992  1.00  0.00     0.155 C 
BRANCH   6   7
HETATM    7  C   UNL     1      18.708  48.766  50.380  1.00  0.00     0.254 C 
BRANCH   7   8
HETATM    8  N   UNL     1      19.909  48.049  49.775  1.00  0.00    -0.077 N 
HETATM    9  C   UNL     1      20.930  49.000  49.207  1.00  0.00     0.269 C 
HETATM   10  H   UNL     1      20.374  47.518  50.525  1.00  0.00     0.279 HD
HETATM   11  C   UNL     1      19.487  47.031  48.748  1.00  0.00     0.269 C 
ENDBRANCH   7   8
ENDBRANCH   6   7
ENDBRANCH   1   6
BRANCH   1  12
HETATM   12  C   UNL     1      16.917  49.716  48.314  1.00  0.00     0.166 C 
BRANCH  12  13
HETATM   13  C   UNL     1      17.131  50.113  46.872  1.00  0.00    -0.040 A 
HETATM   14  C   UNL     1      18.404  50.359  46.334  1.00  0.00     0.009 A 
HETATM   15  C   UNL     1      18.556  50.663  44.980  1.00  0.00     0.001 A 
HETATM   16  C   UNL     1      17.441  50.743  44.152  1.00  0.00     0.000 A 
HETATM   17  C   UNL     1      16.170  50.528  44.677  1.00  0.00     0.001 A 
HETATM   18  C   UNL     1      16.014  50.219  46.029  1.00  0.00     0.009 A 
ENDBRANCH  12  13
ENDBRANCH   1  12
BRANCH   3  19
HETATM   19  C   UNL     1      14.829  53.225  49.333  1.00  0.00     0.042 A 
HETATM   20  C   UNL     1      14.426  53.438  50.653  1.00  0.00     0.087 A 
HETATM   21  C   UNL     1      13.607  54.518  50.941  1.00  0.00     0.171 A 
HETATM   22  N   UNL     1      13.166  55.380  50.005  1.00  0.00    -0.237 NA
HETATM   23  C   UNL     1      13.567  55.150  48.734  1.00  0.00     0.122 A 
HETATM   24  C   UNL     1      14.391  54.099  48.350  1.00  0.00     0.049 A 
BRANCH  21  25
HETATM   25  O   UNL     1      13.282  54.653  52.287  1.00  0.00    -0.292 OA
BRANCH  25  26
HETATM   26  C   UNL     1      13.785  55.720  52.984  1.00  0.00     0.077 A 
HETATM   27  C   UNL     1      15.149  56.004  53.029  1.00  0.00     0.037 A 
HETATM   28  C   UNL     1      15.615  57.027  53.857  1.00  0.00     0.003 A 
HETATM   29  C   UNL     1      14.721  57.746  54.652  1.00  0.00     0.000 A 
HETATM   30  C   UNL     1      13.359  57.445  54.623  1.00  0.00     0.003 A 
HETATM   31  C   UNL     1      12.892  56.425  53.794  1.00  0.00     0.037 A 
ENDBRANCH  25  26
ENDBRANCH  21  25
ENDBRANCH   3  19
TORSDOF 8
ENDMDL
