MODEL 1
REMARK VINA RESULT:     -11.4      0.000      0.000
REMARK  6 active torsions:
REMARK  status: ('A' for Active; 'I' for Inactive)
REMARK    1  A    between atoms: C_2  and  N_3 
REMARK    2  A    between atoms: C_2  and  C_32 
REMARK       I    between atoms: N_3  and  C_4 
REMARK    3  A    between atoms: C_4  and  C_5 
REMARK    4  A    between atoms: C_6  and  N_7 
REMARK       I    between atoms: N_7  and  C_8 
REMARK    5  A    between atoms: C_8  and  C_9 
REMARK    6  A    between atoms: C_9  and  N_10 
ROOT
HETATM    1  N   UNL     1      23.389  48.177  49.733  1.00  0.00    -0.325 N 
HETATM    2  C   UNL     1      22.452  48.360  48.721  1.00  0.00     0.240 C 
HETATM    3  O   UNL     1      22.745  48.575  47.545  1.00  0.00    -0.271 OA
HETATM    4  H   UNL     1      23.065  48.457  50.660  1.00  0.00     0.169 HD
ENDROOT
BRANCH   1   5
HETATM    5  C   UNL     1      24.771  48.334  49.483  1.00  0.00     0.050 A 
HETATM    6  C   UNL     1      25.767  47.456  49.952  1.00  0.00     0.058 A 
HETATM    7  C   UNL     1      27.117  47.728  49.672  1.00  0.00     0.019 A 
HETATM    8  C   UNL     1      27.479  48.851  48.927  1.00  0.00     0.001 A 
HETATM    9  C   UNL     1      26.497  49.735  48.490  1.00  0.00     0.002 A 
HETATM   10  C   UNL     1      25.153  49.489  48.783  1.00  0.00     0.030 A 
BRANCH   6  11
HETATM   11  C   UNL     1      25.535  46.359  50.928  1.00  0.00     0.254 C 
HETATM   12  N   UNL     1      26.510  46.133  51.865  1.00  0.00    -0.349 N 
HETATM   13  H   UNL     1      27.276  46.801  51.928  1.00  0.00     0.163 HD
HETATM   14  O   UNL     1      24.475  45.741  50.893  1.00  0.00    -0.268 OA
BRANCH  12  15
HETATM   15  C   UNL     1      26.345  45.156  52.926  1.00  0.00     0.114 C 
HETATM   16  C   UNL     1      25.759  45.808  54.178  1.00  0.00     0.037 C 
BRANCH  15  17
HETATM   17  C   UNL     1      27.655  44.447  53.226  1.00  0.00    -0.036 A 
HETATM   18  C   UNL     1      28.254  43.645  52.240  1.00  0.00     0.009 A 
HETATM   19  C   UNL     1      29.443  42.960  52.500  1.00  0.00     0.001 A 
HETATM   20  C   UNL     1      30.054  43.072  53.746  1.00  0.00     0.000 A 
HETATM   21  C   UNL     1      29.476  43.867  54.733  1.00  0.00     0.001 A 
HETATM   22  C   UNL     1      28.283  44.546  54.478  1.00  0.00     0.009 A 
ENDBRANCH  15  17
ENDBRANCH  12  15
ENDBRANCH   6  11
ENDBRANCH   1   5
BRANCH   2  23
HETATM   23  C   UNL     1      21.005  48.217  49.182  1.00  0.00     0.240 C 
BRANCH  23  24
HETATM   24  N   UNL     1      20.365  49.502  49.380  1.00  0.00    -0.259 N 
HETATM   25  C   UNL     1      20.964  50.606  49.897  1.00  0.00     0.326 C 
HETATM   26  O   UNL     1      22.110  50.719  50.293  1.00  0.00    -0.247 OA
HETATM   27  N   UNL     1      20.049  51.638  49.889  1.00  0.00    -0.324 N 
HETATM   28  C   UNL     1      18.858  51.309  49.123  1.00  0.00     0.120 C 
HETATM   29  H   UNL     1      20.356  52.575  50.125  1.00  0.00     0.165 HD
HETATM   30  C   UNL     1      18.947  51.915  47.716  1.00  0.00     0.080 C 
HETATM   31  C   UNL     1      17.581  51.725  49.839  1.00  0.00     0.046 C 
HETATM   32  C   UNL     1      19.073  49.785  49.046  1.00  0.00     0.257 C 
HETATM   33  C   UNL     1      17.668  51.800  46.928  1.00  0.00    -0.049 A 
HETATM   34  C   UNL     1      16.434  51.576  47.561  1.00  0.00    -0.052 A 
HETATM   35  C   UNL     1      17.714  51.951  45.533  1.00  0.00     0.007 A 
HETATM   36  C   UNL     1      16.323  51.361  49.050  1.00  0.00     0.042 C 
HETATM   37  C   UNL     1      15.272  51.475  46.778  1.00  0.00     0.007 A 
HETATM   38  C   UNL     1      15.333  51.611  45.391  1.00  0.00     0.001 A 
HETATM   39  C   UNL     1      16.553  51.852  44.768  1.00  0.00     0.001 A 
HETATM   40  O   UNL     1      18.248  48.942  48.717  1.00  0.00    -0.270 OA
ENDBRANCH  23  24
ENDBRANCH   2  23
TORSDOF 6
ENDMDL
MODEL 2
REMARK VINA RESULT:     -11.1      2.873      5.153
REMARK  6 active torsions:
REMARK  status: ('A' for Active; 'I' for Inactive)
REMARK    1  A    between atoms: C_2  and  N_3 
REMARK    2  A    between atoms: C_2  and  C_32 
REMARK       I    between atoms: N_3  and  C_4 
REMARK    3  A    between atoms: C_4  and  C_5 
REMARK    4  A    between atoms: C_6  and  N_7 
REMARK       I    between atoms: N_7  and  C_8 
REMARK    5  A    between atoms: C_8  and  C_9 
REMARK    6  A    between atoms: C_9  and  N_10 
ROOT
HETATM    1  N   UNL     1      25.439  44.693  51.592  1.00  0.00    -0.325 N 
HETATM    2  C   UNL     1      25.783  45.874  50.945  1.00  0.00     0.240 C 
HETATM    3  O   UNL     1      26.799  46.014  50.264  1.00  0.00    -0.271 OA
HETATM    4  H   UNL     1      24.878  44.826  52.436  1.00  0.00     0.169 HD
ENDROOT
BRANCH   1   5
HETATM    5  C   UNL     1      26.312  43.582  51.594  1.00  0.00     0.050 A 
HETATM    6  C   UNL     1      27.041  43.147  52.717  1.00  0.00     0.058 A 
HETATM    7  C   UNL     1      27.909  42.048  52.596  1.00  0.00     0.019 A 
HETATM    8  C   UNL     1      28.047  41.379  51.379  1.00  0.00     0.001 A 
HETATM    9  C   UNL     1      27.350  41.829  50.262  1.00  0.00     0.002 A 
HETATM   10  C   UNL     1      26.504  42.935  50.363  1.00  0.00     0.030 A 
BRANCH   6  11
HETATM   11  C   UNL     1      27.148  43.896  53.997  1.00  0.00     0.254 C 
HETATM   12  N   UNL     1      28.109  44.869  54.078  1.00  0.00    -0.349 N 
HETATM   13  H   UNL     1      28.610  45.119  53.227  1.00  0.00     0.163 HD
HETATM   14  O   UNL     1      26.351  43.655  54.899  1.00  0.00    -0.268 OA
BRANCH  12  15
HETATM   15  C   UNL     1      28.237  45.729  55.242  1.00  0.00     0.114 C 
HETATM   16  C   UNL     1      28.393  47.191  54.822  1.00  0.00     0.037 C 
BRANCH  15  17
HETATM   17  C   UNL     1      29.381  45.277  56.133  1.00  0.00    -0.036 A 
HETATM   18  C   UNL     1      30.241  44.254  55.698  1.00  0.00     0.009 A 
HETATM   19  C   UNL     1      31.283  43.802  56.511  1.00  0.00     0.001 A 
HETATM   20  C   UNL     1      31.484  44.369  57.766  1.00  0.00     0.000 A 
HETATM   21  C   UNL     1      30.644  45.387  58.212  1.00  0.00     0.001 A 
HETATM   22  C   UNL     1      29.597  45.835  57.404  1.00  0.00     0.009 A 
ENDBRANCH  15  17
ENDBRANCH  12  15
ENDBRANCH   6  11
ENDBRANCH   1   5
BRANCH   2  23
HETATM   23  C   UNL     1      24.755  46.990  51.101  1.00  0.00     0.240 C 
BRANCH  23  24
HETATM   24  N   UNL     1      23.896  47.109  49.941  1.00  0.00    -0.259 N 
HETATM   25  C   UNL     1      23.511  46.081  49.141  1.00  0.00     0.326 C 
HETATM   26  O   UNL     1      23.816  44.906  49.234  1.00  0.00    -0.247 OA
HETATM   27  N   UNL     1      22.666  46.580  48.172  1.00  0.00    -0.324 N 
HETATM   28  C   UNL     1      22.260  47.948  48.450  1.00  0.00     0.120 C 
HETATM   29  H   UNL     1      22.180  45.936  47.557  1.00  0.00     0.165 HD
HETATM   30  C   UNL     1      20.869  47.968  49.100  1.00  0.00     0.080 C 
HETATM   31  C   UNL     1      22.318  48.828  47.210  1.00  0.00     0.046 C 
HETATM   32  C   UNL     1      23.331  48.274  49.508  1.00  0.00     0.257 C 
HETATM   33  C   UNL     1      20.285  49.350  49.230  1.00  0.00    -0.049 A 
HETATM   34  C   UNL     1      20.754  50.422  48.451  1.00  0.00    -0.052 A 
HETATM   35  C   UNL     1      19.228  49.558  50.129  1.00  0.00     0.007 A 
HETATM   36  C   UNL     1      21.914  50.275  47.500  1.00  0.00     0.042 C 
HETATM   37  C   UNL     1      20.174  51.690  48.615  1.00  0.00     0.007 A 
HETATM   38  C   UNL     1      19.135  51.888  49.524  1.00  0.00     0.001 A 
HETATM   39  C   UNL     1      18.660  50.822  50.280  1.00  0.00     0.001 A 
HETATM   40  O   UNL     1      23.633  49.382  49.933  1.00  0.00    -0.270 OA
ENDBRANCH  23  24
ENDBRANCH   2  23
TORSDOF 6
ENDMDL
MODEL 3
REMARK VINA RESULT:     -10.8      2.111      3.286
REMARK  6 active torsions:
REMARK  status: ('A' for Active; 'I' for Inactive)
REMARK    1  A    between atoms: C_2  and  N_3 
REMARK    2  A    between atoms: C_2  and  C_32 
REMARK       I    between atoms: N_3  and  C_4 
REMARK    3  A    between atoms: C_4  and  C_5 
REMARK    4  A    between atoms: C_6  and  N_7 
REMARK       I    between atoms: N_7  and  C_8 
REMARK    5  A    between atoms: C_8  and  C_9 
REMARK    6  A    between atoms: C_9  and  N_10 
ROOT
HETATM    1  N   UNL     1      22.915  46.660  49.628  1.00  0.00    -0.325 N 
HETATM    2  C   UNL     1      22.373  45.905  48.593  1.00  0.00     0.240 C 
HETATM    3  O   UNL     1      22.985  45.605  47.569  1.00  0.00    -0.271 OA
HETATM    4  H   UNL     1      22.227  47.200  50.157  1.00  0.00     0.169 HD
ENDROOT
BRANCH   1   5
HETATM    5  C   UNL     1      24.202  47.231  49.516  1.00  0.00     0.050 A 
HETATM    6  C   UNL     1      25.385  46.614  49.967  1.00  0.00     0.058 A 
HETATM    7  C   UNL     1      26.611  47.290  49.835  1.00  0.00     0.019 A 
HETATM    8  C   UNL     1      26.668  48.558  49.254  1.00  0.00     0.001 A 
HETATM    9  C   UNL     1      25.495  49.179  48.838  1.00  0.00     0.002 A 
HETATM   10  C   UNL     1      24.268  48.529  48.985  1.00  0.00     0.030 A 
BRANCH   6  11
HETATM   11  C   UNL     1      25.434  45.378  50.789  1.00  0.00     0.254 C 
HETATM   12  N   UNL     1      26.097  45.443  51.987  1.00  0.00    -0.349 N 
HETATM   13  H   UNL     1      26.409  46.357  52.311  1.00  0.00     0.163 HD
HETATM   14  O   UNL     1      24.843  44.375  50.398  1.00  0.00    -0.268 OA
BRANCH  12  15
HETATM   15  C   UNL     1      26.121  44.327  52.915  1.00  0.00     0.114 C 
HETATM   16  C   UNL     1      25.327  44.655  54.180  1.00  0.00     0.037 C 
BRANCH  15  17
HETATM   17  C   UNL     1      27.547  43.917  53.241  1.00  0.00    -0.036 A 
HETATM   18  C   UNL     1      28.076  44.186  54.515  1.00  0.00     0.009 A 
HETATM   19  C   UNL     1      29.393  43.843  54.829  1.00  0.00     0.001 A 
HETATM   20  C   UNL     1      30.198  43.222  53.878  1.00  0.00     0.000 A 
HETATM   21  C   UNL     1      29.688  42.944  52.612  1.00  0.00     0.001 A 
HETATM   22  C   UNL     1      28.374  43.292  52.293  1.00  0.00     0.009 A 
ENDBRANCH  15  17
ENDBRANCH  12  15
ENDBRANCH   6  11
ENDBRANCH   1   5
BRANCH   2  23
HETATM   23  C   UNL     1      20.950  45.423  48.856  1.00  0.00     0.240 C 
BRANCH  23  24
HETATM   24  N   UNL     1      19.979  46.108  48.027  1.00  0.00    -0.259 N 
HETATM   25  C   UNL     1      18.915  45.523  47.418  1.00  0.00     0.326 C 
HETATM   26  O   UNL     1      18.593  44.349  47.439  1.00  0.00    -0.247 OA
HETATM   27  N   UNL     1      18.204  46.502  46.756  1.00  0.00    -0.324 N 
HETATM   28  C   UNL     1      18.648  47.839  47.113  1.00  0.00     0.120 C 
HETATM   29  H   UNL     1      17.307  46.271  46.344  1.00  0.00     0.165 HD
HETATM   30  C   UNL     1      17.714  48.444  48.171  1.00  0.00     0.080 C 
HETATM   31  C   UNL     1      18.786  48.744  45.898  1.00  0.00     0.046 C 
HETATM   32  C   UNL     1      19.987  47.448  47.767  1.00  0.00     0.257 C 
HETATM   33  C   UNL     1      17.978  49.902  48.445  1.00  0.00    -0.049 A 
HETATM   34  C   UNL     1      18.680  50.705  47.531  1.00  0.00    -0.052 A 
HETATM   35  C   UNL     1      17.482  50.470  49.629  1.00  0.00     0.007 A 
HETATM   36  C   UNL     1      19.276  50.146  46.264  1.00  0.00     0.042 C 
HETATM   37  C   UNL     1      18.899  52.058  47.838  1.00  0.00     0.007 A 
HETATM   38  C   UNL     1      18.416  52.608  49.025  1.00  0.00     0.001 A 
HETATM   39  C   UNL     1      17.705  51.815  49.920  1.00  0.00     0.001 A 
HETATM   40  O   UNL     1      20.916  48.195  48.045  1.00  0.00    -0.270 OA
ENDBRANCH  23  24
ENDBRANCH   2  23
TORSDOF 6
ENDMDL
MODEL 4
REMARK VINA RESULT:     -10.7      2.679      4.058
REMARK  6 active torsions:
REMARK  status: ('A' for Active; 'I' for Inactive)
REMARK    1  A    between atoms: C_2  and  N_3 
REMARK    2  A    between atoms: C_2  and  C_32 
REMARK       I    between atoms: N_3  and  C_4 
REMARK    3  A    between atoms: C_4  and  C_5 
REMARK    4  A    between atoms: C_6  and  N_7 
REMARK       I    between atoms: N_7  and  C_8 
REMARK    5  A    between atoms: C_8  and  C_9 
REMARK    6  A    between atoms: C_9  and  N_10 
ROOT
HETATM    1  N   UNL     1      24.182  44.123  48.198  1.00  0.00    -0.325 N 
HETATM    2  C   UNL     1      22.808  44.243  48.022  1.00  0.00     0.240 C 
HETATM    3  O   UNL     1      21.983  43.470  48.510  1.00  0.00    -0.271 OA
HETATM    4  H   UNL     1      24.738  44.501  47.428  1.00  0.00     0.169 HD
ENDROOT
BRANCH   1   5
HETATM    5  C   UNL     1      24.736  43.016  48.880  1.00  0.00     0.050 A 
HETATM    6  C   UNL     1      24.944  42.966  50.272  1.00  0.00     0.058 A 
HETATM    7  C   UNL     1      25.535  41.825  50.842  1.00  0.00     0.019 A 
HETATM    8  C   UNL     1      25.906  40.740  50.046  1.00  0.00     0.001 A 
HETATM    9  C   UNL     1      25.728  40.804  48.668  1.00  0.00     0.002 A 
HETATM   10  C   UNL     1      25.165  41.942  48.086  1.00  0.00     0.030 A 
BRANCH   6  11
HETATM   11  C   UNL     1      24.797  44.124  51.192  1.00  0.00     0.254 C 
HETATM   12  N   UNL     1      25.941  44.645  51.738  1.00  0.00    -0.349 N 
HETATM   13  H   UNL     1      26.835  44.301  51.392  1.00  0.00     0.163 HD
HETATM   14  O   UNL     1      23.680  44.598  51.382  1.00  0.00    -0.268 OA
BRANCH  12  15
HETATM   15  C   UNL     1      25.925  45.836  52.568  1.00  0.00     0.114 C 
HETATM   16  C   UNL     1      26.061  47.096  51.713  1.00  0.00     0.037 C 
BRANCH  15  17
HETATM   17  C   UNL     1      26.997  45.770  53.642  1.00  0.00    -0.036 A 
HETATM   18  C   UNL     1      27.260  46.900  54.435  1.00  0.00     0.009 A 
HETATM   19  C   UNL     1      28.260  46.872  55.410  1.00  0.00     0.001 A 
HETATM   20  C   UNL     1      29.007  45.715  55.610  1.00  0.00     0.000 A 
HETATM   21  C   UNL     1      28.757  44.584  54.835  1.00  0.00     0.001 A 
HETATM   22  C   UNL     1      27.763  44.612  53.856  1.00  0.00     0.009 A 
ENDBRANCH  15  17
ENDBRANCH  12  15
ENDBRANCH   6  11
ENDBRANCH   1   5
BRANCH   2  23
HETATM   23  C   UNL     1      22.391  45.462  47.206  1.00  0.00     0.240 C 
BRANCH  23  24
HETATM   24  N   UNL     1      21.898  46.537  48.043  1.00  0.00    -0.259 N 
HETATM   25  C   UNL     1      22.658  47.294  48.876  1.00  0.00     0.326 C 
HETATM   26  O   UNL     1      23.854  47.208  49.083  1.00  0.00    -0.247 OA
HETATM   27  N   UNL     1      21.842  48.236  49.468  1.00  0.00    -0.324 N 
HETATM   28  C   UNL     1      20.528  48.291  48.849  1.00  0.00     0.120 C 
HETATM   29  H   UNL     1      22.259  48.970  50.030  1.00  0.00     0.165 HD
HETATM   30  C   UNL     1      20.462  49.453  47.848  1.00  0.00     0.080 C 
HETATM   31  C   UNL     1      19.410  48.367  49.878  1.00  0.00     0.046 C 
HETATM   32  C   UNL     1      20.599  46.954  48.087  1.00  0.00     0.257 C 
HETATM   33  C   UNL     1      19.076  49.711  47.316  1.00  0.00    -0.049 A 
HETATM   34  C   UNL     1      17.933  49.247  47.988  1.00  0.00    -0.052 A 
HETATM   35  C   UNL     1      18.930  50.459  46.137  1.00  0.00     0.007 A 
HETATM   36  C   UNL     1      18.023  48.402  49.234  1.00  0.00     0.042 C 
HETATM   37  C   UNL     1      16.665  49.515  47.447  1.00  0.00     0.007 A 
HETATM   38  C   UNL     1      16.533  50.245  46.266  1.00  0.00     0.001 A 
HETATM   39  C   UNL     1      17.666  50.720  45.612  1.00  0.00     0.001 A 
HETATM   40  O   UNL     1      19.667  46.351  47.571  1.00  0.00    -0.270 OA
ENDBRANCH  23  24
ENDBRANCH   2  23
TORSDOF 6
ENDMDL
MODEL 5
REMARK VINA RESULT:     -10.5      2.929      4.412
REMARK  6 active torsions:
REMARK  status: ('A' for Active; 'I' for Inactive)
REMARK    1  A    between atoms: C_2  and  N_3 
REMARK    2  A    between atoms: C_2  and  C_32 
REMARK       I    between atoms: N_3  and  C_4 
REMARK    3  A    between atoms: C_4  and  C_5 
REMARK    4  A    between atoms: C_6  and  N_7 
REMARK       I    between atoms: N_7  and  C_8 
REMARK    5  A    between atoms: C_8  and  C_9 
REMARK    6  A    between atoms: C_9  and  N_10 
ROOT
HETATM    1  N   UNL     1      24.699  46.417  50.078  1.00  0.00    -0.325 N 
HETATM    2  C   UNL     1      25.882  47.049  49.712  1.00  0.00     0.240 C 
HETATM    3  O   UNL     1      26.837  46.472  49.191  1.00  0.00    -0.271 OA
HETATM    4  H   UNL     1      24.214  46.858  50.862  1.00  0.00     0.169 HD
ENDROOT
BRANCH   1   5
HETATM    5  C   UNL     1      24.557  45.016  49.966  1.00  0.00     0.050 A 
HETATM    6  C   UNL     1      24.699  44.117  51.040  1.00  0.00     0.058 A 
HETATM    7  C   UNL     1      24.570  42.736  50.807  1.00  0.00     0.019 A 
HETATM    8  C   UNL     1      24.293  42.250  49.529  1.00  0.00     0.001 A 
HETATM    9  C   UNL     1      24.185  43.138  48.462  1.00  0.00     0.002 A 
HETATM   10  C   UNL     1      24.335  44.510  48.676  1.00  0.00     0.030 A 
BRANCH   6  11
HETATM   11  C   UNL     1      25.202  44.483  52.389  1.00  0.00     0.254 C 
HETATM   12  N   UNL     1      26.438  45.070  52.463  1.00  0.00    -0.349 N 
HETATM   13  H   UNL     1      26.891  45.341  51.591  1.00  0.00     0.163 HD
HETATM   14  O   UNL     1      24.482  44.299  53.366  1.00  0.00    -0.268 OA
BRANCH  12  15
HETATM   15  C   UNL     1      26.984  45.560  53.716  1.00  0.00     0.114 C 
HETATM   16  C   UNL     1      27.269  47.060  53.635  1.00  0.00     0.037 C 
BRANCH  15  17
HETATM   17  C   UNL     1      28.223  44.776  54.116  1.00  0.00    -0.036 A 
HETATM   18  C   UNL     1      28.946  45.153  55.261  1.00  0.00     0.009 A 
HETATM   19  C   UNL     1      30.103  44.466  55.634  1.00  0.00     0.001 A 
HETATM   20  C   UNL     1      30.550  43.389  54.874  1.00  0.00     0.000 A 
HETATM   21  C   UNL     1      29.843  42.999  53.738  1.00  0.00     0.001 A 
HETATM   22  C   UNL     1      28.690  43.689  53.359  1.00  0.00     0.009 A 
ENDBRANCH  15  17
ENDBRANCH  12  15
ENDBRANCH   6  11
ENDBRANCH   1   5
BRANCH   2  23
HETATM   23  C   UNL     1      25.885  48.554  49.961  1.00  0.00     0.240 C 
BRANCH  23  24
HETATM   24  N   UNL     1      24.908  49.245  49.145  1.00  0.00    -0.259 N 
HETATM   25  C   UNL     1      25.168  49.867  47.966  1.00  0.00     0.326 C 
HETATM   26  O   UNL     1      26.239  49.972  47.396  1.00  0.00    -0.247 OA
HETATM   27  N   UNL     1      23.983  50.370  47.472  1.00  0.00    -0.324 N 
HETATM   28  C   UNL     1      22.829  49.877  48.205  1.00  0.00     0.120 C 
HETATM   29  H   UNL     1      23.961  50.762  46.536  1.00  0.00     0.165 HD
HETATM   30  C   UNL     1      22.180  48.709  47.449  1.00  0.00     0.080 C 
HETATM   31  C   UNL     1      21.826  50.980  48.510  1.00  0.00     0.046 C 
HETATM   32  C   UNL     1      23.578  49.342  49.440  1.00  0.00     0.257 C 
HETATM   33  C   UNL     1      20.860  48.274  48.031  1.00  0.00    -0.049 A 
HETATM   34  C   UNL     1      20.114  49.118  48.871  1.00  0.00    -0.052 A 
HETATM   35  C   UNL     1      20.355  47.007  47.698  1.00  0.00     0.007 A 
HETATM   36  C   UNL     1      20.620  50.472  49.302  1.00  0.00     0.042 C 
HETATM   37  C   UNL     1      18.891  48.661  49.388  1.00  0.00     0.007 A 
HETATM   38  C   UNL     1      18.407  47.394  49.063  1.00  0.00     0.001 A 
HETATM   39  C   UNL     1      19.138  46.567  48.216  1.00  0.00     0.001 A 
HETATM   40  O   UNL     1      23.090  49.023  50.516  1.00  0.00    -0.270 OA
ENDBRANCH  23  24
ENDBRANCH   2  23
TORSDOF 6
ENDMDL
MODEL 6
REMARK VINA RESULT:     -10.4      2.637     10.195
REMARK  6 active torsions:
REMARK  status: ('A' for Active; 'I' for Inactive)
REMARK    1  A    between atoms: C_2  and  N_3 
REMARK    2  A    between atoms: C_2  and  C_32 
REMARK       I    between atoms: N_3  and  C_4 
REMARK    3  A    between atoms: C_4  and  C_5 
REMARK    4  A    between atoms: C_6  and  N_7 
REMARK       I    between atoms: N_7  and  C_8 
REMARK    5  A    between atoms: C_8  and  C_9 
REMARK    6  A    between atoms: C_9  and  N_10 
ROOT
HETATM    1  N   UNL     1      21.222  46.147  48.604  1.00  0.00    -0.325 N 
HETATM    2  C   UNL     1      21.919  47.257  48.138  1.00  0.00     0.240 C 
HETATM    3  O   UNL     1      22.013  47.559  46.949  1.00  0.00    -0.271 OA
HETATM    4  H   UNL     1      21.580  45.765  49.481  1.00  0.00     0.169 HD
ENDROOT
BRANCH   1   5
HETATM    5  C   UNL     1      20.652  45.216  47.707  1.00  0.00     0.050 A 
HETATM    6  C   UNL     1      19.315  45.255  47.266  1.00  0.00     0.058 A 
HETATM    7  C   UNL     1      18.844  44.255  46.398  1.00  0.00     0.019 A 
HETATM    8  C   UNL     1      19.687  43.234  45.961  1.00  0.00     0.001 A 
HETATM    9  C   UNL     1      20.999  43.178  46.421  1.00  0.00     0.002 A 
HETATM   10  C   UNL     1      21.473  44.151  47.304  1.00  0.00     0.030 A 
BRANCH   6  11
HETATM   11  C   UNL     1      18.268  46.152  47.821  1.00  0.00     0.254 C 
HETATM   12  N   UNL     1      18.394  47.495  47.576  1.00  0.00    -0.349 N 
HETATM   13  H   UNL     1      19.118  47.796  46.926  1.00  0.00     0.163 HD
HETATM   14  O   UNL     1      17.317  45.661  48.421  1.00  0.00    -0.268 OA
BRANCH  12  15
HETATM   15  C   UNL     1      17.379  48.450  47.982  1.00  0.00     0.114 C 
HETATM   16  C   UNL     1      16.219  48.466  46.987  1.00  0.00     0.037 C 
BRANCH  15  17
HETATM   17  C   UNL     1      17.975  49.835  48.171  1.00  0.00    -0.036 A 
HETATM   18  C   UNL     1      19.360  50.021  48.034  1.00  0.00     0.009 A 
HETATM   19  C   UNL     1      19.935  51.279  48.230  1.00  0.00     0.001 A 
HETATM   20  C   UNL     1      19.134  52.369  48.559  1.00  0.00     0.000 A 
HETATM   21  C   UNL     1      17.757  52.202  48.694  1.00  0.00     0.001 A 
HETATM   22  C   UNL     1      17.181  50.944  48.506  1.00  0.00     0.009 A 
ENDBRANCH  15  17
ENDBRANCH  12  15
ENDBRANCH   6  11
ENDBRANCH   1   5
BRANCH   2  23
HETATM   23  C   UNL     1      22.524  48.118  49.243  1.00  0.00     0.240 C 
BRANCH  23  24
HETATM   24  N   UNL     1      23.948  47.900  49.387  1.00  0.00    -0.259 N 
HETATM   25  C   UNL     1      24.915  48.807  49.093  1.00  0.00     0.326 C 
HETATM   26  O   UNL     1      24.776  49.933  48.653  1.00  0.00    -0.247 OA
HETATM   27  N   UNL     1      26.139  48.249  49.399  1.00  0.00    -0.324 N 
HETATM   28  C   UNL     1      26.005  47.013  50.153  1.00  0.00     0.120 C 
HETATM   29  H   UNL     1      26.972  48.827  49.361  1.00  0.00     0.165 HD
HETATM   30  C   UNL     1      26.206  47.280  51.651  1.00  0.00     0.080 C 
HETATM   31  C   UNL     1      26.938  45.925  49.643  1.00  0.00     0.046 C 
HETATM   32  C   UNL     1      24.514  46.754  49.868  1.00  0.00     0.257 C 
HETATM   33  C   UNL     1      26.291  46.025  52.481  1.00  0.00    -0.049 A 
HETATM   34  C   UNL     1      26.599  44.783  51.903  1.00  0.00    -0.052 A 
HETATM   35  C   UNL     1      26.085  46.113  53.867  1.00  0.00     0.007 A 
HETATM   36  C   UNL     1      26.786  44.614  50.416  1.00  0.00     0.042 C 
HETATM   37  C   UNL     1      26.663  43.644  52.723  1.00  0.00     0.007 A 
HETATM   38  C   UNL     1      26.441  43.741  54.097  1.00  0.00     0.001 A 
HETATM   39  C   UNL     1      26.155  44.976  54.670  1.00  0.00     0.001 A 
HETATM   40  O   UNL     1      23.899  45.712  50.054  1.00  0.00    -0.270 OA
ENDBRANCH  23  24
ENDBRANCH   2  23
TORSDOF 6
ENDMDL
MODEL 7
REMARK VINA RESULT:     -10.2      3.934      6.208
REMARK  6 active torsions:
REMARK  status: ('A' for Active; 'I' for Inactive)
REMARK    1  A    between atoms: C_2  and  N_3 
REMARK    2  A    between atoms: C_2  and  C_32 
REMARK       I    between atoms: N_3  and  C_4 
REMARK    3  A    between atoms: C_4  and  C_5 
REMARK    4  A    between atoms: C_6  and  N_7 
REMARK       I    between atoms: N_7  and  C_8 
REMARK    5  A    between atoms: C_8  and  C_9 
REMARK    6  A    between atoms: C_9  and  N_10 
ROOT
HETATM    1  N   UNL     1      25.365  42.768  48.172  1.00  0.00    -0.325 N 
HETATM    2  C   UNL     1      24.369  42.152  47.422  1.00  0.00     0.240 C 
HETATM    3  O   UNL     1      24.201  40.934  47.372  1.00  0.00    -0.271 OA
HETATM    4  H   UNL     1      25.680  43.664  47.795  1.00  0.00     0.169 HD
ENDROOT
BRANCH   1   5
HETATM    5  C   UNL     1      26.337  42.005  48.858  1.00  0.00     0.050 A 
HETATM    6  C   UNL     1      26.561  42.070  50.247  1.00  0.00     0.058 A 
HETATM    7  C   UNL     1      27.580  41.290  50.820  1.00  0.00     0.019 A 
HETATM    8  C   UNL     1      28.363  40.446  50.031  1.00  0.00     0.001 A 
HETATM    9  C   UNL     1      28.161  40.406  48.655  1.00  0.00     0.002 A 
HETATM   10  C   UNL     1      27.168  41.195  48.069  1.00  0.00     0.030 A 
BRANCH   6  11
HETATM   11  C   UNL     1      25.952  43.076  51.155  1.00  0.00     0.254 C 
HETATM   12  N   UNL     1      26.788  44.005  51.718  1.00  0.00    -0.349 N 
HETATM   13  H   UNL     1      27.751  44.041  51.390  1.00  0.00     0.163 HD
HETATM   14  O   UNL     1      24.735  43.071  51.323  1.00  0.00    -0.268 OA
BRANCH  12  15
HETATM   15  C   UNL     1      26.287  45.093  52.540  1.00  0.00     0.114 C 
HETATM   16  C   UNL     1      26.012  46.333  51.689  1.00  0.00     0.037 C 
BRANCH  15  17
HETATM   17  C   UNL     1      27.240  45.398  53.683  1.00  0.00    -0.036 A 
HETATM   18  C   UNL     1      27.151  46.629  54.354  1.00  0.00     0.009 A 
HETATM   19  C   UNL     1      28.033  46.944  55.390  1.00  0.00     0.001 A 
HETATM   20  C   UNL     1      29.012  46.032  55.774  1.00  0.00     0.000 A 
HETATM   21  C   UNL     1      29.112  44.805  55.122  1.00  0.00     0.001 A 
HETATM   22  C   UNL     1      28.236  44.491  54.082  1.00  0.00     0.009 A 
ENDBRANCH  15  17
ENDBRANCH  12  15
ENDBRANCH   6  11
ENDBRANCH   1   5
BRANCH   2  23
HETATM   23  C   UNL     1      23.447  43.126  46.695  1.00  0.00     0.240 C 
BRANCH  23  24
HETATM   24  N   UNL     1      22.726  43.985  47.613  1.00  0.00    -0.259 N 
HETATM   25  C   UNL     1      22.266  43.615  48.836  1.00  0.00     0.326 C 
HETATM   26  O   UNL     1      22.355  42.525  49.371  1.00  0.00    -0.247 OA
HETATM   27  N   UNL     1      21.671  44.711  49.423  1.00  0.00    -0.324 N 
HETATM   28  C   UNL     1      21.938  45.939  48.691  1.00  0.00     0.120 C 
HETATM   29  H   UNL     1      21.377  44.658  50.393  1.00  0.00     0.165 HD
HETATM   30  C   UNL     1      23.086  46.713  49.354  1.00  0.00     0.080 C 
HETATM   31  C   UNL     1      20.692  46.798  48.535  1.00  0.00     0.046 C 
HETATM   32  C   UNL     1      22.433  45.297  47.381  1.00  0.00     0.257 C 
HETATM   33  C   UNL     1      23.289  48.093  48.784  1.00  0.00    -0.049 A 
HETATM   34  C   UNL     1      22.276  48.745  48.061  1.00  0.00    -0.052 A 
HETATM   35  C   UNL     1      24.510  48.748  49.011  1.00  0.00     0.007 A 
HETATM   36  C   UNL     1      20.960  48.080  47.745  1.00  0.00     0.042 C 
HETATM   37  C   UNL     1      22.520  50.031  47.551  1.00  0.00     0.007 A 
HETATM   38  C   UNL     1      23.743  50.665  47.769  1.00  0.00     0.001 A 
HETATM   39  C   UNL     1      24.738  50.025  48.501  1.00  0.00     0.001 A 
HETATM   40  O   UNL     1      22.577  45.852  46.299  1.00  0.00    -0.270 OA
ENDBRANCH  23  24
ENDBRANCH   2  23
TORSDOF 6
ENDMDL
MODEL 8
REMARK VINA RESULT:     -10.0      2.682     10.366
REMARK  6 active torsions:
REMARK  status: ('A' for Active; 'I' for Inactive)
REMARK    1  A    between atoms: C_2  and  N_3 
REMARK    2  A    between atoms: C_2  and  C_32 
REMARK       I    between atoms: N_3  and  C_4 
REMARK    3  A    between atoms: C_4  and  C_5 
REMARK    4  A    between atoms: C_6  and  N_7 
REMARK       I    between atoms: N_7  and  C_8 
REMARK    5  A    between atoms: C_8  and  C_9 
REMARK    6  A    between atoms: C_9  and  N_10 
ROOT
HETATM    1  N   UNL     1      21.690  47.065  48.778  1.00  0.00    -0.325 N 
HETATM    2  C   UNL     1      21.040  46.398  47.744  1.00  0.00     0.240 C 
HETATM    3  O   UNL     1      20.550  46.961  46.765  1.00  0.00    -0.271 OA
HETATM    4  H   UNL     1      21.636  46.590  49.681  1.00  0.00     0.169 HD
ENDROOT
BRANCH   1   5
HETATM    5  C   UNL     1      21.737  48.476  48.818  1.00  0.00     0.050 A 
HETATM    6  C   UNL     1      20.663  49.294  49.218  1.00  0.00     0.058 A 
HETATM    7  C   UNL     1      20.810  50.692  49.187  1.00  0.00     0.019 A 
HETATM    8  C   UNL     1      22.009  51.275  48.774  1.00  0.00     0.001 A 
HETATM    9  C   UNL     1      23.059  50.466  48.349  1.00  0.00     0.002 A 
HETATM   10  C   UNL     1      22.917  49.076  48.352  1.00  0.00     0.030 A 
BRANCH   6  11
HETATM   11  C   UNL     1      19.280  48.813  49.468  1.00  0.00     0.254 C 
HETATM   12  N   UNL     1      18.433  48.742  48.392  1.00  0.00    -0.349 N 
HETATM   13  H   UNL     1      18.825  48.898  47.465  1.00  0.00     0.163 HD
HETATM   14  O   UNL     1      18.968  48.451  50.599  1.00  0.00    -0.268 OA
BRANCH  12  15
HETATM   15  C   UNL     1      17.094  48.192  48.501  1.00  0.00     0.114 C 
HETATM   16  C   UNL     1      17.116  46.672  48.337  1.00  0.00     0.037 C 
BRANCH  15  17
HETATM   17  C   UNL     1      16.150  48.848  47.509  1.00  0.00    -0.036 A 
HETATM   18  C   UNL     1      16.223  50.234  47.289  1.00  0.00     0.009 A 
HETATM   19  C   UNL     1      15.348  50.865  46.402  1.00  0.00     0.001 A 
HETATM   20  C   UNL     1      14.392  50.120  45.718  1.00  0.00     0.000 A 
HETATM   21  C   UNL     1      14.308  48.744  45.920  1.00  0.00     0.001 A 
HETATM   22  C   UNL     1      15.177  48.113  46.812  1.00  0.00     0.009 A 
ENDBRANCH  15  17
ENDBRANCH  12  15
ENDBRANCH   6  11
ENDBRANCH   1   5
BRANCH   2  23
HETATM   23  C   UNL     1      21.028  44.880  47.895  1.00  0.00     0.240 C 
BRANCH  23  24
HETATM   24  N   UNL     1      22.355  44.343  48.113  1.00  0.00    -0.259 N 
HETATM   25  C   UNL     1      23.240  44.015  47.136  1.00  0.00     0.326 C 
HETATM   26  O   UNL     1      23.086  44.093  45.931  1.00  0.00    -0.247 OA
HETATM   27  N   UNL     1      24.403  43.577  47.735  1.00  0.00    -0.324 N 
HETATM   28  C   UNL     1      24.414  43.836  49.165  1.00  0.00     0.120 C 
HETATM   29  H   UNL     1      25.222  43.405  47.162  1.00  0.00     0.165 HD
HETATM   30  C   UNL     1      25.216  45.110  49.468  1.00  0.00     0.080 C 
HETATM   31  C   UNL     1      24.925  42.644  49.961  1.00  0.00     0.046 C 
HETATM   32  C   UNL     1      22.910  44.116  49.340  1.00  0.00     0.257 C 
HETATM   33  C   UNL     1      25.454  45.337  50.938  1.00  0.00    -0.049 A 
HETATM   34  C   UNL     1      25.349  44.290  51.869  1.00  0.00    -0.052 A 
HETATM   35  C   UNL     1      25.818  46.620  51.376  1.00  0.00     0.007 A 
HETATM   36  C   UNL     1      24.919  42.901  51.469  1.00  0.00     0.042 C 
HETATM   37  C   UNL     1      25.579  44.558  53.228  1.00  0.00     0.007 A 
HETATM   38  C   UNL     1      25.925  45.841  53.654  1.00  0.00     0.001 A 
HETATM   39  C   UNL     1      26.047  46.872  52.727  1.00  0.00     0.001 A 
HETATM   40  O   UNL     1      22.287  44.161  50.393  1.00  0.00    -0.270 OA
ENDBRANCH  23  24
ENDBRANCH   2  23
TORSDOF 6
ENDMDL
MODEL 9
REMARK VINA RESULT:      -9.9      6.138     11.190
REMARK  6 active torsions:
REMARK  status: ('A' for Active; 'I' for Inactive)
REMARK    1  A    between atoms: C_2  and  N_3 
REMARK    2  A    between atoms: C_2  and  C_32 
REMARK       I    between atoms: N_3  and  C_4 
REMARK    3  A    between atoms: C_4  and  C_5 
REMARK    4  A    between atoms: C_6  and  N_7 
REMARK       I    between atoms: N_7  and  C_8 
REMARK    5  A    between atoms: C_8  and  C_9 
REMARK    6  A    between atoms: C_9  and  N_10 
ROOT
HETATM    1  N   UNL     1      25.317  43.466  48.914  1.00  0.00    -0.325 N 
HETATM    2  C   UNL     1      24.364  42.497  49.208  1.00  0.00     0.240 C 
HETATM    3  O   UNL     1      23.450  42.656  50.016  1.00  0.00    -0.271 OA
HETATM    4  H   UNL     1      26.220  43.090  48.617  1.00  0.00     0.169 HD
ENDROOT
BRANCH   1   5
HETATM    5  C   UNL     1      25.355  44.689  49.620  1.00  0.00     0.050 A 
HETATM    6  C   UNL     1      26.320  45.013  50.593  1.00  0.00     0.058 A 
HETATM    7  C   UNL     1      26.241  46.248  51.260  1.00  0.00     0.019 A 
HETATM    8  C   UNL     1      25.226  47.157  50.962  1.00  0.00     0.001 A 
HETATM    9  C   UNL     1      24.255  46.823  50.024  1.00  0.00     0.002 A 
HETATM   10  C   UNL     1      24.307  45.589  49.371  1.00  0.00     0.030 A 
BRANCH   6  11
HETATM   11  C   UNL     1      27.312  44.058  51.152  1.00  0.00     0.254 C 
HETATM   12  N   UNL     1      27.566  44.129  52.497  1.00  0.00    -0.349 N 
HETATM   13  H   UNL     1      26.976  44.736  53.063  1.00  0.00     0.163 HD
HETATM   14  O   UNL     1      27.818  43.220  50.411  1.00  0.00    -0.268 OA
BRANCH  12  15
HETATM   15  C   UNL     1      28.439  43.180  53.166  1.00  0.00     0.114 C 
HETATM   16  C   UNL     1      27.653  41.955  53.634  1.00  0.00     0.037 C 
BRANCH  15  17
HETATM   17  C   UNL     1      29.185  43.839  54.314  1.00  0.00    -0.036 A 
HETATM   18  C   UNL     1      28.752  45.083  54.803  1.00  0.00     0.009 A 
HETATM   19  C   UNL     1      29.438  45.721  55.839  1.00  0.00     0.001 A 
HETATM   20  C   UNL     1      30.561  45.124  56.405  1.00  0.00     0.000 A 
HETATM   21  C   UNL     1      31.000  43.888  55.935  1.00  0.00     0.001 A 
HETATM   22  C   UNL     1      30.321  43.252  54.895  1.00  0.00     0.009 A 
ENDBRANCH  15  17
ENDBRANCH  12  15
ENDBRANCH   6  11
ENDBRANCH   1   5
BRANCH   2  23
HETATM   23  C   UNL     1      24.512  41.215  48.396  1.00  0.00     0.240 C 
BRANCH  23  24
HETATM   24  N   UNL     1      25.652  40.428  48.819  1.00  0.00    -0.259 N 
HETATM   25  C   UNL     1      26.110  40.332  50.094  1.00  0.00     0.326 C 
HETATM   26  O   UNL     1      25.673  40.881  51.089  1.00  0.00    -0.247 OA
HETATM   27  N   UNL     1      27.181  39.463  50.105  1.00  0.00    -0.324 N 
HETATM   28  C   UNL     1      27.320  38.748  48.846  1.00  0.00     0.120 C 
HETATM   29  H   UNL     1      27.575  39.172  50.993  1.00  0.00     0.165 HD
HETATM   30  C   UNL     1      26.701  37.348  48.960  1.00  0.00     0.080 C 
HETATM   31  C   UNL     1      28.766  38.691  48.375  1.00  0.00     0.046 C 
HETATM   32  C   UNL     1      26.409  39.650  47.992  1.00  0.00     0.257 C 
HETATM   33  C   UNL     1      26.985  36.466  47.772  1.00  0.00    -0.049 A 
HETATM   34  C   UNL     1      28.048  36.737  46.894  1.00  0.00    -0.052 A 
HETATM   35  C   UNL     1      26.185  35.333  47.561  1.00  0.00     0.007 A 
HETATM   36  C   UNL     1      28.917  37.961  47.039  1.00  0.00     0.042 C 
HETATM   37  C   UNL     1      28.267  35.883  45.801  1.00  0.00     0.007 A 
HETATM   38  C   UNL     1      27.454  34.768  45.592  1.00  0.00     0.001 A 
HETATM   39  C   UNL     1      26.414  34.492  46.474  1.00  0.00     0.001 A 
HETATM   40  O   UNL     1      26.334  39.672  46.770  1.00  0.00    -0.270 OA
ENDBRANCH  23  24
ENDBRANCH   2  23
TORSDOF 6
ENDMDL
MODEL 10
REMARK VINA RESULT:      -9.8      3.093      4.567
REMARK  6 active torsions:
REMARK  status: ('A' for Active; 'I' for Inactive)
REMARK    1  A    between atoms: C_2  and  N_3 
REMARK    2  A    between atoms: C_2  and  C_32 
REMARK       I    between atoms: N_3  and  C_4 
REMARK    3  A    between atoms: C_4  and  C_5 
REMARK    4  A    between atoms: C_6  and  N_7 
REMARK       I    between atoms: N_7  and  C_8 
REMARK    5  A    between atoms: C_8  and  C_9 
REMARK    6  A    between atoms: C_9  and  N_10 
ROOT
HETATM    1  N   UNL     1      22.498  43.226  49.534  1.00  0.00    -0.325 N 
HETATM    2  C   UNL     1      22.131  44.413  48.908  1.00  0.00     0.240 C 
HETATM    3  O   UNL     1      22.740  44.905  47.959  1.00  0.00    -0.271 OA
HETATM    4  H   UNL     1      22.229  43.170  50.518  1.00  0.00     0.169 HD
ENDROOT
BRANCH   1   5
HETATM    5  C   UNL     1      23.685  42.549  49.173  1.00  0.00     0.050 A 
HETATM    6  C   UNL     1      24.838  42.488  49.978  1.00  0.00     0.058 A 
HETATM    7  C   UNL     1      25.977  41.814  49.504  1.00  0.00     0.019 A 
HETATM    8  C   UNL     1      25.973  41.199  48.252  1.00  0.00     0.001 A 
HETATM    9  C   UNL     1      24.843  41.287  47.444  1.00  0.00     0.002 A 
HETATM   10  C   UNL     1      23.713  41.974  47.893  1.00  0.00     0.030 A 
BRANCH   6  11
HETATM   11  C   UNL     1      25.045  43.275  51.221  1.00  0.00     0.254 C 
HETATM   12  N   UNL     1      26.337  43.481  51.629  1.00  0.00    -0.349 N 
HETATM   13  H   UNL     1      27.087  43.199  51.000  1.00  0.00     0.163 HD
HETATM   14  O   UNL     1      24.070  43.750  51.797  1.00  0.00    -0.268 OA
BRANCH  12  15
HETATM   15  C   UNL     1      26.660  44.319  52.771  1.00  0.00     0.114 C 
HETATM   16  C   UNL     1      26.601  45.799  52.392  1.00  0.00     0.037 C 
BRANCH  15  17
HETATM   17  C   UNL     1      28.009  43.945  53.360  1.00  0.00    -0.036 A 
HETATM   18  C   UNL     1      28.416  44.509  54.581  1.00  0.00     0.009 A 
HETATM   19  C   UNL     1      29.663  44.202  55.129  1.00  0.00     0.001 A 
HETATM   20  C   UNL     1      30.518  43.324  54.470  1.00  0.00     0.000 A 
HETATM   21  C   UNL     1      30.128  42.751  53.261  1.00  0.00     0.001 A 
HETATM   22  C   UNL     1      28.885  43.063  52.707  1.00  0.00     0.009 A 
ENDBRANCH  15  17
ENDBRANCH  12  15
ENDBRANCH   6  11
ENDBRANCH   1   5
BRANCH   2  23
HETATM   23  C   UNL     1      20.859  45.041  49.467  1.00  0.00     0.240 C 
BRANCH  23  24
HETATM   24  N   UNL     1      20.132  45.790  48.462  1.00  0.00    -0.259 N 
HETATM   25  C   UNL     1      19.212  45.269  47.609  1.00  0.00     0.326 C 
HETATM   26  O   UNL     1      18.845  44.112  47.519  1.00  0.00    -0.247 OA
HETATM   27  N   UNL     1      18.712  46.295  46.834  1.00  0.00    -0.324 N 
HETATM   28  C   UNL     1      19.119  47.602  47.326  1.00  0.00     0.120 C 
HETATM   29  H   UNL     1      17.923  46.117  46.223  1.00  0.00     0.165 HD
HETATM   30  C   UNL     1      17.994  48.228  48.163  1.00  0.00     0.080 C 
HETATM   31  C   UNL     1      19.568  48.524  46.202  1.00  0.00     0.046 C 
HETATM   32  C   UNL     1      20.255  47.133  48.253  1.00  0.00     0.257 C 
HETATM   33  C   UNL     1      18.249  49.665  48.536  1.00  0.00    -0.049 A 
HETATM   34  C   UNL     1      19.174  50.453  47.830  1.00  0.00    -0.052 A 
HETATM   35  C   UNL     1      17.521  50.231  49.593  1.00  0.00     0.007 A 
HETATM   36  C   UNL     1      20.019  49.893  46.714  1.00  0.00     0.042 C 
HETATM   37  C   UNL     1      19.374  51.787  48.222  1.00  0.00     0.007 A 
HETATM   38  C   UNL     1      18.656  52.334  49.285  1.00  0.00     0.001 A 
HETATM   39  C   UNL     1      17.727  51.557  49.970  1.00  0.00     0.001 A 
HETATM   40  O   UNL     1      21.127  47.828  48.758  1.00  0.00    -0.270 OA
ENDBRANCH  23  24
ENDBRANCH   2  23
TORSDOF 6
ENDMDL
