MODEL 1
REMARK VINA RESULT:      -8.9      0.000      0.000
REMARK  2 active torsions:
REMARK  status: ('A' for Active; 'I' for Inactive)
REMARK    1  A    between atoms: C_5  and  C_7 
REMARK    2  A    between atoms: C_5  and  O_6 
ROOT
HETATM    1  C   UNL     1      22.906  48.080  49.217  1.00  0.00     0.050 C 
HETATM    2  C   UNL     1      24.331  47.730  49.514  1.00  0.00    -0.035 A 
HETATM    3  C   UNL     1      24.725  46.550  50.124  1.00  0.00     0.051 A 
HETATM    4  C   UNL     1      26.070  46.250  50.384  1.00  0.00     0.018 A 
HETATM    5  C   UNL     1      26.174  44.867  50.996  1.00  0.00     0.199 A 
HETATM    6  C   UNL     1      24.663  44.472  51.128  1.00  0.00     0.266 A 
HETATM    7  O   UNL     1      24.177  43.443  51.573  1.00  0.00    -0.269 OA
HETATM    8  N   UNL     1      23.917  45.507  50.561  1.00  0.00    -0.323 N 
HETATM    9  C   UNL     1      27.073  47.137  50.026  1.00  0.00     0.013 A 
HETATM   10  C   UNL     1      26.705  48.337  49.417  1.00  0.00     0.001 A 
HETATM   11  C   UNL     1      25.352  48.629  49.164  1.00  0.00     0.009 A 
HETATM   12  H   UNL     1      22.911  45.470  50.510  1.00  0.00     0.169 HD
ENDROOT
BRANCH   5  13
HETATM   13  C   UNL     1      26.888  44.999  52.322  1.00  0.00     0.025 A 
HETATM   14  C   UNL     1      28.003  44.212  52.807  1.00  0.00     0.003 A 
HETATM   15  C   UNL     1      28.348  44.696  54.069  1.00  0.00     0.043 A 
HETATM   16  C   UNL     1      28.759  43.134  52.294  1.00  0.00     0.014 A 
HETATM   17  C   UNL     1      29.396  44.168  54.835  1.00  0.00     0.030 A 
HETATM   18  N   UNL     1      27.492  45.727  54.355  1.00  0.00    -0.359 N 
HETATM   19  C   UNL     1      30.124  43.106  54.298  1.00  0.00     0.002 A 
HETATM   20  C   UNL     1      29.811  42.594  53.044  1.00  0.00     0.001 A 
HETATM   21  H   UNL     1      27.524  46.271  55.206  1.00  0.00     0.166 HD
HETATM   22  C   UNL     1      26.605  45.923  53.329  1.00  0.00     0.016 A 
HETATM   23  C   UNL     1      25.582  47.001  53.411  1.00  0.00     0.069 C 
ENDBRANCH   5  13
BRANCH   5  24
HETATM   24  O   UNL     1      26.834  44.010  50.066  1.00  0.00    -0.371 OA
HETATM   25  H   UNL     1      27.754  43.933  50.367  1.00  0.00     0.212 HD
ENDBRANCH   5  24
TORSDOF 2
ENDMDL
MODEL 2
REMARK VINA RESULT:      -8.6      1.474      2.642
REMARK  2 active torsions:
REMARK  status: ('A' for Active; 'I' for Inactive)
REMARK    1  A    between atoms: C_5  and  C_7 
REMARK    2  A    between atoms: C_5  and  O_6 
ROOT
HETATM    1  C   UNL     1      23.371  49.295  49.056  1.00  0.00     0.050 C 
HETATM    2  C   UNL     1      24.667  48.568  49.233  1.00  0.00    -0.035 A 
HETATM    3  C   UNL     1      24.765  47.263  49.688  1.00  0.00     0.051 A 
HETATM    4  C   UNL     1      25.995  46.608  49.839  1.00  0.00     0.018 A 
HETATM    5  C   UNL     1      25.761  45.180  50.289  1.00  0.00     0.199 A 
HETATM    6  C   UNL     1      24.203  45.161  50.461  1.00  0.00     0.266 A 
HETATM    7  O   UNL     1      23.484  44.240  50.817  1.00  0.00    -0.269 OA
HETATM    8  N   UNL     1      23.730  46.409  50.053  1.00  0.00    -0.323 N 
HETATM    9  C   UNL     1      27.181  47.254  49.524  1.00  0.00     0.013 A 
HETATM   10  C   UNL     1      27.114  48.571  49.072  1.00  0.00     0.001 A 
HETATM   11  C   UNL     1      25.874  49.219  48.928  1.00  0.00     0.009 A 
HETATM   12  H   UNL     1      22.747  46.631  50.054  1.00  0.00     0.169 HD
ENDROOT
BRANCH   5  13
HETATM   13  C   UNL     1      26.520  44.970  51.579  1.00  0.00     0.025 A 
HETATM   14  C   UNL     1      26.549  45.839  52.738  1.00  0.00     0.003 A 
HETATM   15  C   UNL     1      27.363  45.238  53.699  1.00  0.00     0.043 A 
HETATM   16  C   UNL     1      25.960  47.080  53.068  1.00  0.00     0.014 A 
HETATM   17  C   UNL     1      27.613  45.803  54.956  1.00  0.00     0.030 A 
HETATM   18  N   UNL     1      27.816  44.060  53.166  1.00  0.00    -0.359 N 
HETATM   19  C   UNL     1      27.013  47.028  55.251  1.00  0.00     0.002 A 
HETATM   20  C   UNL     1      26.197  47.660  54.321  1.00  0.00     0.001 A 
HETATM   21  H   UNL     1      28.419  43.412  53.655  1.00  0.00     0.166 HD
HETATM   22  C   UNL     1      27.331  43.880  51.898  1.00  0.00     0.016 A 
HETATM   23  C   UNL     1      27.683  42.660  51.120  1.00  0.00     0.069 C 
ENDBRANCH   5  13
BRANCH   5  24
HETATM   24  O   UNL     1      26.157  44.303  49.236  1.00  0.00    -0.371 OA
HETATM   25  H   UNL     1      27.123  44.227  49.289  1.00  0.00     0.212 HD
ENDBRANCH   5  24
TORSDOF 2
ENDMDL
MODEL 3
REMARK VINA RESULT:      -8.5     10.813     13.408
REMARK  2 active torsions:
REMARK  status: ('A' for Active; 'I' for Inactive)
REMARK    1  A    between atoms: C_5  and  C_7 
REMARK    2  A    between atoms: C_5  and  O_6 
ROOT
HETATM    1  C   UNL     1      36.314  50.901  41.761  1.00  0.00     0.050 C 
HETATM    2  C   UNL     1      34.991  50.990  42.455  1.00  0.00    -0.035 A 
HETATM    3  C   UNL     1      33.892  50.213  42.126  1.00  0.00     0.051 A 
HETATM    4  C   UNL     1      32.667  50.318  42.800  1.00  0.00     0.018 A 
HETATM    5  C   UNL     1      31.694  49.294  42.251  1.00  0.00     0.199 A 
HETATM    6  C   UNL     1      32.536  48.656  41.093  1.00  0.00     0.266 A 
HETATM    7  O   UNL     1      32.219  47.770  40.314  1.00  0.00    -0.269 OA
HETATM    8  N   UNL     1      33.803  49.242  41.136  1.00  0.00    -0.323 N 
HETATM    9  C   UNL     1      32.511  51.216  43.845  1.00  0.00     0.013 A 
HETATM   10  C   UNL     1      33.598  52.018  44.192  1.00  0.00     0.001 A 
HETATM   11  C   UNL     1      34.821  51.906  43.507  1.00  0.00     0.009 A 
HETATM   12  H   UNL     1      34.533  48.975  40.495  1.00  0.00     0.169 HD
ENDROOT
BRANCH   5  13
HETATM   13  C   UNL     1      30.463  50.031  41.775  1.00  0.00     0.025 A 
HETATM   14  C   UNL     1      30.389  51.380  41.251  1.00  0.00     0.003 A 
HETATM   15  C   UNL     1      29.057  51.635  40.922  1.00  0.00     0.043 A 
HETATM   16  C   UNL     1      31.326  52.413  41.022  1.00  0.00     0.014 A 
HETATM   17  C   UNL     1      28.619  52.849  40.379  1.00  0.00     0.030 A 
HETATM   18  N   UNL     1      28.342  50.506  41.225  1.00  0.00    -0.359 N 
HETATM   19  C   UNL     1      29.570  53.847  40.162  1.00  0.00     0.002 A 
HETATM   20  C   UNL     1      30.906  53.634  40.479  1.00  0.00     0.001 A 
HETATM   21  H   UNL     1      27.347  50.408  41.075  1.00  0.00     0.166 HD
HETATM   22  C   UNL     1      29.159  49.536  41.743  1.00  0.00     0.016 A 
HETATM   23  C   UNL     1      28.604  48.212  42.138  1.00  0.00     0.069 C 
ENDBRANCH   5  13
BRANCH   5  24
HETATM   24  O   UNL     1      31.433  48.328  43.268  1.00  0.00    -0.371 OA
HETATM   25  H   UNL     1      31.233  47.494  42.812  1.00  0.00     0.212 HD
ENDBRANCH   5  24
TORSDOF 2
ENDMDL
MODEL 4
REMARK VINA RESULT:      -8.1     11.453     13.132
REMARK  2 active torsions:
REMARK  status: ('A' for Active; 'I' for Inactive)
REMARK    1  A    between atoms: C_5  and  C_7 
REMARK    2  A    between atoms: C_5  and  O_6 
ROOT
HETATM    1  C   UNL     1      27.758  52.011  41.420  1.00  0.00     0.050 C 
HETATM    2  C   UNL     1      29.192  52.240  41.057  1.00  0.00    -0.035 A 
HETATM    3  C   UNL     1      30.224  51.384  41.407  1.00  0.00     0.051 A 
HETATM    4  C   UNL     1      31.557  51.624  41.046  1.00  0.00     0.018 A 
HETATM    5  C   UNL     1      32.427  50.477  41.519  1.00  0.00     0.199 A 
HETATM    6  C   UNL     1      31.387  49.595  42.290  1.00  0.00     0.266 A 
HETATM    7  O   UNL     1      31.564  48.539  42.878  1.00  0.00    -0.269 OA
HETATM    8  N   UNL     1      30.138  50.199  42.129  1.00  0.00    -0.323 N 
HETATM    9  C   UNL     1      31.896  52.746  40.305  1.00  0.00     0.013 A 
HETATM   10  C   UNL     1      30.880  53.631  39.946  1.00  0.00     0.001 A 
HETATM   11  C   UNL     1      29.546  53.380  40.317  1.00  0.00     0.009 A 
HETATM   12  H   UNL     1      29.300  49.799  42.522  1.00  0.00     0.169 HD
ENDROOT
BRANCH   5  13
HETATM   13  C   UNL     1      33.512  51.052  42.402  1.00  0.00     0.025 A 
HETATM   14  C   UNL     1      34.938  51.076  42.148  1.00  0.00     0.003 A 
HETATM   15  C   UNL     1      35.550  51.720  43.223  1.00  0.00     0.043 A 
HETATM   16  C   UNL     1      35.772  50.615  41.105  1.00  0.00     0.014 A 
HETATM   17  C   UNL     1      36.933  51.928  43.309  1.00  0.00     0.030 A 
HETATM   18  N   UNL     1      34.559  52.077  44.100  1.00  0.00    -0.359 N 
HETATM   19  C   UNL     1      37.727  51.463  42.260  1.00  0.00     0.002 A 
HETATM   20  C   UNL     1      37.156  50.814  41.172  1.00  0.00     0.001 A 
HETATM   21  H   UNL     1      34.719  52.572  44.966  1.00  0.00     0.166 HD
HETATM   22  C   UNL     1      33.332  51.682  43.635  1.00  0.00     0.016 A 
HETATM   23  C   UNL     1      32.099  51.971  44.417  1.00  0.00     0.069 C 
ENDBRANCH   5  13
BRANCH   5  24
HETATM   24  O   UNL     1      32.921  49.782  40.375  1.00  0.00    -0.371 OA
HETATM   25  H   UNL     1      33.547  49.118  40.705  1.00  0.00     0.212 HD
ENDBRANCH   5  24
TORSDOF 2
ENDMDL
MODEL 5
REMARK VINA RESULT:      -8.1      1.600      5.702
REMARK  2 active torsions:
REMARK  status: ('A' for Active; 'I' for Inactive)
REMARK    1  A    between atoms: C_5  and  C_7 
REMARK    2  A    between atoms: C_5  and  O_6 
ROOT
HETATM    1  C   UNL     1      29.428  43.778  53.898  1.00  0.00     0.050 C 
HETATM    2  C   UNL     1      27.951  43.938  53.715  1.00  0.00    -0.035 A 
HETATM    3  C   UNL     1      27.295  43.727  52.513  1.00  0.00     0.051 A 
HETATM    4  C   UNL     1      25.908  43.880  52.375  1.00  0.00     0.018 A 
HETATM    5  C   UNL     1      25.492  43.515  50.964  1.00  0.00     0.199 A 
HETATM    6  C   UNL     1      26.880  43.222  50.298  1.00  0.00     0.266 A 
HETATM    7  O   UNL     1      27.122  42.885  49.149  1.00  0.00    -0.269 OA
HETATM    8  N   UNL     1      27.848  43.342  51.297  1.00  0.00    -0.323 N 
HETATM    9  C   UNL     1      25.128  44.249  53.461  1.00  0.00     0.013 A 
HETATM   10  C   UNL     1      25.763  44.477  54.681  1.00  0.00     0.001 A 
HETATM   11  C   UNL     1      27.156  44.324  54.806  1.00  0.00     0.009 A 
HETATM   12  H   UNL     1      28.825  43.178  51.112  1.00  0.00     0.169 HD
ENDROOT
BRANCH   5  13
HETATM   13  C   UNL     1      24.770  44.704  50.371  1.00  0.00     0.025 A 
HETATM   14  C   UNL     1      25.309  46.021  50.102  1.00  0.00     0.003 A 
HETATM   15  C   UNL     1      24.292  46.790  49.537  1.00  0.00     0.043 A 
HETATM   16  C   UNL     1      26.569  46.637  50.281  1.00  0.00     0.014 A 
HETATM   17  C   UNL     1      24.464  48.123  49.143  1.00  0.00     0.030 A 
HETATM   18  N   UNL     1      23.179  45.994  49.460  1.00  0.00    -0.359 N 
HETATM   19  C   UNL     1      25.720  48.700  49.331  1.00  0.00     0.002 A 
HETATM   20  C   UNL     1      26.760  47.970  49.893  1.00  0.00     0.001 A 
HETATM   21  H   UNL     1      22.293  46.294  49.076  1.00  0.00     0.166 HD
HETATM   22  C   UNL     1      23.437  44.744  49.959  1.00  0.00     0.016 A 
HETATM   23  C   UNL     1      22.376  43.700  49.969  1.00  0.00     0.069 C 
ENDBRANCH   5  13
BRANCH   5  24
HETATM   24  O   UNL     1      24.704  42.327  51.018  1.00  0.00    -0.371 OA
HETATM   25  H   UNL     1      24.427  42.139  50.107  1.00  0.00     0.212 HD
ENDBRANCH   5  24
TORSDOF 2
ENDMDL
MODEL 6
REMARK VINA RESULT:      -8.0     11.836     13.236
REMARK  2 active torsions:
REMARK  status: ('A' for Active; 'I' for Inactive)
REMARK    1  A    between atoms: C_5  and  C_7 
REMARK    2  A    between atoms: C_5  and  O_6 
ROOT
HETATM    1  C   UNL     1      26.162  49.755  37.952  1.00  0.00     0.050 C 
HETATM    2  C   UNL     1      27.061  49.650  39.144  1.00  0.00    -0.035 A 
HETATM    3  C   UNL     1      27.860  50.685  39.603  1.00  0.00     0.051 A 
HETATM    4  C   UNL     1      28.688  50.555  40.727  1.00  0.00     0.018 A 
HETATM    5  C   UNL     1      29.378  51.875  41.007  1.00  0.00     0.199 A 
HETATM    6  C   UNL     1      28.880  52.746  39.803  1.00  0.00     0.266 A 
HETATM    7  O   UNL     1      29.143  53.910  39.540  1.00  0.00    -0.269 OA
HETATM    8  N   UNL     1      27.980  51.965  39.076  1.00  0.00    -0.323 N 
HETATM    9  C   UNL     1      28.732  49.365  41.437  1.00  0.00     0.013 A 
HETATM   10  C   UNL     1      27.945  48.303  40.993  1.00  0.00     0.001 A 
HETATM   11  C   UNL     1      27.121  48.444  39.862  1.00  0.00     0.009 A 
HETATM   12  H   UNL     1      27.508  52.321  38.259  1.00  0.00     0.169 HD
ENDROOT
BRANCH   5  13
HETATM   13  C   UNL     1      30.869  51.628  41.005  1.00  0.00     0.025 A 
HETATM   14  C   UNL     1      31.780  51.711  42.129  1.00  0.00     0.003 A 
HETATM   15  C   UNL     1      33.055  51.385  41.668  1.00  0.00     0.043 A 
HETATM   16  C   UNL     1      31.645  52.031  43.499  1.00  0.00     0.014 A 
HETATM   17  C   UNL     1      34.187  51.358  42.492  1.00  0.00     0.030 A 
HETATM   18  N   UNL     1      32.945  51.114  40.329  1.00  0.00    -0.359 N 
HETATM   19  C   UNL     1      34.018  51.675  43.840  1.00  0.00     0.002 A 
HETATM   20  C   UNL     1      32.765  52.008  44.340  1.00  0.00     0.001 A 
HETATM   21  H   UNL     1      33.718  50.836  39.741  1.00  0.00     0.166 HD
HETATM   22  C   UNL     1      31.649  51.259  39.908  1.00  0.00     0.016 A 
HETATM   23  C   UNL     1      31.284  51.006  38.487  1.00  0.00     0.069 C 
ENDBRANCH   5  13
BRANCH   5  24
HETATM   24  O   UNL     1      28.879  52.394  42.239  1.00  0.00    -0.371 OA
HETATM   25  H   UNL     1      27.912  52.424  42.154  1.00  0.00     0.212 HD
ENDBRANCH   5  24
TORSDOF 2
ENDMDL
MODEL 7
REMARK VINA RESULT:      -7.8      1.652      5.611
REMARK  2 active torsions:
REMARK  status: ('A' for Active; 'I' for Inactive)
REMARK    1  A    between atoms: C_5  and  C_7 
REMARK    2  A    between atoms: C_5  and  O_6 
ROOT
HETATM    1  C   UNL     1      28.622  43.872  52.884  1.00  0.00     0.050 C 
HETATM    2  C   UNL     1      27.445  44.794  52.834  1.00  0.00    -0.035 A 
HETATM    3  C   UNL     1      26.541  44.836  51.785  1.00  0.00     0.051 A 
HETATM    4  C   UNL     1      25.444  45.710  51.771  1.00  0.00     0.018 A 
HETATM    5  C   UNL     1      24.615  45.467  50.526  1.00  0.00     0.199 A 
HETATM    6  C   UNL     1      25.472  44.380  49.790  1.00  0.00     0.266 A 
HETATM    7  O   UNL     1      25.256  43.830  48.721  1.00  0.00    -0.269 OA
HETATM    8  N   UNL     1      26.544  44.067  50.627  1.00  0.00    -0.323 N 
HETATM    9  C   UNL     1      25.218  46.575  52.830  1.00  0.00     0.013 A 
HETATM   10  C   UNL     1      26.117  46.562  53.896  1.00  0.00     0.001 A 
HETATM   11  C   UNL     1      27.215  45.683  53.898  1.00  0.00     0.009 A 
HETATM   12  H   UNL     1      27.229  43.371  50.376  1.00  0.00     0.169 HD
ENDROOT
BRANCH   5  13
HETATM   13  C   UNL     1      24.513  46.774  49.774  1.00  0.00     0.025 A 
HETATM   14  C   UNL     1      25.572  47.727  49.510  1.00  0.00     0.003 A 
HETATM   15  C   UNL     1      25.026  48.774  48.768  1.00  0.00     0.043 A 
HETATM   16  C   UNL     1      26.947  47.801  49.828  1.00  0.00     0.014 A 
HETATM   17  C   UNL     1      25.772  49.876  48.329  1.00  0.00     0.030 A 
HETATM   18  N   UNL     1      23.699  48.490  48.581  1.00  0.00    -0.359 N 
HETATM   19  C   UNL     1      27.127  49.917  48.658  1.00  0.00     0.002 A 
HETATM   20  C   UNL     1      27.709  48.894  49.397  1.00  0.00     0.001 A 
HETATM   21  H   UNL     1      23.060  49.077  48.062  1.00  0.00     0.166 HD
HETATM   22  C   UNL     1      23.366  47.302  49.179  1.00  0.00     0.016 A 
HETATM   23  C   UNL     1      21.974  46.780  49.099  1.00  0.00     0.069 C 
ENDBRANCH   5  13
BRANCH   5  24
HETATM   24  O   UNL     1      23.355  44.926  50.920  1.00  0.00    -0.371 OA
HETATM   25  H   UNL     1      22.770  44.998  50.148  1.00  0.00     0.212 HD
ENDBRANCH   5  24
TORSDOF 2
ENDMDL
MODEL 8
REMARK VINA RESULT:      -7.8      6.984     10.996
REMARK  2 active torsions:
REMARK  status: ('A' for Active; 'I' for Inactive)
REMARK    1  A    between atoms: C_5  and  C_7 
REMARK    2  A    between atoms: C_5  and  O_6 
ROOT
HETATM    1  C   UNL     1      22.408  47.135  48.396  1.00  0.00     0.050 C 
HETATM    2  C   UNL     1      21.867  48.501  48.677  1.00  0.00    -0.035 A 
HETATM    3  C   UNL     1      20.520  48.776  48.857  1.00  0.00     0.051 A 
HETATM    4  C   UNL     1      20.045  50.068  49.125  1.00  0.00     0.018 A 
HETATM    5  C   UNL     1      18.545  50.026  49.334  1.00  0.00     0.199 A 
HETATM    6  C   UNL     1      18.234  48.517  49.048  1.00  0.00     0.266 A 
HETATM    7  O   UNL     1      17.158  47.938  49.073  1.00  0.00    -0.269 OA
HETATM    8  N   UNL     1      19.456  47.883  48.816  1.00  0.00    -0.323 N 
HETATM    9  C   UNL     1      20.924  51.136  49.227  1.00  0.00     0.013 A 
HETATM   10  C   UNL     1      22.284  50.890  49.042  1.00  0.00     0.001 A 
HETATM   11  C   UNL     1      22.749  49.590  48.770  1.00  0.00     0.009 A 
HETATM   12  H   UNL     1      19.515  46.894  48.628  1.00  0.00     0.169 HD
ENDROOT
BRANCH   5  13
HETATM   13  C   UNL     1      17.911  50.977  48.345  1.00  0.00     0.025 A 
HETATM   14  C   UNL     1      18.029  50.958  46.901  1.00  0.00     0.003 A 
HETATM   15  C   UNL     1      17.263  52.009  46.398  1.00  0.00     0.043 A 
HETATM   16  C   UNL     1      18.713  50.146  45.968  1.00  0.00     0.014 A 
HETATM   17  C   UNL     1      17.141  52.286  45.030  1.00  0.00     0.030 A 
HETATM   18  N   UNL     1      16.699  52.648  47.471  1.00  0.00    -0.359 N 
HETATM   19  C   UNL     1      17.827  51.464  44.136  1.00  0.00     0.002 A 
HETATM   20  C   UNL     1      18.604  50.407  44.596  1.00  0.00     0.001 A 
HETATM   21  H   UNL     1      16.080  53.444  47.395  1.00  0.00     0.166 HD
HETATM   22  C   UNL     1      17.077  52.055  48.646  1.00  0.00     0.016 A 
HETATM   23  C   UNL     1      16.578  52.573  49.949  1.00  0.00     0.069 C 
ENDBRANCH   5  13
BRANCH   5  24
HETATM   24  O   UNL     1      18.269  50.342  50.698  1.00  0.00    -0.371 OA
HETATM   25  H   UNL     1      18.793  51.131  50.909  1.00  0.00     0.212 HD
ENDBRANCH   5  24
TORSDOF 2
ENDMDL
MODEL 9
REMARK VINA RESULT:      -7.7      2.127      6.203
REMARK  2 active torsions:
REMARK  status: ('A' for Active; 'I' for Inactive)
REMARK    1  A    between atoms: C_5  and  C_7 
REMARK    2  A    between atoms: C_5  and  O_6 
ROOT
HETATM    1  C   UNL     1      31.472  43.429  56.289  1.00  0.00     0.050 C 
HETATM    2  C   UNL     1      30.314  44.197  55.733  1.00  0.00    -0.035 A 
HETATM    3  C   UNL     1      29.293  43.625  54.990  1.00  0.00     0.051 A 
HETATM    4  C   UNL     1      28.218  44.372  54.487  1.00  0.00     0.018 A 
HETATM    5  C   UNL     1      27.245  43.450  53.780  1.00  0.00     0.199 A 
HETATM    6  C   UNL     1      27.989  42.075  53.881  1.00  0.00     0.266 A 
HETATM    7  O   UNL     1      27.640  40.983  53.460  1.00  0.00    -0.269 OA
HETATM    8  N   UNL     1      29.147  42.290  54.631  1.00  0.00    -0.323 N 
HETATM    9  C   UNL     1      28.133  45.735  54.727  1.00  0.00     0.013 A 
HETATM   10  C   UNL     1      29.150  46.339  55.464  1.00  0.00     0.001 A 
HETATM   11  C   UNL     1      30.226  45.580  55.960  1.00  0.00     0.009 A 
HETATM   12  H   UNL     1      29.785  41.541  54.849  1.00  0.00     0.169 HD
ENDROOT
BRANCH   5  13
HETATM   13  C   UNL     1      27.078  43.951  52.363  1.00  0.00     0.025 A 
HETATM   14  C   UNL     1      26.373  45.138  51.923  1.00  0.00     0.003 A 
HETATM   15  C   UNL     1      26.495  45.214  50.535  1.00  0.00     0.043 A 
HETATM   16  C   UNL     1      25.642  46.160  52.570  1.00  0.00     0.014 A 
HETATM   17  C   UNL     1      25.937  46.246  49.770  1.00  0.00     0.030 A 
HETATM   18  N   UNL     1      27.235  44.133  50.134  1.00  0.00    -0.359 N 
HETATM   19  C   UNL     1      25.224  47.241  50.440  1.00  0.00     0.002 A 
HETATM   20  C   UNL     1      25.077  47.200  51.822  1.00  0.00     0.001 A 
HETATM   21  H   UNL     1      27.489  43.945  49.174  1.00  0.00     0.166 HD
HETATM   22  C   UNL     1      27.590  43.359  51.207  1.00  0.00     0.016 A 
HETATM   23  C   UNL     1      28.409  42.131  51.016  1.00  0.00     0.069 C 
ENDBRANCH   5  13
BRANCH   5  24
HETATM   24  O   UNL     1      26.030  43.416  54.528  1.00  0.00    -0.371 OA
HETATM   25  H   UNL     1      25.420  44.032  54.092  1.00  0.00     0.212 HD
ENDBRANCH   5  24
TORSDOF 2
ENDMDL
MODEL 10
REMARK VINA RESULT:      -7.6      6.621      8.996
REMARK  2 active torsions:
REMARK  status: ('A' for Active; 'I' for Inactive)
REMARK    1  A    between atoms: C_5  and  C_7 
REMARK    2  A    between atoms: C_5  and  O_6 
ROOT
HETATM    1  C   UNL     1      16.341  52.494  48.313  1.00  0.00     0.050 C 
HETATM    2  C   UNL     1      16.965  51.230  47.811  1.00  0.00    -0.035 A 
HETATM    3  C   UNL     1      17.608  50.310  48.624  1.00  0.00     0.051 A 
HETATM    4  C   UNL     1      18.179  49.131  48.123  1.00  0.00     0.018 A 
HETATM    5  C   UNL     1      18.743  48.312  49.266  1.00  0.00     0.199 A 
HETATM    6  C   UNL     1      18.485  49.262  50.486  1.00  0.00     0.266 A 
HETATM    7  O   UNL     1      18.756  49.086  51.664  1.00  0.00    -0.269 OA
HETATM    8  N   UNL     1      17.792  50.372  50.000  1.00  0.00    -0.323 N 
HETATM    9  C   UNL     1      18.112  48.836  46.770  1.00  0.00     0.013 A 
HETATM   10  C   UNL     1      17.479  49.748  45.926  1.00  0.00     0.001 A 
HETATM   11  C   UNL     1      16.913  50.928  46.440  1.00  0.00     0.009 A 
HETATM   12  H   UNL     1      17.494  51.119  50.608  1.00  0.00     0.169 HD
ENDROOT
BRANCH   5  13
HETATM   13  C   UNL     1      20.208  48.068  48.983  1.00  0.00     0.025 A 
HETATM   14  C   UNL     1      21.264  49.055  48.880  1.00  0.00     0.003 A 
HETATM   15  C   UNL     1      22.457  48.376  48.628  1.00  0.00     0.043 A 
HETATM   16  C   UNL     1      21.325  50.463  48.979  1.00  0.00     0.014 A 
HETATM   17  C   UNL     1      23.691  49.021  48.475  1.00  0.00     0.030 A 
HETATM   18  N   UNL     1      22.159  47.039  48.576  1.00  0.00    -0.359 N 
HETATM   19  C   UNL     1      23.716  50.412  48.582  1.00  0.00     0.002 A 
HETATM   20  C   UNL     1      22.550  51.126  48.830  1.00  0.00     0.001 A 
HETATM   21  H   UNL     1      22.842  46.312  48.419  1.00  0.00     0.166 HD
HETATM   22  C   UNL     1      20.820  46.830  48.778  1.00  0.00     0.016 A 
HETATM   23  C   UNL     1      20.262  45.450  48.776  1.00  0.00     0.069 C 
ENDBRANCH   5  13
BRANCH   5  24
HETATM   24  O   UNL     1      17.972  47.118  49.391  1.00  0.00    -0.371 OA
HETATM   25  H   UNL     1      18.603  46.381  49.392  1.00  0.00     0.212 HD
ENDBRANCH   5  24
TORSDOF 2
ENDMDL
