MODEL 1
REMARK VINA RESULT:      -9.3      0.000      0.000
REMARK  7 active torsions:
REMARK  status: ('A' for Active; 'I' for Inactive)
REMARK    1  A    between atoms: C_2  and  C_3 
REMARK    2  A    between atoms: C_3  and  C_4 
REMARK    3  A    between atoms: C_3  and  C_12 
REMARK    4  A    between atoms: C_7  and  O_8 
REMARK    5  A    between atoms: C_12  and  C_13 
REMARK       I    between atoms: C_13  and  N_14 
REMARK    6  A    between atoms: N_14  and  C_15 
REMARK    7  A    between atoms: C_22  and  C_23 
REMARK       I    between atoms: C_23  and  N_24 
ROOT
HETATM    1  C   UNL     1      26.874  45.203  50.714  1.00  0.00     0.222 C 
HETATM    2  N   UNL     1      26.223  46.383  51.053  1.00  0.00    -0.327 N 
HETATM    3  O   UNL     1      27.143  44.848  49.575  1.00  0.00    -0.273 OA
HETATM    4  H   UNL     1      25.895  46.464  52.006  1.00  0.00     0.169 HD
ENDROOT
BRANCH   2   5
HETATM    5  C   UNL     1      25.846  47.421  50.172  1.00  0.00     0.035 A 
HETATM    6  C   UNL     1      24.526  47.626  49.745  1.00  0.00     0.046 A 
HETATM    7  C   UNL     1      24.237  48.685  48.858  1.00  0.00     0.030 A 
HETATM    8  C   UNL     1      25.271  49.510  48.439  1.00  0.00     0.063 A 
HETATM    9  C   UNL     1      23.072  49.186  48.202  1.00  0.00     0.156 A 
HETATM   10  N   UNL     1      24.686  50.436  47.621  1.00  0.00    -0.277 N 
HETATM   11  C   UNL     1      26.599  49.330  48.835  1.00  0.00     0.034 A 
HETATM   12  H   UNL     1      25.139  51.206  47.142  1.00  0.00     0.189 HD
HETATM   13  N   UNL     1      23.364  50.271  47.448  1.00  0.00    -0.168 NA
HETATM   14  C   UNL     1      26.864  48.260  49.700  1.00  0.00     0.032 A 
BRANCH   9  15
HETATM   15  C   UNL     1      21.705  48.650  48.270  1.00  0.00     0.270 C 
HETATM   16  N   UNL     1      21.169  48.643  49.528  1.00  0.00    -0.365 N 
HETATM   17  H   UNL     1      21.720  49.014  50.293  1.00  0.00     0.159 HD
HETATM   18  H   UNL     1      20.224  48.322  49.664  1.00  0.00     0.159 HD
HETATM   19  O   UNL     1      21.063  48.248  47.306  1.00  0.00    -0.266 OA
ENDBRANCH   9  15
ENDBRANCH   2   5
BRANCH   1  20
HETATM   20  C   UNL     1      27.169  44.357  51.948  1.00  0.00     0.112 C 
BRANCH  20  21
HETATM   21  C   UNL     1      26.986  45.005  53.337  1.00  0.00     0.027 C 
BRANCH  21  22
HETATM   22  C   UNL     1      25.661  44.618  54.030  1.00  0.00     0.005 C 
HETATM   23  C   UNL     1      25.829  43.482  55.034  1.00  0.00     0.006 C 
ENDBRANCH  21  22
BRANCH  21  24
HETATM   24  C   UNL     1      28.210  44.867  54.233  1.00  0.00    -0.053 A 
HETATM   25  C   UNL     1      29.047  43.746  54.193  1.00  0.00     0.010 A 
HETATM   26  C   UNL     1      30.145  43.642  55.053  1.00  0.00     0.037 A 
HETATM   27  C   UNL     1      30.423  44.643  55.983  1.00  0.00     0.068 A 
HETATM   28  C   UNL     1      29.605  45.769  56.026  1.00  0.00     0.037 A 
HETATM   29  C   UNL     1      28.511  45.880  55.157  1.00  0.00     0.010 A 
BRANCH  27  30
HETATM   30  O   UNL     1      31.510  44.407  56.776  1.00  0.00    -0.356 OA
HETATM   31  C   UNL     1      31.717  43.062  57.189  1.00  0.00     0.210 C 
ENDBRANCH  27  30
ENDBRANCH  21  24
ENDBRANCH  20  21
ENDBRANCH   1  20
TORSDOF 7
ENDMDL
MODEL 2
REMARK VINA RESULT:      -8.9      2.243      3.339
REMARK  7 active torsions:
REMARK  status: ('A' for Active; 'I' for Inactive)
REMARK    1  A    between atoms: C_2  and  C_3 
REMARK    2  A    between atoms: C_3  and  C_4 
REMARK    3  A    between atoms: C_3  and  C_12 
REMARK    4  A    between atoms: C_7  and  O_8 
REMARK    5  A    between atoms: C_12  and  C_13 
REMARK       I    between atoms: C_13  and  N_14 
REMARK    6  A    between atoms: N_14  and  C_15 
REMARK    7  A    between atoms: C_22  and  C_23 
REMARK       I    between atoms: C_23  and  N_24 
ROOT
HETATM    1  C   UNL     1      25.782  46.747  52.884  1.00  0.00     0.222 C 
HETATM    2  N   UNL     1      26.003  46.577  51.523  1.00  0.00    -0.327 N 
HETATM    3  O   UNL     1      25.413  47.786  53.414  1.00  0.00    -0.273 OA
HETATM    4  H   UNL     1      26.486  45.733  51.243  1.00  0.00     0.169 HD
ENDROOT
BRANCH   2   5
HETATM    5  C   UNL     1      25.753  47.521  50.504  1.00  0.00     0.035 A 
HETATM    6  C   UNL     1      24.468  47.807  50.019  1.00  0.00     0.046 A 
HETATM    7  C   UNL     1      24.307  48.763  48.993  1.00  0.00     0.030 A 
HETATM    8  C   UNL     1      25.431  49.409  48.495  1.00  0.00     0.063 A 
HETATM    9  C   UNL     1      23.212  49.293  48.246  1.00  0.00     0.156 A 
HETATM   10  N   UNL     1      24.960  50.274  47.548  1.00  0.00    -0.277 N 
HETATM   11  C   UNL     1      26.725  49.143  48.947  1.00  0.00     0.034 A 
HETATM   12  H   UNL     1      25.500  50.920  46.984  1.00  0.00     0.189 HD
HETATM   13  N   UNL     1      23.630  50.231  47.364  1.00  0.00    -0.168 NA
HETATM   14  C   UNL     1      26.862  48.175  49.951  1.00  0.00     0.032 A 
BRANCH   9  15
HETATM   15  C   UNL     1      21.794  48.921  48.348  1.00  0.00     0.270 C 
HETATM   16  N   UNL     1      21.221  49.225  49.553  1.00  0.00    -0.365 N 
HETATM   17  H   UNL     1      21.785  49.688  50.256  1.00  0.00     0.159 HD
HETATM   18  H   UNL     1      20.244  49.034  49.700  1.00  0.00     0.159 HD
HETATM   19  O   UNL     1      21.143  48.396  47.452  1.00  0.00    -0.266 OA
ENDBRANCH   9  15
ENDBRANCH   2   5
BRANCH   1  20
HETATM   20  C   UNL     1      26.116  45.480  53.664  1.00  0.00     0.112 C 
BRANCH  20  21
HETATM   21  C   UNL     1      27.597  45.057  53.771  1.00  0.00     0.027 C 
BRANCH  21  22
HETATM   22  C   UNL     1      28.189  45.233  55.186  1.00  0.00     0.005 C 
HETATM   23  C   UNL     1      28.339  46.697  55.587  1.00  0.00     0.006 C 
ENDBRANCH  21  22
BRANCH  21  24
HETATM   24  C   UNL     1      27.882  43.696  53.151  1.00  0.00    -0.053 A 
HETATM   25  C   UNL     1      29.023  42.950  53.468  1.00  0.00     0.010 A 
HETATM   26  C   UNL     1      29.266  41.717  52.854  1.00  0.00     0.037 A 
HETATM   27  C   UNL     1      28.387  41.209  51.899  1.00  0.00     0.068 A 
HETATM   28  C   UNL     1      27.242  41.935  51.582  1.00  0.00     0.037 A 
HETATM   29  C   UNL     1      26.991  43.165  52.204  1.00  0.00     0.010 A 
BRANCH  27  30
HETATM   30  O   UNL     1      28.754  40.007  51.361  1.00  0.00    -0.356 OA
HETATM   31  C   UNL     1      28.366  39.767  50.015  1.00  0.00     0.210 C 
ENDBRANCH  27  30
ENDBRANCH  21  24
ENDBRANCH  20  21
ENDBRANCH   1  20
TORSDOF 7
ENDMDL
MODEL 3
REMARK VINA RESULT:      -8.8      5.722      7.908
REMARK  7 active torsions:
REMARK  status: ('A' for Active; 'I' for Inactive)
REMARK    1  A    between atoms: C_2  and  C_3 
REMARK    2  A    between atoms: C_3  and  C_4 
REMARK    3  A    between atoms: C_3  and  C_12 
REMARK    4  A    between atoms: C_7  and  O_8 
REMARK    5  A    between atoms: C_12  and  C_13 
REMARK       I    between atoms: C_13  and  N_14 
REMARK    6  A    between atoms: N_14  and  C_15 
REMARK    7  A    between atoms: C_22  and  C_23 
REMARK       I    between atoms: C_23  and  N_24 
ROOT
HETATM    1  C   UNL     1      29.142  41.912  53.075  1.00  0.00     0.222 C 
HETATM    2  N   UNL     1      28.822  42.219  51.758  1.00  0.00    -0.327 N 
HETATM    3  O   UNL     1      28.644  41.007  53.729  1.00  0.00    -0.273 OA
HETATM    4  H   UNL     1      29.163  43.102  51.401  1.00  0.00     0.169 HD
ENDROOT
BRANCH   2   5
HETATM    5  C   UNL     1      27.952  41.497  50.911  1.00  0.00     0.035 A 
HETATM    6  C   UNL     1      28.354  40.373  50.174  1.00  0.00     0.046 A 
HETATM    7  C   UNL     1      27.422  39.712  49.347  1.00  0.00     0.030 A 
HETATM    8  C   UNL     1      26.118  40.186  49.293  1.00  0.00     0.063 A 
HETATM    9  C   UNL     1      27.447  38.595  48.458  1.00  0.00     0.156 A 
HETATM   10  N   UNL     1      25.461  39.342  48.443  1.00  0.00    -0.277 N 
HETATM   11  C   UNL     1      25.685  41.307  50.005  1.00  0.00     0.034 A 
HETATM   12  H   UNL     1      24.484  39.379  48.174  1.00  0.00     0.189 HD
HETATM   13  N   UNL     1      26.228  38.375  47.914  1.00  0.00    -0.168 NA
HETATM   14  C   UNL     1      26.634  41.959  50.804  1.00  0.00     0.032 A 
BRANCH   9  15
HETATM   15  C   UNL     1      28.600  37.750  48.114  1.00  0.00     0.270 C 
HETATM   16  N   UNL     1      28.298  36.702  47.288  1.00  0.00    -0.365 N 
HETATM   17  H   UNL     1      27.344  36.598  46.965  1.00  0.00     0.159 HD
HETATM   18  H   UNL     1      29.033  36.089  46.975  1.00  0.00     0.159 HD
HETATM   19  O   UNL     1      29.747  37.941  48.501  1.00  0.00    -0.266 OA
ENDBRANCH   9  15
ENDBRANCH   2   5
BRANCH   1  20
HETATM   20  C   UNL     1      30.165  42.891  53.641  1.00  0.00     0.112 C 
BRANCH  20  21
HETATM   21  C   UNL     1      29.875  43.539  55.012  1.00  0.00     0.027 C 
BRANCH  21  22
HETATM   22  C   UNL     1      31.148  43.910  55.803  1.00  0.00     0.005 C 
HETATM   23  C   UNL     1      31.345  43.046  57.044  1.00  0.00     0.006 C 
ENDBRANCH  21  22
BRANCH  21  24
HETATM   24  C   UNL     1      28.846  44.660  54.943  1.00  0.00    -0.053 A 
HETATM   25  C   UNL     1      29.149  45.980  55.297  1.00  0.00     0.010 A 
HETATM   26  C   UNL     1      28.169  46.976  55.251  1.00  0.00     0.037 A 
HETATM   27  C   UNL     1      26.863  46.677  54.868  1.00  0.00     0.068 A 
HETATM   28  C   UNL     1      26.549  45.370  54.502  1.00  0.00     0.037 A 
HETATM   29  C   UNL     1      27.533  44.373  54.537  1.00  0.00     0.010 A 
BRANCH  27  30
HETATM   30  O   UNL     1      26.000  47.737  54.887  1.00  0.00    -0.356 OA
HETATM   31  C   UNL     1      26.251  48.745  55.857  1.00  0.00     0.210 C 
ENDBRANCH  27  30
ENDBRANCH  21  24
ENDBRANCH  20  21
ENDBRANCH   1  20
TORSDOF 7
ENDMDL
MODEL 4
REMARK VINA RESULT:      -8.7      4.725      7.646
REMARK  7 active torsions:
REMARK  status: ('A' for Active; 'I' for Inactive)
REMARK    1  A    between atoms: C_2  and  C_3 
REMARK    2  A    between atoms: C_3  and  C_4 
REMARK    3  A    between atoms: C_3  and  C_12 
REMARK    4  A    between atoms: C_7  and  O_8 
REMARK    5  A    between atoms: C_12  and  C_13 
REMARK       I    between atoms: C_13  and  N_14 
REMARK    6  A    between atoms: N_14  and  C_15 
REMARK    7  A    between atoms: C_22  and  C_23 
REMARK       I    between atoms: C_23  and  N_24 
ROOT
HETATM    1  C   UNL     1      26.780  43.450  51.885  1.00  0.00     0.222 C 
HETATM    2  N   UNL     1      26.451  42.101  51.922  1.00  0.00    -0.327 N 
HETATM    3  O   UNL     1      27.315  44.021  50.946  1.00  0.00    -0.273 OA
HETATM    4  H   UNL     1      26.192  41.720  52.822  1.00  0.00     0.169 HD
ENDROOT
BRANCH   2   5
HETATM    5  C   UNL     1      26.577  41.174  50.864  1.00  0.00     0.035 A 
HETATM    6  C   UNL     1      27.561  40.175  50.829  1.00  0.00     0.046 A 
HETATM    7  C   UNL     1      27.620  39.292  49.730  1.00  0.00     0.030 A 
HETATM    8  C   UNL     1      26.688  39.428  48.710  1.00  0.00     0.063 A 
HETATM    9  C   UNL     1      28.453  38.205  49.329  1.00  0.00     0.156 A 
HETATM   10  N   UNL     1      26.983  38.436  47.817  1.00  0.00    -0.277 N 
HETATM   11  C   UNL     1      25.701  40.416  48.706  1.00  0.00     0.034 A 
HETATM   12  H   UNL     1      26.499  38.226  46.951  1.00  0.00     0.189 HD
HETATM   13  N   UNL     1      28.043  37.682  48.151  1.00  0.00    -0.168 NA
HETATM   14  C   UNL     1      25.675  41.293  49.798  1.00  0.00     0.032 A 
BRANCH   9  15
HETATM   15  C   UNL     1      29.626  37.667  50.034  1.00  0.00     0.270 C 
HETATM   16  N   UNL     1      29.326  36.732  50.987  1.00  0.00    -0.365 N 
HETATM   17  H   UNL     1      28.357  36.468  51.120  1.00  0.00     0.159 HD
HETATM   18  H   UNL     1      30.071  36.287  51.498  1.00  0.00     0.159 HD
HETATM   19  O   UNL     1      30.786  37.992  49.810  1.00  0.00    -0.266 OA
ENDBRANCH   9  15
ENDBRANCH   2   5
BRANCH   1  20
HETATM   20  C   UNL     1      26.444  44.140  53.204  1.00  0.00     0.112 C 
BRANCH  20  21
HETATM   21  C   UNL     1      27.212  45.428  53.570  1.00  0.00     0.027 C 
BRANCH  21  22
HETATM   22  C   UNL     1      26.292  46.614  53.932  1.00  0.00     0.005 C 
HETATM   23  C   UNL     1      25.508  47.140  52.735  1.00  0.00     0.006 C 
ENDBRANCH  21  22
BRANCH  21  24
HETATM   24  C   UNL     1      28.336  45.195  54.571  1.00  0.00    -0.053 A 
HETATM   25  C   UNL     1      29.201  44.098  54.487  1.00  0.00     0.010 A 
HETATM   26  C   UNL     1      30.203  43.902  55.443  1.00  0.00     0.037 A 
HETATM   27  C   UNL     1      30.354  44.783  56.512  1.00  0.00     0.068 A 
HETATM   28  C   UNL     1      29.508  45.886  56.602  1.00  0.00     0.037 A 
HETATM   29  C   UNL     1      28.511  46.090  55.639  1.00  0.00     0.010 A 
BRANCH  27  30
HETATM   30  O   UNL     1      31.356  44.464  57.385  1.00  0.00    -0.356 OA
HETATM   31  C   UNL     1      31.972  43.195  57.211  1.00  0.00     0.210 C 
ENDBRANCH  27  30
ENDBRANCH  21  24
ENDBRANCH  20  21
ENDBRANCH   1  20
TORSDOF 7
ENDMDL
MODEL 5
REMARK VINA RESULT:      -8.3      4.549      8.492
REMARK  7 active torsions:
REMARK  status: ('A' for Active; 'I' for Inactive)
REMARK    1  A    between atoms: C_2  and  C_3 
REMARK    2  A    between atoms: C_3  and  C_4 
REMARK    3  A    between atoms: C_3  and  C_12 
REMARK    4  A    between atoms: C_7  and  O_8 
REMARK    5  A    between atoms: C_12  and  C_13 
REMARK       I    between atoms: C_13  and  N_14 
REMARK    6  A    between atoms: N_14  and  C_15 
REMARK    7  A    between atoms: C_22  and  C_23 
REMARK       I    between atoms: C_23  and  N_24 
ROOT
HETATM    1  C   UNL     1      28.052  43.414  53.199  1.00  0.00     0.222 C 
HETATM    2  N   UNL     1      27.251  42.416  52.657  1.00  0.00    -0.327 N 
HETATM    3  O   UNL     1      29.115  43.797  52.732  1.00  0.00    -0.273 OA
HETATM    4  H   UNL     1      26.503  42.067  53.240  1.00  0.00     0.169 HD
ENDROOT
BRANCH   2   5
HETATM    5  C   UNL     1      27.460  41.740  51.435  1.00  0.00     0.035 A 
HETATM    6  C   UNL     1      28.099  40.495  51.343  1.00  0.00     0.046 A 
HETATM    7  C   UNL     1      28.271  39.891  50.080  1.00  0.00     0.030 A 
HETATM    8  C   UNL     1      27.789  40.542  48.953  1.00  0.00     0.063 A 
HETATM    9  C   UNL     1      28.867  38.690  49.588  1.00  0.00     0.156 A 
HETATM   10  N   UNL     1      28.080  39.715  47.905  1.00  0.00    -0.277 N 
HETATM   11  C   UNL     1      27.156  41.787  49.005  1.00  0.00     0.034 A 
HETATM   12  H   UNL     1      27.863  39.865  46.926  1.00  0.00     0.189 HD
HETATM   13  N   UNL     1      28.734  38.593  48.245  1.00  0.00    -0.168 NA
HETATM   14  C   UNL     1      27.015  42.376  50.268  1.00  0.00     0.032 A 
BRANCH   9  15
HETATM   15  C   UNL     1      29.563  37.652  50.363  1.00  0.00     0.270 C 
HETATM   16  N   UNL     1      28.749  36.647  50.808  1.00  0.00    -0.365 N 
HETATM   17  H   UNL     1      27.766  36.674  50.564  1.00  0.00     0.159 HD
HETATM   18  H   UNL     1      29.145  35.877  51.321  1.00  0.00     0.159 HD
HETATM   19  O   UNL     1      30.765  37.645  50.600  1.00  0.00    -0.266 OA
ENDBRANCH   9  15
ENDBRANCH   2   5
BRANCH   1  20
HETATM   20  C   UNL     1      27.468  43.947  54.504  1.00  0.00     0.112 C 
BRANCH  20  21
HETATM   21  C   UNL     1      26.860  45.366  54.506  1.00  0.00     0.027 C 
BRANCH  21  22
HETATM   22  C   UNL     1      27.858  46.466  54.927  1.00  0.00     0.005 C 
HETATM   23  C   UNL     1      29.040  45.919  55.721  1.00  0.00     0.006 C 
ENDBRANCH  21  22
BRANCH  21  24
HETATM   24  C   UNL     1      26.087  45.692  53.235  1.00  0.00    -0.053 A 
HETATM   25  C   UNL     1      25.127  44.827  52.698  1.00  0.00     0.010 A 
HETATM   26  C   UNL     1      24.459  45.147  51.511  1.00  0.00     0.037 A 
HETATM   27  C   UNL     1      24.745  46.326  50.825  1.00  0.00     0.068 A 
HETATM   28  C   UNL     1      25.691  47.201  51.354  1.00  0.00     0.037 A 
HETATM   29  C   UNL     1      26.353  46.888  52.548  1.00  0.00     0.010 A 
BRANCH  27  30
HETATM   30  O   UNL     1      24.038  46.506  49.669  1.00  0.00    -0.356 OA
HETATM   31  C   UNL     1      23.639  47.837  49.369  1.00  0.00     0.210 C 
ENDBRANCH  27  30
ENDBRANCH  21  24
ENDBRANCH  20  21
ENDBRANCH   1  20
TORSDOF 7
ENDMDL
MODEL 6
REMARK VINA RESULT:      -8.3      1.850      2.602
REMARK  7 active torsions:
REMARK  status: ('A' for Active; 'I' for Inactive)
REMARK    1  A    between atoms: C_2  and  C_3 
REMARK    2  A    between atoms: C_3  and  C_4 
REMARK    3  A    between atoms: C_3  and  C_12 
REMARK    4  A    between atoms: C_7  and  O_8 
REMARK    5  A    between atoms: C_12  and  C_13 
REMARK       I    between atoms: C_13  and  N_14 
REMARK    6  A    between atoms: N_14  and  C_15 
REMARK    7  A    between atoms: C_22  and  C_23 
REMARK       I    between atoms: C_23  and  N_24 
ROOT
HETATM    1  C   UNL     1      25.499  46.929  50.902  1.00  0.00     0.222 C 
HETATM    2  N   UNL     1      25.109  47.246  49.606  1.00  0.00    -0.327 N 
HETATM    3  O   UNL     1      25.107  47.492  51.914  1.00  0.00    -0.273 OA
HETATM    4  H   UNL     1      25.648  46.836  48.855  1.00  0.00     0.169 HD
ENDROOT
BRANCH   2   5
HETATM    5  C   UNL     1      24.130  48.192  49.229  1.00  0.00     0.035 A 
HETATM    6  C   UNL     1      22.751  47.954  49.328  1.00  0.00     0.046 A 
HETATM    7  C   UNL     1      21.840  48.952  48.923  1.00  0.00     0.030 A 
HETATM    8  C   UNL     1      22.335  50.158  48.445  1.00  0.00     0.063 A 
HETATM    9  C   UNL     1      20.420  49.079  48.850  1.00  0.00     0.156 A 
HETATM   10  N   UNL     1      21.233  50.914  48.160  1.00  0.00    -0.277 N 
HETATM   11  C   UNL     1      23.701  50.426  48.323  1.00  0.00     0.034 A 
HETATM   12  H   UNL     1      21.214  51.862  47.801  1.00  0.00     0.189 HD
HETATM   13  N   UNL     1      20.061  50.298  48.384  1.00  0.00    -0.168 NA
HETATM   14  C   UNL     1      24.586  49.412  48.712  1.00  0.00     0.032 A 
BRANCH   9  15
HETATM   15  C   UNL     1      19.411  48.069  49.200  1.00  0.00     0.270 C 
HETATM   16  N   UNL     1      19.180  47.952  50.544  1.00  0.00    -0.365 N 
HETATM   17  H   UNL     1      19.684  48.561  51.178  1.00  0.00     0.159 HD
HETATM   18  H   UNL     1      18.481  47.306  50.873  1.00  0.00     0.159 HD
HETATM   19  O   UNL     1      18.800  47.381  48.391  1.00  0.00    -0.266 OA
ENDBRANCH   9  15
ENDBRANCH   2   5
BRANCH   1  20
HETATM   20  C   UNL     1      26.539  45.813  50.911  1.00  0.00     0.112 C 
BRANCH  20  21
HETATM   21  C   UNL     1      26.307  44.607  51.846  1.00  0.00     0.027 C 
BRANCH  21  22
HETATM   22  C   UNL     1      25.684  43.385  51.136  1.00  0.00     0.005 C 
HETATM   23  C   UNL     1      24.228  43.609  50.743  1.00  0.00     0.006 C 
ENDBRANCH  21  22
BRANCH  21  24
HETATM   24  C   UNL     1      27.518  44.267  52.703  1.00  0.00    -0.053 A 
HETATM   25  C   UNL     1      28.476  43.325  52.311  1.00  0.00     0.010 A 
HETATM   26  C   UNL     1      29.559  43.017  53.140  1.00  0.00     0.037 A 
HETATM   27  C   UNL     1      29.703  43.627  54.384  1.00  0.00     0.068 A 
HETATM   28  C   UNL     1      28.765  44.576  54.783  1.00  0.00     0.037 A 
HETATM   29  C   UNL     1      27.685  44.894  53.949  1.00  0.00     0.010 A 
BRANCH  27  30
HETATM   30  O   UNL     1      30.793  43.221  55.103  1.00  0.00    -0.356 OA
HETATM   31  C   UNL     1      31.058  43.924  56.309  1.00  0.00     0.210 C 
ENDBRANCH  27  30
ENDBRANCH  21  24
ENDBRANCH  20  21
ENDBRANCH   1  20
TORSDOF 7
ENDMDL
MODEL 7
REMARK VINA RESULT:      -8.3      2.073      2.719
REMARK  7 active torsions:
REMARK  status: ('A' for Active; 'I' for Inactive)
REMARK    1  A    between atoms: C_2  and  C_3 
REMARK    2  A    between atoms: C_3  and  C_4 
REMARK    3  A    between atoms: C_3  and  C_12 
REMARK    4  A    between atoms: C_7  and  O_8 
REMARK    5  A    between atoms: C_12  and  C_13 
REMARK       I    between atoms: C_13  and  N_14 
REMARK    6  A    between atoms: N_14  and  C_15 
REMARK    7  A    between atoms: C_22  and  C_23 
REMARK       I    between atoms: C_23  and  N_24 
ROOT
HETATM    1  C   UNL     1      25.512  44.812  51.339  1.00  0.00     0.222 C 
HETATM    2  N   UNL     1      25.478  45.611  50.203  1.00  0.00    -0.327 N 
HETATM    3  O   UNL     1      24.546  44.533  52.035  1.00  0.00    -0.273 OA
HETATM    4  H   UNL     1      26.369  45.916  49.835  1.00  0.00     0.169 HD
ENDROOT
BRANCH   2   5
HETATM    5  C   UNL     1      24.329  46.159  49.592  1.00  0.00     0.035 A 
HETATM    6  C   UNL     1      23.936  47.496  49.750  1.00  0.00     0.046 A 
HETATM    7  C   UNL     1      22.769  47.961  49.107  1.00  0.00     0.030 A 
HETATM    8  C   UNL     1      22.041  47.079  48.320  1.00  0.00     0.063 A 
HETATM    9  C   UNL     1      22.055  49.195  49.042  1.00  0.00     0.156 A 
HETATM   10  N   UNL     1      21.000  47.813  47.824  1.00  0.00    -0.277 N 
HETATM   11  C   UNL     1      22.395  45.739  48.148  1.00  0.00     0.034 A 
HETATM   12  H   UNL     1      20.268  47.496  47.198  1.00  0.00     0.189 HD
HETATM   13  N   UNL     1      20.969  49.090  48.240  1.00  0.00    -0.168 NA
HETATM   14  C   UNL     1      23.547  45.296  48.812  1.00  0.00     0.032 A 
BRANCH   9  15
HETATM   15  C   UNL     1      22.376  50.454  49.730  1.00  0.00     0.270 C 
HETATM   16  N   UNL     1      21.532  50.758  50.763  1.00  0.00    -0.365 N 
HETATM   17  H   UNL     1      20.787  50.109  50.989  1.00  0.00     0.159 HD
HETATM   18  H   UNL     1      21.696  51.587  51.311  1.00  0.00     0.159 HD
HETATM   19  O   UNL     1      23.314  51.188  49.443  1.00  0.00    -0.266 OA
ENDBRANCH   9  15
ENDBRANCH   2   5
BRANCH   1  20
HETATM   20  C   UNL     1      26.934  44.361  51.659  1.00  0.00     0.112 C 
BRANCH  20  21
HETATM   21  C   UNL     1      27.133  43.305  52.767  1.00  0.00     0.027 C 
BRANCH  21  22
HETATM   22  C   UNL     1      27.246  41.861  52.231  1.00  0.00     0.005 C 
HETATM   23  C   UNL     1      27.640  41.806  50.759  1.00  0.00     0.006 C 
ENDBRANCH  21  22
BRANCH  21  24
HETATM   24  C   UNL     1      28.221  43.676  53.765  1.00  0.00    -0.053 A 
HETATM   25  C   UNL     1      29.281  42.817  54.075  1.00  0.00     0.010 A 
HETATM   26  C   UNL     1      30.245  43.181  55.021  1.00  0.00     0.037 A 
HETATM   27  C   UNL     1      30.164  44.400  55.692  1.00  0.00     0.068 A 
HETATM   28  C   UNL     1      29.121  45.270  55.385  1.00  0.00     0.037 A 
HETATM   29  C   UNL     1      28.161  44.912  54.430  1.00  0.00     0.010 A 
BRANCH  27  30
HETATM   30  O   UNL     1      31.156  44.622  56.606  1.00  0.00    -0.356 OA
HETATM   31  C   UNL     1      31.712  43.474  57.232  1.00  0.00     0.210 C 
ENDBRANCH  27  30
ENDBRANCH  21  24
ENDBRANCH  20  21
ENDBRANCH   1  20
TORSDOF 7
ENDMDL
MODEL 8
REMARK VINA RESULT:      -8.3      1.756      2.695
REMARK  7 active torsions:
REMARK  status: ('A' for Active; 'I' for Inactive)
REMARK    1  A    between atoms: C_2  and  C_3 
REMARK    2  A    between atoms: C_3  and  C_4 
REMARK    3  A    between atoms: C_3  and  C_12 
REMARK    4  A    between atoms: C_7  and  O_8 
REMARK    5  A    between atoms: C_12  and  C_13 
REMARK       I    between atoms: C_13  and  N_14 
REMARK    6  A    between atoms: N_14  and  C_15 
REMARK    7  A    between atoms: C_22  and  C_23 
REMARK       I    between atoms: C_23  and  N_24 
ROOT
HETATM    1  C   UNL     1      26.494  44.785  50.784  1.00  0.00     0.222 C 
HETATM    2  N   UNL     1      25.121  44.935  50.937  1.00  0.00    -0.327 N 
HETATM    3  O   UNL     1      27.121  45.030  49.763  1.00  0.00    -0.273 OA
HETATM    4  H   UNL     1      24.707  44.519  51.761  1.00  0.00     0.169 HD
ENDROOT
BRANCH   2   5
HETATM    5  C   UNL     1      24.223  45.481  49.993  1.00  0.00     0.035 A 
HETATM    6  C   UNL     1      24.069  46.859  49.786  1.00  0.00     0.046 A 
HETATM    7  C   UNL     1      23.144  47.321  48.826  1.00  0.00     0.030 A 
HETATM    8  C   UNL     1      22.413  46.392  48.097  1.00  0.00     0.063 A 
HETATM    9  C   UNL     1      22.699  48.594  48.357  1.00  0.00     0.156 A 
HETATM   10  N   UNL     1      21.635  47.129  47.250  1.00  0.00    -0.277 N 
HETATM   11  C   UNL     1      22.532  45.013  48.285  1.00  0.00     0.034 A 
HETATM   12  H   UNL     1      20.979  46.781  46.560  1.00  0.00     0.189 HD
HETATM   13  N   UNL     1      21.774  48.459  47.379  1.00  0.00    -0.168 NA
HETATM   14  C   UNL     1      23.442  44.579  49.257  1.00  0.00     0.032 A 
BRANCH   9  15
HETATM   15  C   UNL     1      23.126  49.921  48.824  1.00  0.00     0.270 C 
HETATM   16  N   UNL     1      23.795  50.656  47.885  1.00  0.00    -0.365 N 
HETATM   17  H   UNL     1      23.925  50.261  46.961  1.00  0.00     0.159 HD
HETATM   18  H   UNL     1      24.097  51.590  48.108  1.00  0.00     0.159 HD
HETATM   19  O   UNL     1      22.911  50.370  49.944  1.00  0.00    -0.266 OA
ENDBRANCH   9  15
ENDBRANCH   2   5
BRANCH   1  20
HETATM   20  C   UNL     1      27.134  44.214  52.045  1.00  0.00     0.112 C 
BRANCH  20  21
HETATM   21  C   UNL     1      27.419  45.175  53.219  1.00  0.00     0.027 C 
BRANCH  21  22
HETATM   22  C   UNL     1      26.150  45.617  53.978  1.00  0.00     0.005 C 
HETATM   23  C   UNL     1      25.842  47.101  53.800  1.00  0.00     0.006 C 
ENDBRANCH  21  22
BRANCH  21  24
HETATM   24  C   UNL     1      28.544  44.699  54.128  1.00  0.00    -0.053 A 
HETATM   25  C   UNL     1      28.945  45.413  55.263  1.00  0.00     0.010 A 
HETATM   26  C   UNL     1      30.003  44.959  56.058  1.00  0.00     0.037 A 
HETATM   27  C   UNL     1      30.696  43.795  55.729  1.00  0.00     0.068 A 
HETATM   28  C   UNL     1      30.300  43.068  54.609  1.00  0.00     0.037 A 
HETATM   29  C   UNL     1      29.233  43.515  53.819  1.00  0.00     0.010 A 
BRANCH  27  30
HETATM   30  O   UNL     1      31.721  43.477  56.575  1.00  0.00    -0.356 OA
HETATM   31  C   UNL     1      31.701  44.088  57.858  1.00  0.00     0.210 C 
ENDBRANCH  27  30
ENDBRANCH  21  24
ENDBRANCH  20  21
ENDBRANCH   1  20
TORSDOF 7
ENDMDL
MODEL 9
REMARK VINA RESULT:      -8.1      3.256      9.910
REMARK  7 active torsions:
REMARK  status: ('A' for Active; 'I' for Inactive)
REMARK    1  A    between atoms: C_2  and  C_3 
REMARK    2  A    between atoms: C_3  and  C_4 
REMARK    3  A    between atoms: C_3  and  C_12 
REMARK    4  A    between atoms: C_7  and  O_8 
REMARK    5  A    between atoms: C_12  and  C_13 
REMARK       I    between atoms: C_13  and  N_14 
REMARK    6  A    between atoms: N_14  and  C_15 
REMARK    7  A    between atoms: C_22  and  C_23 
REMARK       I    between atoms: C_23  and  N_24 
ROOT
HETATM    1  C   UNL     1      23.705  47.526  49.681  1.00  0.00     0.222 C 
HETATM    2  N   UNL     1      23.673  46.137  49.706  1.00  0.00    -0.327 N 
HETATM    3  O   UNL     1      24.608  48.219  50.129  1.00  0.00    -0.273 OA
HETATM    4  H   UNL     1      22.791  45.698  49.479  1.00  0.00     0.169 HD
ENDROOT
BRANCH   2   5
HETATM    5  C   UNL     1      24.702  45.279  50.153  1.00  0.00     0.035 A 
HETATM    6  C   UNL     1      25.017  45.094  51.507  1.00  0.00     0.046 A 
HETATM    7  C   UNL     1      26.065  44.221  51.867  1.00  0.00     0.030 A 
HETATM    8  C   UNL     1      26.755  43.552  50.865  1.00  0.00     0.063 A 
HETATM    9  C   UNL     1      26.680  43.801  53.085  1.00  0.00     0.156 A 
HETATM   10  N   UNL     1      27.676  42.779  51.514  1.00  0.00    -0.277 N 
HETATM   11  C   UNL     1      26.476  43.718  49.506  1.00  0.00     0.034 A 
HETATM   12  H   UNL     1      28.349  42.146  51.098  1.00  0.00     0.189 HD
HETATM   13  N   UNL     1      27.667  42.905  52.851  1.00  0.00    -0.168 NA
HETATM   14  C   UNL     1      25.444  44.606  49.173  1.00  0.00     0.032 A 
BRANCH   9  15
HETATM   15  C   UNL     1      26.356  44.239  54.450  1.00  0.00     0.270 C 
HETATM   16  N   UNL     1      25.173  43.748  54.930  1.00  0.00    -0.365 N 
HETATM   17  H   UNL     1      24.633  43.122  54.343  1.00  0.00     0.159 HD
HETATM   18  H   UNL     1      24.886  43.971  55.869  1.00  0.00     0.159 HD
HETATM   19  O   UNL     1      27.062  44.969  55.136  1.00  0.00    -0.266 OA
ENDBRANCH   9  15
ENDBRANCH   2   5
BRANCH   1  20
HETATM   20  C   UNL     1      22.430  48.100  49.072  1.00  0.00     0.112 C 
BRANCH  20  21
HETATM   21  C   UNL     1      22.304  49.634  48.954  1.00  0.00     0.027 C 
BRANCH  21  22
HETATM   22  C   UNL     1      22.914  50.207  47.657  1.00  0.00     0.005 C 
HETATM   23  C   UNL     1      24.396  50.539  47.799  1.00  0.00     0.006 C 
ENDBRANCH  21  22
BRANCH  21  24
HETATM   24  C   UNL     1      20.901  50.147  49.252  1.00  0.00    -0.053 A 
HETATM   25  C   UNL     1      20.488  51.442  48.915  1.00  0.00     0.010 A 
HETATM   26  C   UNL     1      19.201  51.888  49.233  1.00  0.00     0.037 A 
HETATM   27  C   UNL     1      18.304  51.062  49.907  1.00  0.00     0.068 A 
HETATM   28  C   UNL     1      18.697  49.767  50.238  1.00  0.00     0.037 A 
HETATM   29  C   UNL     1      19.982  49.315  49.911  1.00  0.00     0.010 A 
BRANCH  27  30
HETATM   30  O   UNL     1      17.089  51.628  50.175  1.00  0.00    -0.356 OA
HETATM   31  C   UNL     1      16.872  52.939  49.670  1.00  0.00     0.210 C 
ENDBRANCH  27  30
ENDBRANCH  21  24
ENDBRANCH  20  21
ENDBRANCH   1  20
TORSDOF 7
ENDMDL
MODEL 10
REMARK VINA RESULT:      -8.0      3.663      8.412
REMARK  7 active torsions:
REMARK  status: ('A' for Active; 'I' for Inactive)
REMARK    1  A    between atoms: C_2  and  C_3 
REMARK    2  A    between atoms: C_3  and  C_4 
REMARK    3  A    between atoms: C_3  and  C_12 
REMARK    4  A    between atoms: C_7  and  O_8 
REMARK    5  A    between atoms: C_12  and  C_13 
REMARK       I    between atoms: C_13  and  N_14 
REMARK    6  A    between atoms: N_14  and  C_15 
REMARK    7  A    between atoms: C_22  and  C_23 
REMARK       I    between atoms: C_23  and  N_24 
ROOT
HETATM    1  C   UNL     1      25.486  43.500  52.208  1.00  0.00     0.222 C 
HETATM    2  N   UNL     1      26.788  43.050  52.022  1.00  0.00    -0.327 N 
HETATM    3  O   UNL     1      25.074  44.071  53.208  1.00  0.00    -0.273 OA
HETATM    4  H   UNL     1      26.947  42.430  51.239  1.00  0.00     0.169 HD
ENDROOT
BRANCH   2   5
HETATM    5  C   UNL     1      27.882  43.251  52.892  1.00  0.00     0.035 A 
HETATM    6  C   UNL     1      27.870  44.184  53.939  1.00  0.00     0.046 A 
HETATM    7  C   UNL     1      29.010  44.326  54.759  1.00  0.00     0.030 A 
HETATM    8  C   UNL     1      30.117  43.524  54.515  1.00  0.00     0.063 A 
HETATM    9  C   UNL     1      29.383  45.147  55.866  1.00  0.00     0.156 A 
HETATM   10  N   UNL     1      31.032  43.871  55.468  1.00  0.00    -0.277 N 
HETATM   11  C   UNL     1      30.168  42.592  53.475  1.00  0.00     0.034 A 
HETATM   12  H   UNL     1      31.958  43.480  55.602  1.00  0.00     0.189 HD
HETATM   13  N   UNL     1      30.631  44.849  56.297  1.00  0.00    -0.168 NA
HETATM   14  C   UNL     1      29.032  42.484  52.662  1.00  0.00     0.032 A 
BRANCH   9  15
HETATM   15  C   UNL     1      28.588  46.204  56.507  1.00  0.00     0.270 C 
HETATM   16  N   UNL     1      28.671  46.218  57.872  1.00  0.00    -0.365 N 
HETATM   17  H   UNL     1      29.270  45.539  58.329  1.00  0.00     0.159 HD
HETATM   18  H   UNL     1      28.183  46.928  58.392  1.00  0.00     0.159 HD
HETATM   19  O   UNL     1      27.907  47.028  55.906  1.00  0.00    -0.266 OA
ENDBRANCH   9  15
ENDBRANCH   2   5
BRANCH   1  20
HETATM   20  C   UNL     1      24.599  43.140  51.021  1.00  0.00     0.112 C 
BRANCH  20  21
HETATM   21  C   UNL     1      24.982  43.691  49.631  1.00  0.00     0.027 C 
BRANCH  21  22
HETATM   22  C   UNL     1      24.105  43.140  48.485  1.00  0.00     0.005 C 
HETATM   23  C   UNL     1      23.623  41.716  48.741  1.00  0.00     0.006 C 
ENDBRANCH  21  22
BRANCH  21  24
HETATM   24  C   UNL     1      25.144  45.205  49.606  1.00  0.00    -0.053 A 
HETATM   25  C   UNL     1      24.054  46.076  49.500  1.00  0.00     0.010 A 
HETATM   26  C   UNL     1      24.245  47.460  49.450  1.00  0.00     0.037 A 
HETATM   27  C   UNL     1      25.527  48.006  49.486  1.00  0.00     0.068 A 
HETATM   28  C   UNL     1      26.621  47.152  49.602  1.00  0.00     0.037 A 
HETATM   29  C   UNL     1      26.431  45.766  49.665  1.00  0.00     0.010 A 
BRANCH  27  30
HETATM   30  O   UNL     1      25.575  49.370  49.406  1.00  0.00    -0.356 OA
HETATM   31  C   UNL     1      26.305  49.919  48.317  1.00  0.00     0.210 C 
ENDBRANCH  27  30
ENDBRANCH  21  24
ENDBRANCH  20  21
ENDBRANCH   1  20
TORSDOF 7
ENDMDL
