MODEL 1
REMARK VINA RESULT:      -8.2      0.000      0.000
REMARK  5 active torsions:
REMARK  status: ('A' for Active; 'I' for Inactive)
REMARK    1  A    between atoms: C_3  and  N_4 
REMARK       I    between atoms: N_4  and  C_5 
REMARK       I    between atoms: C_5  and  N_6 
REMARK    2  A    between atoms: N_6  and  C_7 
REMARK    3  A    between atoms: C_8  and  O_9 
REMARK    4  A    between atoms: O_9  and  C_10 
REMARK    5  A    between atoms: C_10  and  C_11 
ROOT
HETATM    1  N   UNL     1      23.104  48.724  49.503  1.00  0.00    -0.307 N 
HETATM    2  C   UNL     1      22.088  48.261  48.686  1.00  0.00     0.325 C 
HETATM    3  N   UNL     1      20.946  48.068  49.441  1.00  0.00    -0.306 N 
HETATM    4  O   UNL     1      22.181  48.063  47.484  1.00  0.00    -0.247 OA
HETATM    5  H   UNL     1      22.767  49.303  50.259  1.00  0.00     0.170 HD
HETATM    6  H   UNL     1      21.030  48.176  50.444  1.00  0.00     0.171 HD
ENDROOT
BRANCH   3   7
HETATM    7  C   UNL     1      19.697  47.542  49.049  1.00  0.00     0.069 A 
HETATM    8  C   UNL     1      18.558  48.222  49.532  1.00  0.00     0.095 A 
HETATM    9  C   UNL     1      17.279  47.758  49.214  1.00  0.00     0.039 A 
HETATM   10  C   UNL     1      17.133  46.617  48.424  1.00  0.00     0.003 A 
HETATM   11  C   UNL     1      18.257  45.945  47.946  1.00  0.00     0.002 A 
HETATM   12  C   UNL     1      19.539  46.407  48.256  1.00  0.00     0.032 A 
BRANCH   8  13
HETATM   13  O   UNL     1      18.820  49.345  50.282  1.00  0.00    -0.348 OA
BRANCH  13  14
HETATM   14  C   UNL     1      18.159  50.548  49.892  1.00  0.00     0.180 C 
BRANCH  14  15
HETATM   15  C   UNL     1      19.168  51.633  49.629  1.00  0.00     0.010 A 
HETATM   16  C   UNL     1      20.185  51.549  48.516  1.00  0.00     0.007 A 
HETATM   17  C   UNL     1      19.047  52.531  48.422  1.00  0.00     0.007 A 
ENDBRANCH  14  15
ENDBRANCH  13  14
ENDBRANCH   8  13
ENDBRANCH   3   7
BRANCH   1  18
HETATM   18  C   UNL     1      24.495  48.788  49.258  1.00  0.00     0.059 A 
HETATM   19  C   UNL     1      25.503  48.038  49.882  1.00  0.00    -0.032 A 
HETATM   20  C   UNL     1      25.281  47.008  50.951  1.00  0.00     0.050 C 
HETATM   21  C   UNL     1      26.838  48.276  49.502  1.00  0.00     0.028 A 
HETATM   22  C   UNL     1      27.128  49.264  48.576  1.00  0.00     0.117 A 
HETATM   23  N   UNL     1      26.192  50.030  47.993  1.00  0.00    -0.271 NA
HETATM   24  C   UNL     1      24.911  49.771  48.348  1.00  0.00     0.146 A 
ENDBRANCH   1  18
TORSDOF 5
ENDMDL
MODEL 2
REMARK VINA RESULT:      -8.2      8.176     11.199
REMARK  5 active torsions:
REMARK  status: ('A' for Active; 'I' for Inactive)
REMARK    1  A    between atoms: C_3  and  N_4 
REMARK       I    between atoms: N_4  and  C_5 
REMARK       I    between atoms: C_5  and  N_6 
REMARK    2  A    between atoms: N_6  and  C_7 
REMARK    3  A    between atoms: C_8  and  O_9 
REMARK    4  A    between atoms: O_9  and  C_10 
REMARK    5  A    between atoms: C_10  and  C_11 
ROOT
HETATM    1  N   UNL     1      28.387  43.102  52.356  1.00  0.00    -0.307 N 
HETATM    2  C   UNL     1      28.462  43.189  53.735  1.00  0.00     0.325 C 
HETATM    3  N   UNL     1      29.679  43.737  54.093  1.00  0.00    -0.306 N 
HETATM    4  O   UNL     1      27.586  42.843  54.514  1.00  0.00    -0.247 OA
HETATM    5  H   UNL     1      28.882  43.849  51.888  1.00  0.00     0.170 HD
HETATM    6  H   UNL     1      30.355  43.889  53.355  1.00  0.00     0.171 HD
ENDROOT
BRANCH   3   7
HETATM    7  C   UNL     1      30.218  43.946  55.380  1.00  0.00     0.069 A 
HETATM    8  C   UNL     1      29.963  45.206  55.964  1.00  0.00     0.095 A 
HETATM    9  C   UNL     1      30.477  45.509  57.227  1.00  0.00     0.039 A 
HETATM   10  C   UNL     1      31.250  44.566  57.905  1.00  0.00     0.003 A 
HETATM   11  C   UNL     1      31.503  43.322  57.330  1.00  0.00     0.002 A 
HETATM   12  C   UNL     1      30.986  43.009  56.069  1.00  0.00     0.032 A 
BRANCH   8  13
HETATM   13  O   UNL     1      29.173  46.048  55.217  1.00  0.00    -0.348 OA
BRANCH  13  14
HETATM   14  C   UNL     1      28.051  46.634  55.878  1.00  0.00     0.180 C 
BRANCH  14  15
HETATM   15  C   UNL     1      27.479  47.746  55.042  1.00  0.00     0.010 A 
HETATM   16  C   UNL     1      26.128  47.652  54.374  1.00  0.00     0.007 A 
HETATM   17  C   UNL     1      26.326  48.581  55.542  1.00  0.00     0.007 A 
ENDBRANCH  14  15
ENDBRANCH  13  14
ENDBRANCH   8  13
ENDBRANCH   3   7
BRANCH   1  18
HETATM   18  C   UNL     1      27.491  42.364  51.549  1.00  0.00     0.059 A 
HETATM   19  C   UNL     1      26.160  42.683  51.247  1.00  0.00    -0.032 A 
HETATM   20  C   UNL     1      25.425  43.897  51.739  1.00  0.00     0.050 C 
HETATM   21  C   UNL     1      25.432  41.792  50.436  1.00  0.00     0.028 A 
HETATM   22  C   UNL     1      26.017  40.613  50.004  1.00  0.00     0.117 A 
HETATM   23  N   UNL     1      27.275  40.255  50.312  1.00  0.00    -0.271 NA
HETATM   24  C   UNL     1      27.971  41.136  51.070  1.00  0.00     0.146 A 
ENDBRANCH   1  18
TORSDOF 5
ENDMDL
MODEL 3
REMARK VINA RESULT:      -7.9      5.079      9.149
REMARK  5 active torsions:
REMARK  status: ('A' for Active; 'I' for Inactive)
REMARK    1  A    between atoms: C_3  and  N_4 
REMARK       I    between atoms: N_4  and  C_5 
REMARK       I    between atoms: C_5  and  N_6 
REMARK    2  A    between atoms: N_6  and  C_7 
REMARK    3  A    between atoms: C_8  and  O_9 
REMARK    4  A    between atoms: O_9  and  C_10 
REMARK    5  A    between atoms: C_10  and  C_11 
ROOT
HETATM    1  N   UNL     1      25.927  46.667  50.749  1.00  0.00    -0.307 N 
HETATM    2  C   UNL     1      26.681  45.509  50.679  1.00  0.00     0.325 C 
HETATM    3  N   UNL     1      26.587  44.829  51.879  1.00  0.00    -0.306 N 
HETATM    4  O   UNL     1      27.321  45.140  49.706  1.00  0.00    -0.247 OA
HETATM    5  H   UNL     1      25.108  46.568  51.333  1.00  0.00     0.170 HD
HETATM    6  H   UNL     1      26.104  45.293  52.638  1.00  0.00     0.171 HD
ENDROOT
BRANCH   3   7
HETATM    7  C   UNL     1      27.240  43.647  52.286  1.00  0.00     0.069 A 
HETATM    8  C   UNL     1      28.181  43.783  53.329  1.00  0.00     0.095 A 
HETATM    9  C   UNL     1      28.892  42.670  53.781  1.00  0.00     0.039 A 
HETATM   10  C   UNL     1      28.675  41.423  53.192  1.00  0.00     0.003 A 
HETATM   11  C   UNL     1      27.746  41.287  52.161  1.00  0.00     0.002 A 
HETATM   12  C   UNL     1      27.026  42.396  51.708  1.00  0.00     0.032 A 
BRANCH   8  13
HETATM   13  O   UNL     1      28.299  45.051  53.849  1.00  0.00    -0.348 OA
BRANCH  13  14
HETATM   14  C   UNL     1      28.077  45.195  55.252  1.00  0.00     0.180 C 
BRANCH  14  15
HETATM   15  C   UNL     1      29.193  45.990  55.875  1.00  0.00     0.010 A 
HETATM   16  C   UNL     1      29.512  45.931  57.349  1.00  0.00     0.007 A 
HETATM   17  C   UNL     1      30.456  45.315  56.351  1.00  0.00     0.007 A 
ENDBRANCH  14  15
ENDBRANCH  13  14
ENDBRANCH   8  13
ENDBRANCH   3   7
BRANCH   1  18
HETATM   18  C   UNL     1      25.942  47.802  49.906  1.00  0.00     0.059 A 
HETATM   19  C   UNL     1      24.847  48.397  49.263  1.00  0.00    -0.032 A 
HETATM   20  C   UNL     1      23.425  47.925  49.354  1.00  0.00     0.050 C 
HETATM   21  C   UNL     1      25.089  49.516  48.443  1.00  0.00     0.028 A 
HETATM   22  C   UNL     1      26.384  49.966  48.249  1.00  0.00     0.117 A 
HETATM   23  N   UNL     1      27.459  49.392  48.813  1.00  0.00    -0.271 NA
HETATM   24  C   UNL     1      27.208  48.334  49.621  1.00  0.00     0.146 A 
ENDBRANCH   1  18
TORSDOF 5
ENDMDL
MODEL 4
REMARK VINA RESULT:      -7.8      7.822     10.890
REMARK  5 active torsions:
REMARK  status: ('A' for Active; 'I' for Inactive)
REMARK    1  A    between atoms: C_3  and  N_4 
REMARK       I    between atoms: N_4  and  C_5 
REMARK       I    between atoms: C_5  and  N_6 
REMARK    2  A    between atoms: N_6  and  C_7 
REMARK    3  A    between atoms: C_8  and  O_9 
REMARK    4  A    between atoms: O_9  and  C_10 
REMARK    5  A    between atoms: C_10  and  C_11 
ROOT
HETATM    1  N   UNL     1      27.207  42.263  52.475  1.00  0.00    -0.307 N 
HETATM    2  C   UNL     1      27.382  43.636  52.481  1.00  0.00     0.325 C 
HETATM    3  N   UNL     1      26.971  44.144  53.699  1.00  0.00    -0.306 N 
HETATM    4  O   UNL     1      27.837  44.294  51.557  1.00  0.00    -0.247 OA
HETATM    5  H   UNL     1      27.339  41.847  53.387  1.00  0.00     0.170 HD
HETATM    6  H   UNL     1      26.523  43.503  54.341  1.00  0.00     0.171 HD
ENDROOT
BRANCH   3   7
HETATM    7  C   UNL     1      26.901  45.486  54.125  1.00  0.00     0.069 A 
HETATM    8  C   UNL     1      27.898  45.904  55.034  1.00  0.00     0.095 A 
HETATM    9  C   UNL     1      27.892  47.210  55.528  1.00  0.00     0.039 A 
HETATM   10  C   UNL     1      26.893  48.098  55.127  1.00  0.00     0.003 A 
HETATM   11  C   UNL     1      25.908  47.688  54.230  1.00  0.00     0.002 A 
HETATM   12  C   UNL     1      25.911  46.384  53.727  1.00  0.00     0.032 A 
BRANCH   8  13
HETATM   13  O   UNL     1      28.843  44.953  55.343  1.00  0.00    -0.348 OA
BRANCH  13  14
HETATM   14  C   UNL     1      29.871  45.340  56.254  1.00  0.00     0.180 C 
BRANCH  14  15
HETATM   15  C   UNL     1      31.072  44.448  56.090  1.00  0.00     0.010 A 
HETATM   16  C   UNL     1      31.533  43.496  57.168  1.00  0.00     0.007 A 
HETATM   17  C   UNL     1      30.915  42.959  55.904  1.00  0.00     0.007 A 
ENDBRANCH  14  15
ENDBRANCH  13  14
ENDBRANCH   8  13
ENDBRANCH   3   7
BRANCH   1  18
HETATM   18  C   UNL     1      27.207  41.362  51.386  1.00  0.00     0.059 A 
HETATM   19  C   UNL     1      26.196  41.184  50.431  1.00  0.00    -0.032 A 
HETATM   20  C   UNL     1      24.897  41.936  50.391  1.00  0.00     0.050 C 
HETATM   21  C   UNL     1      26.390  40.208  49.434  1.00  0.00     0.028 A 
HETATM   22  C   UNL     1      27.530  39.421  49.448  1.00  0.00     0.117 A 
HETATM   23  N   UNL     1      28.495  39.534  50.374  1.00  0.00    -0.271 NA
HETATM   24  C   UNL     1      28.308  40.496  51.310  1.00  0.00     0.146 A 
ENDBRANCH   1  18
TORSDOF 5
ENDMDL
MODEL 5
REMARK VINA RESULT:      -7.7      8.189     10.442
REMARK  5 active torsions:
REMARK  status: ('A' for Active; 'I' for Inactive)
REMARK    1  A    between atoms: C_3  and  N_4 
REMARK       I    between atoms: N_4  and  C_5 
REMARK       I    between atoms: C_5  and  N_6 
REMARK    2  A    between atoms: N_6  and  C_7 
REMARK    3  A    between atoms: C_8  and  O_9 
REMARK    4  A    between atoms: O_9  and  C_10 
REMARK    5  A    between atoms: C_10  and  C_11 
ROOT
HETATM    1  N   UNL     1      30.286  43.466  54.408  1.00  0.00    -0.307 N 
HETATM    2  C   UNL     1      29.197  42.764  53.920  1.00  0.00     0.325 C 
HETATM    3  N   UNL     1      29.286  42.683  52.544  1.00  0.00    -0.306 N 
HETATM    4  O   UNL     1      28.303  42.284  54.601  1.00  0.00    -0.247 OA
HETATM    5  H   UNL     1      31.121  43.328  53.857  1.00  0.00     0.170 HD
HETATM    6  H   UNL     1      30.025  43.209  52.095  1.00  0.00     0.171 HD
ENDROOT
BRANCH   3   7
HETATM    7  C   UNL     1      28.372  42.128  51.624  1.00  0.00     0.069 A 
HETATM    8  C   UNL     1      27.489  43.035  50.999  1.00  0.00     0.095 A 
HETATM    9  C   UNL     1      26.535  42.571  50.092  1.00  0.00     0.039 A 
HETATM   10  C   UNL     1      26.452  41.206  49.810  1.00  0.00     0.003 A 
HETATM   11  C   UNL     1      27.324  40.309  50.426  1.00  0.00     0.002 A 
HETATM   12  C   UNL     1      28.285  40.767  51.331  1.00  0.00     0.032 A 
BRANCH   8  13
HETATM   13  O   UNL     1      27.674  44.356  51.334  1.00  0.00    -0.348 OA
BRANCH  13  14
HETATM   14  C   UNL     1      26.526  45.072  51.787  1.00  0.00     0.180 C 
BRANCH  14  15
HETATM   15  C   UNL     1      26.537  45.177  53.289  1.00  0.00     0.010 A 
HETATM   16  C   UNL     1      25.698  46.179  54.043  1.00  0.00     0.007 A 
HETATM   17  C   UNL     1      25.359  44.714  54.109  1.00  0.00     0.007 A 
ENDBRANCH  14  15
ENDBRANCH  13  14
ENDBRANCH   8  13
ENDBRANCH   3   7
BRANCH   1  18
HETATM   18  C   UNL     1      30.483  44.045  55.683  1.00  0.00     0.059 A 
HETATM   19  C   UNL     1      29.995  45.276  56.142  1.00  0.00    -0.032 A 
HETATM   20  C   UNL     1      29.153  46.228  55.343  1.00  0.00     0.050 C 
HETATM   21  C   UNL     1      30.331  45.678  57.449  1.00  0.00     0.028 A 
HETATM   22  C   UNL     1      31.166  44.888  58.223  1.00  0.00     0.117 A 
HETATM   23  N   UNL     1      31.688  43.726  57.798  1.00  0.00    -0.271 NA
HETATM   24  C   UNL     1      31.333  43.340  56.549  1.00  0.00     0.146 A 
ENDBRANCH   1  18
TORSDOF 5
ENDMDL
MODEL 6
REMARK VINA RESULT:      -7.6      1.035      1.702
REMARK  5 active torsions:
REMARK  status: ('A' for Active; 'I' for Inactive)
REMARK    1  A    between atoms: C_3  and  N_4 
REMARK       I    between atoms: N_4  and  C_5 
REMARK       I    between atoms: C_5  and  N_6 
REMARK    2  A    between atoms: N_6  and  C_7 
REMARK    3  A    between atoms: C_8  and  O_9 
REMARK    4  A    between atoms: O_9  and  C_10 
REMARK    5  A    between atoms: C_10  and  C_11 
ROOT
HETATM    1  N   UNL     1      23.031  48.152  49.494  1.00  0.00    -0.307 N 
HETATM    2  C   UNL     1      22.099  47.747  48.555  1.00  0.00     0.325 C 
HETATM    3  N   UNL     1      20.977  47.265  49.203  1.00  0.00    -0.306 N 
HETATM    4  O   UNL     1      22.241  47.813  47.343  1.00  0.00    -0.247 OA
HETATM    5  H   UNL     1      22.608  48.517  50.336  1.00  0.00     0.170 HD
HETATM    6  H   UNL     1      21.027  47.174  50.210  1.00  0.00     0.171 HD
ENDROOT
BRANCH   3   7
HETATM    7  C   UNL     1      19.814  46.685  48.657  1.00  0.00     0.069 A 
HETATM    8  C   UNL     1      18.609  47.391  48.866  1.00  0.00     0.095 A 
HETATM    9  C   UNL     1      17.404  46.879  48.380  1.00  0.00     0.039 A 
HETATM   10  C   UNL     1      17.394  45.663  47.695  1.00  0.00     0.003 A 
HETATM   11  C   UNL     1      18.582  44.964  47.488  1.00  0.00     0.002 A 
HETATM   12  C   UNL     1      19.793  45.474  47.966  1.00  0.00     0.032 A 
BRANCH   8  13
HETATM   13  O   UNL     1      18.740  48.586  49.533  1.00  0.00    -0.348 OA
BRANCH  13  14
HETATM   14  C   UNL     1      18.394  49.768  48.811  1.00  0.00     0.180 C 
BRANCH  14  15
HETATM   15  C   UNL     1      19.157  50.948  49.350  1.00  0.00     0.010 A 
HETATM   16  C   UNL     1      19.351  52.222  48.563  1.00  0.00     0.007 A 
HETATM   17  C   UNL     1      18.443  52.211  49.764  1.00  0.00     0.007 A 
ENDBRANCH  14  15
ENDBRANCH  13  14
ENDBRANCH   8  13
ENDBRANCH   3   7
BRANCH   1  18
HETATM   18  C   UNL     1      24.407  48.432  49.331  1.00  0.00     0.059 A 
HETATM   19  C   UNL     1      24.979  49.518  48.652  1.00  0.00    -0.032 A 
HETATM   20  C   UNL     1      24.213  50.607  47.957  1.00  0.00     0.050 C 
HETATM   21  C   UNL     1      26.383  49.596  48.589  1.00  0.00     0.028 A 
HETATM   22  C   UNL     1      27.158  48.590  49.143  1.00  0.00     0.117 A 
HETATM   23  N   UNL     1      26.643  47.514  49.759  1.00  0.00    -0.271 NA
HETATM   24  C   UNL     1      25.292  47.467  49.836  1.00  0.00     0.146 A 
ENDBRANCH   1  18
TORSDOF 5
ENDMDL
MODEL 7
REMARK VINA RESULT:      -7.4      7.164     10.207
REMARK  5 active torsions:
REMARK  status: ('A' for Active; 'I' for Inactive)
REMARK    1  A    between atoms: C_3  and  N_4 
REMARK       I    between atoms: N_4  and  C_5 
REMARK       I    between atoms: C_5  and  N_6 
REMARK    2  A    between atoms: N_6  and  C_7 
REMARK    3  A    between atoms: C_8  and  O_9 
REMARK    4  A    between atoms: O_9  and  C_10 
REMARK    5  A    between atoms: C_10  and  C_11 
ROOT
HETATM    1  N   UNL     1      26.610  41.484  51.980  1.00  0.00    -0.307 N 
HETATM    2  C   UNL     1      27.708  42.250  52.331  1.00  0.00     0.325 C 
HETATM    3  N   UNL     1      27.648  42.545  53.679  1.00  0.00    -0.306 N 
HETATM    4  O   UNL     1      28.597  42.601  51.569  1.00  0.00    -0.247 OA
HETATM    5  H   UNL     1      26.301  40.876  52.726  1.00  0.00     0.170 HD
HETATM    6  H   UNL     1      26.808  42.277  54.176  1.00  0.00     0.171 HD
ENDROOT
BRANCH   3   7
HETATM    7  C   UNL     1      28.507  43.353  54.453  1.00  0.00     0.069 A 
HETATM    8  C   UNL     1      27.973  44.582  54.897  1.00  0.00     0.095 A 
HETATM    9  C   UNL     1      28.760  45.457  55.649  1.00  0.00     0.039 A 
HETATM   10  C   UNL     1      30.078  45.114  55.954  1.00  0.00     0.003 A 
HETATM   11  C   UNL     1      30.607  43.901  55.517  1.00  0.00     0.002 A 
HETATM   12  C   UNL     1      29.824  43.018  54.769  1.00  0.00     0.032 A 
BRANCH   8  13
HETATM   13  O   UNL     1      26.659  44.806  54.557  1.00  0.00    -0.348 OA
BRANCH  13  14
HETATM   14  C   UNL     1      26.338  46.100  54.048  1.00  0.00     0.180 C 
BRANCH  14  15
HETATM   15  C   UNL     1      25.631  45.977  52.725  1.00  0.00     0.010 A 
HETATM   16  C   UNL     1      25.779  46.999  51.623  1.00  0.00     0.007 A 
HETATM   17  C   UNL     1      26.391  45.632  51.467  1.00  0.00     0.007 A 
ENDBRANCH  14  15
ENDBRANCH  13  14
ENDBRANCH   8  13
ENDBRANCH   3   7
BRANCH   1  18
HETATM   18  C   UNL     1      26.091  41.192  50.698  1.00  0.00     0.059 A 
HETATM   19  C   UNL     1      25.000  41.802  50.063  1.00  0.00    -0.032 A 
HETATM   20  C   UNL     1      24.162  42.903  50.646  1.00  0.00     0.050 C 
HETATM   21  C   UNL     1      24.633  41.339  48.785  1.00  0.00     0.028 A 
HETATM   22  C   UNL     1      25.310  40.276  48.212  1.00  0.00     0.117 A 
HETATM   23  N   UNL     1      26.330  39.640  48.812  1.00  0.00    -0.271 NA
HETATM   24  C   UNL     1      26.689  40.114  50.029  1.00  0.00     0.146 A 
ENDBRANCH   1  18
TORSDOF 5
ENDMDL
MODEL 8
REMARK VINA RESULT:      -7.4      7.497     10.412
REMARK  5 active torsions:
REMARK  status: ('A' for Active; 'I' for Inactive)
REMARK    1  A    between atoms: C_3  and  N_4 
REMARK       I    between atoms: N_4  and  C_5 
REMARK       I    between atoms: C_5  and  N_6 
REMARK    2  A    between atoms: N_6  and  C_7 
REMARK    3  A    between atoms: C_8  and  O_9 
REMARK    4  A    between atoms: O_9  and  C_10 
REMARK    5  A    between atoms: C_10  and  C_11 
ROOT
HETATM    1  N   UNL     1      26.530  40.489  51.222  1.00  0.00    -0.307 N 
HETATM    2  C   UNL     1      27.565  41.299  51.656  1.00  0.00     0.325 C 
HETATM    3  N   UNL     1      27.259  41.801  52.907  1.00  0.00    -0.306 N 
HETATM    4  O   UNL     1      28.593  41.526  51.035  1.00  0.00    -0.247 OA
HETATM    5  H   UNL     1      26.066  40.005  51.978  1.00  0.00     0.170 HD
HETATM    6  H   UNL     1      26.332  41.614  53.267  1.00  0.00     0.171 HD
ENDROOT
BRANCH   3   7
HETATM    7  C   UNL     1      27.980  42.718  53.699  1.00  0.00     0.069 A 
HETATM    8  C   UNL     1      27.364  43.970  53.918  1.00  0.00     0.095 A 
HETATM    9  C   UNL     1      28.016  44.948  54.671  1.00  0.00     0.039 A 
HETATM   10  C   UNL     1      29.281  44.688  55.199  1.00  0.00     0.003 A 
HETATM   11  C   UNL     1      29.891  43.453  54.983  1.00  0.00     0.002 A 
HETATM   12  C   UNL     1      29.242  42.467  54.236  1.00  0.00     0.032 A 
BRANCH   8  13
HETATM   13  O   UNL     1      26.110  44.108  53.370  1.00  0.00    -0.348 OA
BRANCH  13  14
HETATM   14  C   UNL     1      25.909  45.219  52.496  1.00  0.00     0.180 C 
BRANCH  14  15
HETATM   15  C   UNL     1      25.960  44.766  51.061  1.00  0.00     0.010 A 
HETATM   16  C   UNL     1      26.222  45.713  49.916  1.00  0.00     0.007 A 
HETATM   17  C   UNL     1      27.267  44.705  50.311  1.00  0.00     0.007 A 
ENDBRANCH  14  15
ENDBRANCH  13  14
ENDBRANCH   8  13
ENDBRANCH   3   7
BRANCH   1  18
HETATM   18  C   UNL     1      26.255  40.001  49.924  1.00  0.00     0.059 A 
HETATM   19  C   UNL     1      25.436  40.590  48.950  1.00  0.00    -0.032 A 
HETATM   20  C   UNL     1      24.683  41.878  49.113  1.00  0.00     0.050 C 
HETATM   21  C   UNL     1      25.279  39.919  47.722  1.00  0.00     0.028 A 
HETATM   22  C   UNL     1      25.883  38.689  47.523  1.00  0.00     0.117 A 
HETATM   23  N   UNL     1      26.635  38.075  48.450  1.00  0.00    -0.271 NA
HETATM   24  C   UNL     1      26.799  38.745  49.616  1.00  0.00     0.146 A 
ENDBRANCH   1  18
TORSDOF 5
ENDMDL
MODEL 9
REMARK VINA RESULT:      -7.3      8.018     11.070
REMARK  5 active torsions:
REMARK  status: ('A' for Active; 'I' for Inactive)
REMARK    1  A    between atoms: C_3  and  N_4 
REMARK       I    between atoms: N_4  and  C_5 
REMARK       I    between atoms: C_5  and  N_6 
REMARK    2  A    between atoms: N_6  and  C_7 
REMARK    3  A    between atoms: C_8  and  O_9 
REMARK    4  A    between atoms: O_9  and  C_10 
REMARK    5  A    between atoms: C_10  and  C_11 
ROOT
HETATM    1  N   UNL     1      29.304  43.655  53.953  1.00  0.00    -0.307 N 
HETATM    2  C   UNL     1      28.052  43.145  53.656  1.00  0.00     0.325 C 
HETATM    3  N   UNL     1      27.846  43.204  52.291  1.00  0.00    -0.306 N 
HETATM    4  O   UNL     1      27.257  42.704  54.473  1.00  0.00    -0.247 OA
HETATM    5  H   UNL     1      29.982  43.478  53.224  1.00  0.00     0.170 HD
HETATM    6  H   UNL     1      28.545  43.683  51.737  1.00  0.00     0.171 HD
ENDROOT
BRANCH   3   7
HETATM    7  C   UNL     1      26.696  42.865  51.548  1.00  0.00     0.069 A 
HETATM    8  C   UNL     1      26.809  41.736  50.707  1.00  0.00     0.095 A 
HETATM    9  C   UNL     1      25.727  41.341  49.918  1.00  0.00     0.039 A 
HETATM   10  C   UNL     1      24.537  42.070  49.957  1.00  0.00     0.003 A 
HETATM   11  C   UNL     1      24.425  43.184  50.786  1.00  0.00     0.002 A 
HETATM   12  C   UNL     1      25.501  43.582  51.584  1.00  0.00     0.032 A 
BRANCH   8  13
HETATM   13  O   UNL     1      28.017  41.082  50.765  1.00  0.00    -0.348 OA
BRANCH  13  14
HETATM   14  C   UNL     1      28.421  40.371  49.595  1.00  0.00     0.180 C 
BRANCH  14  15
HETATM   15  C   UNL     1      28.530  38.900  49.894  1.00  0.00     0.010 A 
HETATM   16  C   UNL     1      28.667  37.856  48.812  1.00  0.00     0.007 A 
HETATM   17  C   UNL     1      29.835  38.165  49.711  1.00  0.00     0.007 A 
ENDBRANCH  14  15
ENDBRANCH  13  14
ENDBRANCH   8  13
ENDBRANCH   3   7
BRANCH   1  18
HETATM   18  C   UNL     1      29.836  44.064  55.197  1.00  0.00     0.059 A 
HETATM   19  C   UNL     1      29.611  45.279  55.859  1.00  0.00    -0.032 A 
HETATM   20  C   UNL     1      28.742  46.395  55.354  1.00  0.00     0.050 C 
HETATM   21  C   UNL     1      30.262  45.495  57.089  1.00  0.00     0.028 A 
HETATM   22  C   UNL     1      31.138  44.543  57.585  1.00  0.00     0.117 A 
HETATM   23  N   UNL     1      31.411  43.389  56.954  1.00  0.00    -0.271 NA
HETATM   24  C   UNL     1      30.756  43.184  55.787  1.00  0.00     0.146 A 
ENDBRANCH   1  18
TORSDOF 5
ENDMDL
MODEL 10
REMARK VINA RESULT:      -7.3      6.742     10.041
REMARK  5 active torsions:
REMARK  status: ('A' for Active; 'I' for Inactive)
REMARK    1  A    between atoms: C_3  and  N_4 
REMARK       I    between atoms: N_4  and  C_5 
REMARK       I    between atoms: C_5  and  N_6 
REMARK    2  A    between atoms: N_6  and  C_7 
REMARK    3  A    between atoms: C_8  and  O_9 
REMARK    4  A    between atoms: O_9  and  C_10 
REMARK    5  A    between atoms: C_10  and  C_11 
ROOT
HETATM    1  N   UNL     1      28.825  44.863  54.465  1.00  0.00    -0.307 N 
HETATM    2  C   UNL     1      27.502  44.711  54.090  1.00  0.00     0.325 C 
HETATM    3  N   UNL     1      27.394  44.867  52.721  1.00  0.00    -0.306 N 
HETATM    4  O   UNL     1      26.576  44.468  54.849  1.00  0.00    -0.247 OA
HETATM    5  H   UNL     1      29.473  44.539  53.760  1.00  0.00     0.170 HD
HETATM    6  H   UNL     1      28.222  45.163  52.221  1.00  0.00     0.171 HD
ENDROOT
BRANCH   3   7
HETATM    7  C   UNL     1      26.237  44.866  51.914  1.00  0.00     0.069 A 
HETATM    8  C   UNL     1      25.764  43.600  51.506  1.00  0.00     0.095 A 
HETATM    9  C   UNL     1      24.638  43.505  50.685  1.00  0.00     0.039 A 
HETATM   10  C   UNL     1      23.988  44.666  50.263  1.00  0.00     0.003 A 
HETATM   11  C   UNL     1      24.454  45.917  50.665  1.00  0.00     0.002 A 
HETATM   12  C   UNL     1      25.577  46.019  51.491  1.00  0.00     0.032 A 
BRANCH   8  13
HETATM   13  O   UNL     1      26.467  42.526  51.998  1.00  0.00    -0.348 OA
BRANCH  13  14
HETATM   14  C   UNL     1      27.443  41.945  51.134  1.00  0.00     0.180 C 
BRANCH  14  15
HETATM   15  C   UNL     1      28.450  41.167  51.936  1.00  0.00     0.010 A 
HETATM   16  C   UNL     1      29.554  41.831  52.724  1.00  0.00     0.007 A 
HETATM   17  C   UNL     1      28.411  41.168  53.445  1.00  0.00     0.007 A 
ENDBRANCH  14  15
ENDBRANCH  13  14
ENDBRANCH   8  13
ENDBRANCH   3   7
BRANCH   1  18
HETATM   18  C   UNL     1      29.377  45.077  55.749  1.00  0.00     0.059 A 
HETATM   19  C   UNL     1      30.451  44.394  56.337  1.00  0.00    -0.032 A 
HETATM   20  C   UNL     1      31.228  43.281  55.695  1.00  0.00     0.050 C 
HETATM   21  C   UNL     1      30.828  44.752  57.646  1.00  0.00     0.028 A 
HETATM   22  C   UNL     1      30.112  45.719  58.333  1.00  0.00     0.117 A 
HETATM   23  N   UNL     1      29.051  46.360  57.816  1.00  0.00    -0.271 NA
HETATM   24  C   UNL     1      28.717  46.024  56.547  1.00  0.00     0.146 A 
ENDBRANCH   1  18
TORSDOF 5
ENDMDL
