MODEL 1
REMARK VINA RESULT:      -9.0      0.000      0.000
REMARK  5 active torsions:
REMARK  status: ('A' for Active; 'I' for Inactive)
REMARK    1  A    between atoms: C_2  and  C_3 
REMARK    2  A    between atoms: C_7  and  N_8 
REMARK    3  A    between atoms: C_13  and  N_14 
REMARK       I    between atoms: N_14  and  C_15 
REMARK    4  A    between atoms: C_15  and  C_16 
REMARK       I    between atoms: C_16  and  N_17 
REMARK    5  A    between atoms: N_17  and  C_18 
ROOT
HETATM    1  N   UNL     1      24.475  48.321  49.262  1.00  0.00    -0.045 N 
HETATM    2  N   UNL     1      25.422  49.184  48.811  1.00  0.00    -0.156 NA
HETATM    3  C   UNL     1      26.559  48.724  49.346  1.00  0.00     0.055 A 
HETATM    4  C   UNL     1      27.847  49.418  49.091  1.00  0.00     0.072 C 
HETATM    5  C   UNL     1      26.347  47.558  50.129  1.00  0.00     0.079 A 
HETATM    6  C   UNL     1      24.995  47.324  50.077  1.00  0.00     0.152 A 
ENDROOT
BRANCH   6   7
HETATM    7  N   UNL     1      24.219  46.314  50.626  1.00  0.00    -0.303 N 
HETATM    8  C   UNL     1      24.435  44.911  50.677  1.00  0.00     0.315 C 
HETATM    9  O   UNL     1      23.483  44.222  51.009  1.00  0.00    -0.262 OA
HETATM   10  H   UNL     1      23.334  46.612  51.048  1.00  0.00     0.171 HD
BRANCH   8  11
HETATM   11  C   UNL     1      25.772  44.250  50.322  1.00  0.00     0.310 C 
HETATM   12  N   UNL     1      26.595  44.038  51.416  1.00  0.00    -0.348 N 
HETATM   13  H   UNL     1      26.286  44.437  52.296  1.00  0.00     0.163 HD
HETATM   14  O   UNL     1      26.055  44.004  49.160  1.00  0.00    -0.262 OA
BRANCH  12  15
HETATM   15  C   UNL     1      28.000  43.697  51.269  1.00  0.00     0.085 C 
HETATM   16  C   UNL     1      28.790  43.838  52.580  1.00  0.00     0.034 C 
HETATM   17  C   UNL     1      28.586  42.705  53.611  1.00  0.00    -0.045 C 
HETATM   18  C   UNL     1      27.242  42.839  54.349  1.00  0.00     0.015 C 
HETATM   19  C   UNL     1      29.685  42.838  54.693  1.00  0.00     0.015 C 
HETATM   20  C   UNL     1      28.741  41.322  52.938  1.00  0.00     0.013 C 
HETATM   21  C   UNL     1      28.029  41.115  51.591  1.00  0.00    -0.016 C 
HETATM   22  C   UNL     1      28.192  42.313  50.641  1.00  0.00     0.029 C 
HETATM   23  C   UNL     1      26.584  40.637  51.731  1.00  0.00     0.010 C 
ENDBRANCH  12  15
ENDBRANCH   8  11
ENDBRANCH   6   7
BRANCH   1  24
HETATM   24  C   UNL     1      23.130  48.458  48.887  1.00  0.00     0.732 A 
HETATM   25  N   UNL     1      22.486  49.428  49.588  1.00  0.00    -0.152 N 
HETATM   26  C   UNL     1      21.191  49.742  49.323  1.00  0.00     0.268 A 
HETATM   27  H   UNL     1      22.983  49.971  50.288  1.00  0.00     0.188 HD
HETATM   28  C   UNL     1      20.527  48.903  48.282  1.00  0.00     0.035 A 
HETATM   29  O   UNL     1      20.618  50.659  49.897  1.00  0.00    -0.267 OA
HETATM   30  C   UNL     1      21.271  47.952  47.676  1.00  0.00     0.061 A 
HETATM   31  N   UNL     1      22.605  47.725  47.955  1.00  0.00    -0.067 NA
HETATM   32  C   UNL     1      20.730  47.040  46.601  1.00  0.00     0.072 C 
BRANCH  28  33
HETATM   33  C   UNL     1      19.066  49.183  48.041  1.00  0.00     0.042 C 
HETATM   34  C   UNL     1      18.859  50.207  46.934  1.00  0.00     0.010 C 
ENDBRANCH  28  33
ENDBRANCH   1  24
TORSDOF 5
ENDMDL
MODEL 2
REMARK VINA RESULT:      -9.0      2.368      8.781
REMARK  5 active torsions:
REMARK  status: ('A' for Active; 'I' for Inactive)
REMARK    1  A    between atoms: C_2  and  C_3 
REMARK    2  A    between atoms: C_7  and  N_8 
REMARK    3  A    between atoms: C_13  and  N_14 
REMARK       I    between atoms: N_14  and  C_15 
REMARK    4  A    between atoms: C_15  and  C_16 
REMARK       I    between atoms: C_16  and  N_17 
REMARK    5  A    between atoms: N_17  and  C_18 
ROOT
HETATM    1  N   UNL     1      24.719  47.251  50.048  1.00  0.00    -0.045 N 
HETATM    2  N   UNL     1      25.491  48.349  49.840  1.00  0.00    -0.156 NA
HETATM    3  C   UNL     1      24.867  49.001  48.852  1.00  0.00     0.055 A 
HETATM    4  C   UNL     1      25.419  50.274  48.322  1.00  0.00     0.072 C 
HETATM    5  C   UNL     1      23.687  48.331  48.433  1.00  0.00     0.079 A 
HETATM    6  C   UNL     1      23.618  47.196  49.204  1.00  0.00     0.152 A 
ENDROOT
BRANCH   6   7
HETATM    7  N   UNL     1      22.672  46.182  49.257  1.00  0.00    -0.303 N 
HETATM    8  C   UNL     1      21.358  46.119  48.722  1.00  0.00     0.315 C 
HETATM    9  O   UNL     1      20.651  45.204  49.114  1.00  0.00    -0.262 OA
HETATM   10  H   UNL     1      22.947  45.346  49.782  1.00  0.00     0.171 HD
BRANCH   8  11
HETATM   11  C   UNL     1      20.806  47.136  47.717  1.00  0.00     0.310 C 
HETATM   12  N   UNL     1      20.147  48.201  48.310  1.00  0.00    -0.348 N 
HETATM   13  H   UNL     1      20.001  48.139  49.311  1.00  0.00     0.163 HD
HETATM   14  O   UNL     1      20.918  46.948  46.516  1.00  0.00    -0.262 OA
BRANCH  12  15
HETATM   15  C   UNL     1      19.310  49.112  47.546  1.00  0.00     0.085 C 
HETATM   16  C   UNL     1      18.072  49.583  48.326  1.00  0.00     0.034 C 
HETATM   17  C   UNL     1      18.329  50.664  49.401  1.00  0.00    -0.045 C 
HETATM   18  C   UNL     1      18.962  50.068  50.671  1.00  0.00     0.015 C 
HETATM   19  C   UNL     1      16.960  51.242  49.835  1.00  0.00     0.015 C 
HETATM   20  C   UNL     1      19.175  51.820  48.820  1.00  0.00     0.013 C 
HETATM   21  C   UNL     1      20.401  51.435  47.976  1.00  0.00    -0.016 C 
HETATM   22  C   UNL     1      20.109  50.293  46.988  1.00  0.00     0.029 C 
HETATM   23  C   UNL     1      21.669  51.219  48.803  1.00  0.00     0.010 C 
ENDBRANCH  12  15
ENDBRANCH   8  11
ENDBRANCH   6   7
BRANCH   1  24
HETATM   24  C   UNL     1      25.037  46.317  51.045  1.00  0.00     0.732 A 
HETATM   25  N   UNL     1      25.255  46.896  52.256  1.00  0.00    -0.152 N 
HETATM   26  C   UNL     1      25.519  46.143  53.356  1.00  0.00     0.268 A 
HETATM   27  H   UNL     1      25.169  47.902  52.366  1.00  0.00     0.188 HD
HETATM   28  C   UNL     1      25.628  44.673  53.116  1.00  0.00     0.035 A 
HETATM   29  O   UNL     1      25.649  46.644  54.466  1.00  0.00    -0.267 OA
HETATM   30  C   UNL     1      25.414  44.226  51.859  1.00  0.00     0.061 A 
HETATM   31  N   UNL     1      25.091  45.046  50.796  1.00  0.00    -0.067 NA
HETATM   32  C   UNL     1      25.484  42.767  51.479  1.00  0.00     0.072 C 
BRANCH  28  33
HETATM   33  C   UNL     1      26.007  43.837  54.311  1.00  0.00     0.042 C 
HETATM   34  C   UNL     1      27.514  43.652  54.419  1.00  0.00     0.010 C 
ENDBRANCH  28  33
ENDBRANCH   1  24
TORSDOF 5
ENDMDL
MODEL 3
REMARK VINA RESULT:      -8.9      2.169      3.786
REMARK  5 active torsions:
REMARK  status: ('A' for Active; 'I' for Inactive)
REMARK    1  A    between atoms: C_2  and  C_3 
REMARK    2  A    between atoms: C_7  and  N_8 
REMARK    3  A    between atoms: C_13  and  N_14 
REMARK       I    between atoms: N_14  and  C_15 
REMARK    4  A    between atoms: C_15  and  C_16 
REMARK       I    between atoms: C_16  and  N_17 
REMARK    5  A    between atoms: N_17  and  C_18 
ROOT
HETATM    1  N   UNL     1      23.336  45.866  48.996  1.00  0.00    -0.045 N 
HETATM    2  N   UNL     1      22.620  44.713  48.942  1.00  0.00    -0.156 NA
HETATM    3  C   UNL     1      23.504  43.766  49.276  1.00  0.00     0.055 A 
HETATM    4  C   UNL     1      23.099  42.338  49.322  1.00  0.00     0.072 C 
HETATM    5  C   UNL     1      24.786  44.309  49.558  1.00  0.00     0.079 A 
HETATM    6  C   UNL     1      24.662  45.662  49.355  1.00  0.00     0.152 A 
ENDROOT
BRANCH   6   7
HETATM    7  N   UNL     1      25.574  46.697  49.505  1.00  0.00    -0.303 N 
HETATM    8  C   UNL     1      26.057  47.336  50.678  1.00  0.00     0.315 C 
HETATM    9  O   UNL     1      26.676  48.377  50.518  1.00  0.00    -0.262 OA
HETATM   10  H   UNL     1      25.952  47.086  48.635  1.00  0.00     0.171 HD
BRANCH   8  11
HETATM   11  C   UNL     1      25.820  46.795  52.092  1.00  0.00     0.310 C 
HETATM   12  N   UNL     1      26.442  45.581  52.334  1.00  0.00    -0.348 N 
HETATM   13  H   UNL     1      26.881  45.133  51.537  1.00  0.00     0.163 HD
HETATM   14  O   UNL     1      25.097  47.393  52.874  1.00  0.00    -0.262 OA
BRANCH  12  15
HETATM   15  C   UNL     1      26.116  44.764  53.491  1.00  0.00     0.085 C 
HETATM   16  C   UNL     1      26.696  43.344  53.403  1.00  0.00     0.034 C 
HETATM   17  C   UNL     1      28.209  43.217  53.697  1.00  0.00    -0.045 C 
HETATM   18  C   UNL     1      29.063  43.693  52.508  1.00  0.00     0.015 C 
HETATM   19  C   UNL     1      28.536  41.717  53.888  1.00  0.00     0.015 C 
HETATM   20  C   UNL     1      28.573  43.958  55.004  1.00  0.00     0.013 C 
HETATM   21  C   UNL     1      27.985  45.365  55.199  1.00  0.00    -0.016 C 
HETATM   22  C   UNL     1      26.502  45.451  54.805  1.00  0.00     0.029 C 
HETATM   23  C   UNL     1      28.845  46.475  54.593  1.00  0.00     0.010 C 
ENDBRANCH  12  15
ENDBRANCH   8  11
ENDBRANCH   6   7
BRANCH   1  24
HETATM   24  C   UNL     1      22.738  47.107  48.732  1.00  0.00     0.732 A 
HETATM   25  N   UNL     1      21.391  47.089  48.915  1.00  0.00    -0.152 N 
HETATM   26  C   UNL     1      20.648  48.217  48.762  1.00  0.00     0.268 A 
HETATM   27  H   UNL     1      20.927  46.241  49.224  1.00  0.00     0.188 HD
HETATM   28  C   UNL     1      21.400  49.424  48.309  1.00  0.00     0.035 A 
HETATM   29  O   UNL     1      19.445  48.234  48.991  1.00  0.00    -0.267 OA
HETATM   30  C   UNL     1      22.735  49.303  48.137  1.00  0.00     0.061 A 
HETATM   31  N   UNL     1      23.437  48.136  48.368  1.00  0.00    -0.067 NA
HETATM   32  C   UNL     1      23.617  50.444  47.691  1.00  0.00     0.072 C 
BRANCH  28  33
HETATM   33  C   UNL     1      20.574  50.657  48.050  1.00  0.00     0.042 C 
HETATM   34  C   UNL     1      20.345  51.465  49.319  1.00  0.00     0.010 C 
ENDBRANCH  28  33
ENDBRANCH   1  24
TORSDOF 5
ENDMDL
MODEL 4
REMARK VINA RESULT:      -8.9      2.446      8.836
REMARK  5 active torsions:
REMARK  status: ('A' for Active; 'I' for Inactive)
REMARK    1  A    between atoms: C_2  and  C_3 
REMARK    2  A    between atoms: C_7  and  N_8 
REMARK    3  A    between atoms: C_13  and  N_14 
REMARK       I    between atoms: N_14  and  C_15 
REMARK    4  A    between atoms: C_15  and  C_16 
REMARK       I    between atoms: C_16  and  N_17 
REMARK    5  A    between atoms: N_17  and  C_18 
ROOT
HETATM    1  N   UNL     1      25.199  45.365  49.526  1.00  0.00    -0.045 N 
HETATM    2  N   UNL     1      26.237  46.239  49.584  1.00  0.00    -0.156 NA
HETATM    3  C   UNL     1      25.655  47.439  49.483  1.00  0.00     0.055 A 
HETATM    4  C   UNL     1      26.474  48.678  49.496  1.00  0.00     0.072 C 
HETATM    5  C   UNL     1      24.242  47.340  49.374  1.00  0.00     0.079 A 
HETATM    6  C   UNL     1      23.969  45.994  49.386  1.00  0.00     0.152 A 
ENDROOT
BRANCH   6   7
HETATM    7  N   UNL     1      22.767  45.303  49.337  1.00  0.00    -0.303 N 
HETATM    8  C   UNL     1      21.522  45.661  48.754  1.00  0.00     0.315 C 
HETATM    9  O   UNL     1      20.558  44.976  49.059  1.00  0.00    -0.262 OA
HETATM   10  H   UNL     1      22.756  44.395  49.813  1.00  0.00     0.171 HD
BRANCH   8  11
HETATM   11  C   UNL     1      21.346  46.850  47.803  1.00  0.00     0.310 C 
HETATM   12  N   UNL     1      20.727  47.943  48.388  1.00  0.00    -0.348 N 
HETATM   13  H   UNL     1      20.361  47.805  49.324  1.00  0.00     0.163 HD
HETATM   14  O   UNL     1      21.688  46.768  46.634  1.00  0.00    -0.262 OA
BRANCH  12  15
HETATM   15  C   UNL     1      20.209  49.049  47.601  1.00  0.00     0.085 C 
HETATM   16  C   UNL     1      18.847  49.554  48.102  1.00  0.00     0.034 C 
HETATM   17  C   UNL     1      18.884  50.431  49.375  1.00  0.00    -0.045 C 
HETATM   18  C   UNL     1      19.093  49.587  50.644  1.00  0.00     0.015 C 
HETATM   19  C   UNL     1      17.500  51.106  49.531  1.00  0.00     0.015 C 
HETATM   20  C   UNL     1      19.948  51.545  49.238  1.00  0.00     0.013 C 
HETATM   21  C   UNL     1      21.324  51.135  48.687  1.00  0.00    -0.016 C 
HETATM   22  C   UNL     1      21.224  50.190  47.479  1.00  0.00     0.029 C 
HETATM   23  C   UNL     1      22.293  50.649  49.765  1.00  0.00     0.010 C 
ENDBRANCH  12  15
ENDBRANCH   8  11
ENDBRANCH   6   7
BRANCH   1  24
HETATM   24  C   UNL     1      25.408  43.981  49.629  1.00  0.00     0.732 A 
HETATM   25  N   UNL     1      26.234  43.651  50.657  1.00  0.00    -0.152 N 
HETATM   26  C   UNL     1      26.506  42.351  50.947  1.00  0.00     0.268 A 
HETATM   27  H   UNL     1      26.618  44.373  51.258  1.00  0.00     0.188 HD
HETATM   28  C   UNL     1      25.906  41.347  50.021  1.00  0.00     0.035 A 
HETATM   29  O   UNL     1      27.193  42.035  51.911  1.00  0.00    -0.267 OA
HETATM   30  C   UNL     1      25.122  41.807  49.020  1.00  0.00     0.061 A 
HETATM   31  N   UNL     1      24.840  43.144  48.819  1.00  0.00    -0.067 NA
HETATM   32  C   UNL     1      24.446  40.903  48.018  1.00  0.00     0.072 C 
BRANCH  28  33
HETATM   33  C   UNL     1      26.272  39.908  50.279  1.00  0.00     0.042 C 
HETATM   34  C   UNL     1      27.531  39.499  49.528  1.00  0.00     0.010 C 
ENDBRANCH  28  33
ENDBRANCH   1  24
TORSDOF 5
ENDMDL
MODEL 5
REMARK VINA RESULT:      -8.7      2.446      8.415
REMARK  5 active torsions:
REMARK  status: ('A' for Active; 'I' for Inactive)
REMARK    1  A    between atoms: C_2  and  C_3 
REMARK    2  A    between atoms: C_7  and  N_8 
REMARK    3  A    between atoms: C_13  and  N_14 
REMARK       I    between atoms: N_14  and  C_15 
REMARK    4  A    between atoms: C_15  and  C_16 
REMARK       I    between atoms: C_16  and  N_17 
REMARK    5  A    between atoms: N_17  and  C_18 
ROOT
HETATM    1  N   UNL     1      25.164  47.055  50.670  1.00  0.00    -0.045 N 
HETATM    2  N   UNL     1      25.488  48.278  50.175  1.00  0.00    -0.156 NA
HETATM    3  C   UNL     1      24.621  48.462  49.173  1.00  0.00     0.055 A 
HETATM    4  C   UNL     1      24.661  49.704  48.360  1.00  0.00     0.072 C 
HETATM    5  C   UNL     1      23.729  47.366  49.031  1.00  0.00     0.079 A 
HETATM    6  C   UNL     1      24.106  46.461  49.994  1.00  0.00     0.152 A 
ENDROOT
BRANCH   6   7
HETATM    7  N   UNL     1      23.581  45.226  50.345  1.00  0.00    -0.303 N 
HETATM    8  C   UNL     1      22.498  44.495  49.790  1.00  0.00     0.315 C 
HETATM    9  O   UNL     1      22.093  43.541  50.437  1.00  0.00    -0.262 OA
HETATM   10  H   UNL     1      24.026  44.765  51.145  1.00  0.00     0.171 HD
BRANCH   8  11
HETATM   11  C   UNL     1      21.826  44.859  48.461  1.00  0.00     0.310 C 
HETATM   12  N   UNL     1      20.694  45.644  48.609  1.00  0.00    -0.348 N 
HETATM   13  H   UNL     1      20.371  45.796  49.558  1.00  0.00     0.163 HD
HETATM   14  O   UNL     1      22.258  44.424  47.406  1.00  0.00    -0.262 OA
BRANCH  12  15
HETATM   15  C   UNL     1      19.756  45.858  47.519  1.00  0.00     0.085 C 
HETATM   16  C   UNL     1      18.315  46.081  48.005  1.00  0.00     0.034 C 
HETATM   17  C   UNL     1      18.012  47.481  48.586  1.00  0.00    -0.045 C 
HETATM   18  C   UNL     1      18.570  47.641  50.012  1.00  0.00     0.015 C 
HETATM   19  C   UNL     1      16.476  47.627  48.707  1.00  0.00     0.015 C 
HETATM   20  C   UNL     1      18.526  48.587  47.636  1.00  0.00     0.013 C 
HETATM   21  C   UNL     1      19.940  48.412  47.057  1.00  0.00    -0.016 C 
HETATM   22  C   UNL     1      20.214  46.977  46.579  1.00  0.00     0.029 C 
HETATM   23  C   UNL     1      21.041  48.979  47.953  1.00  0.00     0.010 C 
ENDBRANCH  12  15
ENDBRANCH   8  11
ENDBRANCH   6   7
BRANCH   1  24
HETATM   24  C   UNL     1      25.844  46.512  51.771  1.00  0.00     0.732 A 
HETATM   25  N   UNL     1      25.666  47.237  52.907  1.00  0.00    -0.152 N 
HETATM   26  C   UNL     1      26.203  46.832  54.088  1.00  0.00     0.268 A 
HETATM   27  H   UNL     1      25.081  48.067  52.899  1.00  0.00     0.188 HD
HETATM   28  C   UNL     1      27.049  45.604  54.020  1.00  0.00     0.035 A 
HETATM   29  O   UNL     1      25.995  47.435  55.133  1.00  0.00    -0.267 OA
HETATM   30  C   UNL     1      27.167  44.989  52.822  1.00  0.00     0.061 A 
HETATM   31  N   UNL     1      26.543  45.425  51.670  1.00  0.00    -0.067 NA
HETATM   32  C   UNL     1      27.983  43.736  52.614  1.00  0.00     0.072 C 
BRANCH  28  33
HETATM   33  C   UNL     1      27.722  45.194  55.305  1.00  0.00     0.042 C 
HETATM   34  C   UNL     1      29.079  45.862  55.473  1.00  0.00     0.010 C 
ENDBRANCH  28  33
ENDBRANCH   1  24
TORSDOF 5
ENDMDL
MODEL 6
REMARK VINA RESULT:      -8.7      3.327      6.649
REMARK  5 active torsions:
REMARK  status: ('A' for Active; 'I' for Inactive)
REMARK    1  A    between atoms: C_2  and  C_3 
REMARK    2  A    between atoms: C_7  and  N_8 
REMARK    3  A    between atoms: C_13  and  N_14 
REMARK       I    between atoms: N_14  and  C_15 
REMARK    4  A    between atoms: C_15  and  C_16 
REMARK       I    between atoms: C_16  and  N_17 
REMARK    5  A    between atoms: N_17  and  C_18 
ROOT
HETATM    1  N   UNL     1      25.692  46.341  51.496  1.00  0.00    -0.045 N 
HETATM    2  N   UNL     1      25.658  47.594  50.971  1.00  0.00    -0.156 NA
HETATM    3  C   UNL     1      24.845  47.479  49.914  1.00  0.00     0.055 A 
HETATM    4  C   UNL     1      24.556  48.656  49.054  1.00  0.00     0.072 C 
HETATM    5  C   UNL     1      24.346  46.158  49.765  1.00  0.00     0.079 A 
HETATM    6  C   UNL     1      24.917  45.435  50.784  1.00  0.00     0.152 A 
ENDROOT
BRANCH   6   7
HETATM    7  N   UNL     1      24.775  44.106  51.154  1.00  0.00    -0.303 N 
HETATM    8  C   UNL     1      25.304  42.925  50.567  1.00  0.00     0.315 C 
HETATM    9  O   UNL     1      24.833  41.865  50.950  1.00  0.00    -0.262 OA
HETATM   10  H   UNL     1      24.179  43.932  51.969  1.00  0.00     0.171 HD
BRANCH   8  11
HETATM   11  C   UNL     1      26.395  42.933  49.491  1.00  0.00     0.310 C 
HETATM   12  N   UNL     1      26.432  41.777  48.729  1.00  0.00    -0.348 N 
HETATM   13  H   UNL     1      25.827  41.020  49.029  1.00  0.00     0.163 HD
HETATM   14  O   UNL     1      27.168  43.874  49.395  1.00  0.00    -0.262 OA
BRANCH  12  15
HETATM   15  C   UNL     1      27.555  41.460  47.861  1.00  0.00     0.085 C 
HETATM   16  C   UNL     1      28.573  40.517  48.522  1.00  0.00     0.034 C 
HETATM   17  C   UNL     1      28.162  39.029  48.592  1.00  0.00    -0.045 C 
HETATM   18  C   UNL     1      27.130  38.773  49.705  1.00  0.00     0.015 C 
HETATM   19  C   UNL     1      29.415  38.203  48.971  1.00  0.00     0.015 C 
HETATM   20  C   UNL     1      27.662  38.537  47.214  1.00  0.00     0.013 C 
HETATM   21  C   UNL     1      26.683  39.450  46.458  1.00  0.00    -0.016 C 
HETATM   22  C   UNL     1      27.095  40.930  46.499  1.00  0.00     0.029 C 
HETATM   23  C   UNL     1      25.218  39.212  46.826  1.00  0.00     0.010 C 
ENDBRANCH  12  15
ENDBRANCH   8  11
ENDBRANCH   6   7
BRANCH   1  24
HETATM   24  C   UNL     1      26.431  46.059  52.654  1.00  0.00     0.732 A 
HETATM   25  N   UNL     1      26.448  47.097  53.531  1.00  0.00    -0.152 N 
HETATM   26  C   UNL     1      27.068  46.987  54.736  1.00  0.00     0.268 A 
HETATM   27  H   UNL     1      25.950  47.956  53.319  1.00  0.00     0.188 HD
HETATM   28  C   UNL     1      27.777  45.696  54.977  1.00  0.00     0.035 A 
HETATM   29  O   UNL     1      27.033  47.888  55.565  1.00  0.00    -0.267 OA
HETATM   30  C   UNL     1      27.705  44.752  54.013  1.00  0.00     0.061 A 
HETATM   31  N   UNL     1      27.006  44.911  52.832  1.00  0.00    -0.067 NA
HETATM   32  C   UNL     1      28.367  43.400  54.129  1.00  0.00     0.072 C 
BRANCH  28  33
HETATM   33  C   UNL     1      28.542  45.595  56.272  1.00  0.00     0.042 C 
HETATM   34  C   UNL     1      30.017  45.922  56.088  1.00  0.00     0.010 C 
ENDBRANCH  28  33
ENDBRANCH   1  24
TORSDOF 5
ENDMDL
MODEL 7
REMARK VINA RESULT:      -8.5     10.788     13.225
REMARK  5 active torsions:
REMARK  status: ('A' for Active; 'I' for Inactive)
REMARK    1  A    between atoms: C_2  and  C_3 
REMARK    2  A    between atoms: C_7  and  N_8 
REMARK    3  A    between atoms: C_13  and  N_14 
REMARK       I    between atoms: N_14  and  C_15 
REMARK    4  A    between atoms: C_15  and  C_16 
REMARK       I    between atoms: C_16  and  N_17 
REMARK    5  A    between atoms: N_17  and  C_18 
ROOT
HETATM    1  N   UNL     1      33.542  51.050  40.795  1.00  0.00    -0.045 N 
HETATM    2  N   UNL     1      34.685  51.431  40.169  1.00  0.00    -0.156 NA
HETATM    3  C   UNL     1      35.657  50.883  40.907  1.00  0.00     0.055 A 
HETATM    4  C   UNL     1      37.083  51.084  40.545  1.00  0.00     0.072 C 
HETATM    5  C   UNL     1      35.141  50.137  42.000  1.00  0.00     0.079 A 
HETATM    6  C   UNL     1      33.776  50.271  41.921  1.00  0.00     0.152 A 
ENDROOT
BRANCH   6   7
HETATM    7  N   UNL     1      32.758  49.741  42.700  1.00  0.00    -0.303 N 
HETATM    8  C   UNL     1      31.700  48.858  42.357  1.00  0.00     0.315 C 
HETATM    9  O   UNL     1      30.802  48.734  43.176  1.00  0.00    -0.262 OA
HETATM   10  H   UNL     1      32.744  50.043  43.679  1.00  0.00     0.171 HD
BRANCH   8  11
HETATM   11  C   UNL     1      31.635  48.094  41.029  1.00  0.00     0.310 C 
HETATM   12  N   UNL     1      30.454  48.291  40.332  1.00  0.00    -0.348 N 
HETATM   13  H   UNL     1      29.729  48.811  40.813  1.00  0.00     0.163 HD
HETATM   14  O   UNL     1      32.545  47.352  40.693  1.00  0.00    -0.262 OA
BRANCH  12  15
HETATM   15  C   UNL     1      30.070  47.449  39.211  1.00  0.00     0.085 C 
HETATM   16  C   UNL     1      29.476  46.101  39.652  1.00  0.00     0.034 C 
HETATM   17  C   UNL     1      28.017  46.147  40.162  1.00  0.00    -0.045 C 
HETATM   18  C   UNL     1      27.930  46.708  41.592  1.00  0.00     0.015 C 
HETATM   19  C   UNL     1      27.491  44.693  40.238  1.00  0.00     0.015 C 
HETATM   20  C   UNL     1      27.120  46.930  39.176  1.00  0.00     0.013 C 
HETATM   21  C   UNL     1      27.666  48.264  38.641  1.00  0.00    -0.016 C 
HETATM   22  C   UNL     1      29.146  48.181  38.234  1.00  0.00     0.029 C 
HETATM   23  C   UNL     1      27.344  49.460  39.537  1.00  0.00     0.010 C 
ENDBRANCH  12  15
ENDBRANCH   8  11
ENDBRANCH   6   7
BRANCH   1  24
HETATM   24  C   UNL     1      32.282  51.413  40.295  1.00  0.00     0.732 A 
HETATM   25  N   UNL     1      32.184  51.242  38.950  1.00  0.00    -0.152 N 
HETATM   26  C   UNL     1      31.018  51.488  38.296  1.00  0.00     0.268 A 
HETATM   27  H   UNL     1      32.969  50.876  38.421  1.00  0.00     0.188 HD
HETATM   28  C   UNL     1      29.910  52.023  39.140  1.00  0.00     0.035 A 
HETATM   29  O   UNL     1      30.893  51.273  37.097  1.00  0.00    -0.267 OA
HETATM   30  C   UNL     1      30.144  52.171  40.462  1.00  0.00     0.061 A 
HETATM   31  N   UNL     1      31.340  51.845  41.072  1.00  0.00    -0.067 NA
HETATM   32  C   UNL     1      29.110  52.693  41.431  1.00  0.00     0.072 C 
BRANCH  28  33
HETATM   33  C   UNL     1      28.640  52.383  38.411  1.00  0.00     0.042 C 
HETATM   34  C   UNL     1      28.657  53.823  37.918  1.00  0.00     0.010 C 
ENDBRANCH  28  33
ENDBRANCH   1  24
TORSDOF 5
ENDMDL
MODEL 8
REMARK VINA RESULT:      -8.5      2.238      9.555
REMARK  5 active torsions:
REMARK  status: ('A' for Active; 'I' for Inactive)
REMARK    1  A    between atoms: C_2  and  C_3 
REMARK    2  A    between atoms: C_7  and  N_8 
REMARK    3  A    between atoms: C_13  and  N_14 
REMARK       I    between atoms: N_14  and  C_15 
REMARK    4  A    between atoms: C_15  and  C_16 
REMARK       I    between atoms: C_16  and  N_17 
REMARK    5  A    between atoms: N_17  and  C_18 
ROOT
HETATM    1  N   UNL     1      23.271  45.597  48.652  1.00  0.00    -0.045 N 
HETATM    2  N   UNL     1      22.809  44.706  47.738  1.00  0.00    -0.156 NA
HETATM    3  C   UNL     1      21.837  45.369  47.101  1.00  0.00     0.055 A 
HETATM    4  C   UNL     1      21.065  44.715  46.014  1.00  0.00     0.072 C 
HETATM    5  C   UNL     1      21.681  46.691  47.595  1.00  0.00     0.079 A 
HETATM    6  C   UNL     1      22.603  46.814  48.606  1.00  0.00     0.152 A 
ENDROOT
BRANCH   6   7
HETATM    7  N   UNL     1      22.925  47.886  49.425  1.00  0.00    -0.303 N 
HETATM    8  C   UNL     1      22.793  49.284  49.208  1.00  0.00     0.315 C 
HETATM    9  O   UNL     1      23.372  50.017  49.995  1.00  0.00    -0.262 OA
HETATM   10  H   UNL     1      23.346  47.645  50.328  1.00  0.00     0.171 HD
BRANCH   8  11
HETATM   11  C   UNL     1      21.994  49.886  48.047  1.00  0.00     0.310 C 
HETATM   12  N   UNL     1      20.640  50.011  48.311  1.00  0.00    -0.348 N 
HETATM   13  H   UNL     1      20.309  49.597  49.176  1.00  0.00     0.163 HD
HETATM   14  O   UNL     1      22.541  50.159  46.990  1.00  0.00    -0.262 OA
BRANCH  12  15
HETATM   15  C   UNL     1      19.671  50.282  47.262  1.00  0.00     0.085 C 
HETATM   16  C   UNL     1      18.622  49.168  47.114  1.00  0.00     0.034 C 
HETATM   17  C   UNL     1      17.508  49.148  48.185  1.00  0.00    -0.045 C 
HETATM   18  C   UNL     1      18.009  48.566  49.519  1.00  0.00     0.015 C 
HETATM   19  C   UNL     1      16.390  48.198  47.695  1.00  0.00     0.015 C 
HETATM   20  C   UNL     1      16.897  50.557  48.362  1.00  0.00     0.013 C 
HETATM   21  C   UNL     1      17.877  51.738  48.460  1.00  0.00    -0.016 C 
HETATM   22  C   UNL     1      19.014  51.656  47.429  1.00  0.00     0.029 C 
HETATM   23  C   UNL     1      18.361  52.013  49.884  1.00  0.00     0.010 C 
ENDBRANCH  12  15
ENDBRANCH   8  11
ENDBRANCH   6   7
BRANCH   1  24
HETATM   24  C   UNL     1      24.334  45.276  49.510  1.00  0.00     0.732 A 
HETATM   25  N   UNL     1      25.184  44.363  48.970  1.00  0.00    -0.152 N 
HETATM   26  C   UNL     1      26.305  43.972  49.633  1.00  0.00     0.268 A 
HETATM   27  H   UNL     1      25.021  43.999  48.036  1.00  0.00     0.188 HD
HETATM   28  C   UNL     1      26.477  44.549  50.998  1.00  0.00     0.035 A 
HETATM   29  O   UNL     1      27.116  43.204  49.132  1.00  0.00    -0.267 OA
HETATM   30  C   UNL     1      25.545  45.428  51.430  1.00  0.00     0.061 A 
HETATM   31  N   UNL     1      24.458  45.826  50.677  1.00  0.00    -0.067 NA
HETATM   32  C   UNL     1      25.601  46.093  52.784  1.00  0.00     0.072 C 
BRANCH  28  33
HETATM   33  C   UNL     1      27.669  44.056  51.778  1.00  0.00     0.042 C 
HETATM   34  C   UNL     1      27.346  42.800  52.575  1.00  0.00     0.010 C 
ENDBRANCH  28  33
ENDBRANCH   1  24
TORSDOF 5
ENDMDL
MODEL 9
REMARK VINA RESULT:      -8.4      2.328      9.140
REMARK  5 active torsions:
REMARK  status: ('A' for Active; 'I' for Inactive)
REMARK    1  A    between atoms: C_2  and  C_3 
REMARK    2  A    between atoms: C_7  and  N_8 
REMARK    3  A    between atoms: C_13  and  N_14 
REMARK       I    between atoms: N_14  and  C_15 
REMARK    4  A    between atoms: C_15  and  C_16 
REMARK       I    between atoms: C_16  and  N_17 
REMARK    5  A    between atoms: N_17  and  C_18 
ROOT
HETATM    1  N   UNL     1      24.170  47.850  49.502  1.00  0.00    -0.045 N 
HETATM    2  N   UNL     1      24.526  49.127  49.206  1.00  0.00    -0.156 NA
HETATM    3  C   UNL     1      23.516  49.578  48.454  1.00  0.00     0.055 A 
HETATM    4  C   UNL     1      23.539  50.961  47.912  1.00  0.00     0.072 C 
HETATM    5  C   UNL     1      22.504  48.598  48.276  1.00  0.00     0.079 A 
HETATM    6  C   UNL     1      22.952  47.485  48.945  1.00  0.00     0.152 A 
ENDROOT
BRANCH   6   7
HETATM    7  N   UNL     1      22.373  46.240  49.140  1.00  0.00    -0.303 N 
HETATM    8  C   UNL     1      21.286  45.614  48.472  1.00  0.00     0.315 C 
HETATM    9  O   UNL     1      20.825  44.612  48.997  1.00  0.00    -0.262 OA
HETATM   10  H   UNL     1      22.771  45.679  49.900  1.00  0.00     0.171 HD
BRANCH   8  11
HETATM   11  C   UNL     1      20.678  46.146  47.170  1.00  0.00     0.310 C 
HETATM   12  N   UNL     1      19.487  46.831  47.352  1.00  0.00    -0.348 N 
HETATM   13  H   UNL     1      19.094  46.810  48.287  1.00  0.00     0.163 HD
HETATM   14  O   UNL     1      21.206  45.911  46.095  1.00  0.00    -0.262 OA
BRANCH  12  15
HETATM   15  C   UNL     1      18.608  47.160  46.242  1.00  0.00     0.085 C 
HETATM   16  C   UNL     1      17.131  47.255  46.656  1.00  0.00     0.034 C 
HETATM   17  C   UNL     1      16.727  48.545  47.404  1.00  0.00    -0.045 C 
HETATM   18  C   UNL     1      17.187  48.523  48.872  1.00  0.00     0.015 C 
HETATM   19  C   UNL     1      15.181  48.613  47.440  1.00  0.00     0.015 C 
HETATM   20  C   UNL     1      17.244  49.795  46.654  1.00  0.00     0.013 C 
HETATM   21  C   UNL     1      18.697  49.759  46.153  1.00  0.00    -0.016 C 
HETATM   22  C   UNL     1      19.069  48.418  45.500  1.00  0.00     0.029 C 
HETATM   23  C   UNL     1      19.713  50.236  47.192  1.00  0.00     0.010 C 
ENDBRANCH  12  15
ENDBRANCH   8  11
ENDBRANCH   6   7
BRANCH   1  24
HETATM   24  C   UNL     1      24.978  47.040  50.315  1.00  0.00     0.732 A 
HETATM   25  N   UNL     1      25.649  46.092  49.607  1.00  0.00    -0.152 N 
HETATM   26  C   UNL     1      26.524  45.251  50.218  1.00  0.00     0.268 A 
HETATM   27  H   UNL     1      25.545  46.035  48.599  1.00  0.00     0.188 HD
HETATM   28  C   UNL     1      26.624  45.395  51.700  1.00  0.00     0.035 A 
HETATM   29  O   UNL     1      27.187  44.438  49.586  1.00  0.00    -0.267 OA
HETATM   30  C   UNL     1      25.884  46.360  52.288  1.00  0.00     0.061 A 
HETATM   31  N   UNL     1      25.056  47.222  51.596  1.00  0.00    -0.067 NA
HETATM   32  C   UNL     1      25.896  46.621  53.775  1.00  0.00     0.072 C 
BRANCH  28  33
HETATM   33  C   UNL     1      27.525  44.409  52.400  1.00  0.00     0.042 C 
HETATM   34  C   UNL     1      26.776  43.149  52.812  1.00  0.00     0.010 C 
ENDBRANCH  28  33
ENDBRANCH   1  24
TORSDOF 5
ENDMDL
MODEL 10
REMARK VINA RESULT:      -8.3     11.557     15.201
REMARK  5 active torsions:
REMARK  status: ('A' for Active; 'I' for Inactive)
REMARK    1  A    between atoms: C_2  and  C_3 
REMARK    2  A    between atoms: C_7  and  N_8 
REMARK    3  A    between atoms: C_13  and  N_14 
REMARK       I    between atoms: N_14  and  C_15 
REMARK    4  A    between atoms: C_15  and  C_16 
REMARK       I    between atoms: C_16  and  N_17 
REMARK    5  A    between atoms: N_17  and  C_18 
ROOT
HETATM    1  N   UNL     1      34.050  51.138  42.763  1.00  0.00    -0.045 N 
HETATM    2  N   UNL     1      33.700  52.104  43.651  1.00  0.00    -0.156 NA
HETATM    3  C   UNL     1      32.503  51.711  44.102  1.00  0.00     0.055 A 
HETATM    4  C   UNL     1      31.769  52.527  45.103  1.00  0.00     0.072 C 
HETATM    5  C   UNL     1      32.087  50.486  43.515  1.00  0.00     0.079 A 
HETATM    6  C   UNL     1      33.090  50.141  42.642  1.00  0.00     0.152 A 
ENDROOT
BRANCH   6   7
HETATM    7  N   UNL     1      33.245  49.037  41.817  1.00  0.00    -0.303 N 
HETATM    8  C   UNL     1      32.275  48.195  41.211  1.00  0.00     0.315 C 
HETATM    9  O   UNL     1      32.682  47.152  40.725  1.00  0.00    -0.262 OA
HETATM   10  H   UNL     1      34.213  48.761  41.621  1.00  0.00     0.171 HD
BRANCH   8  11
HETATM   11  C   UNL     1      30.779  48.529  41.166  1.00  0.00     0.310 C 
HETATM   12  N   UNL     1      30.396  49.206  40.019  1.00  0.00    -0.348 N 
HETATM   13  H   UNL     1      31.142  49.505  39.401  1.00  0.00     0.163 HD
HETATM   14  O   UNL     1      30.051  48.250  42.105  1.00  0.00    -0.262 OA
BRANCH  12  15
HETATM   15  C   UNL     1      29.104  49.863  39.907  1.00  0.00     0.085 C 
HETATM   16  C   UNL     1      28.956  51.058  40.862  1.00  0.00     0.034 C 
HETATM   17  C   UNL     1      29.689  52.351  40.438  1.00  0.00    -0.045 C 
HETATM   18  C   UNL     1      31.202  52.263  40.704  1.00  0.00     0.015 C 
HETATM   19  C   UNL     1      29.165  53.510  41.319  1.00  0.00     0.015 C 
HETATM   20  C   UNL     1      29.380  52.692  38.962  1.00  0.00     0.013 C 
HETATM   21  C   UNL     1      29.449  51.539  37.947  1.00  0.00    -0.016 C 
HETATM   22  C   UNL     1      28.783  50.253  38.461  1.00  0.00     0.029 C 
HETATM   23  C   UNL     1      30.847  51.316  37.370  1.00  0.00     0.010 C 
ENDBRANCH  12  15
ENDBRANCH   8  11
ENDBRANCH   6   7
BRANCH   1  24
HETATM   24  C   UNL     1      35.279  51.182  42.087  1.00  0.00     0.732 A 
HETATM   25  N   UNL     1      36.318  50.775  42.863  1.00  0.00    -0.152 N 
HETATM   26  C   UNL     1      37.578  50.696  42.361  1.00  0.00     0.268 A 
HETATM   27  H   UNL     1      36.157  50.472  43.819  1.00  0.00     0.188 HD
HETATM   28  C   UNL     1      37.737  51.157  40.951  1.00  0.00     0.035 A 
HETATM   29  O   UNL     1      38.513  50.267  43.026  1.00  0.00    -0.267 OA
HETATM   30  C   UNL     1      36.628  51.563  40.295  1.00  0.00     0.061 A 
HETATM   31  N   UNL     1      35.363  51.562  40.851  1.00  0.00    -0.067 NA
HETATM   32  C   UNL     1      36.643  52.045  38.865  1.00  0.00     0.072 C 
BRANCH  28  33
HETATM   33  C   UNL     1      39.145  51.158  40.411  1.00  0.00     0.042 C 
HETATM   34  C   UNL     1      39.849  52.484  40.663  1.00  0.00     0.010 C 
ENDBRANCH  28  33
ENDBRANCH   1  24
TORSDOF 5
ENDMDL
