MODEL 1
REMARK VINA RESULT:      -9.4      0.000      0.000
REMARK  3 active torsions:
REMARK  status: ('A' for Active; 'I' for Inactive)
REMARK    1  A    between atoms: C_3  and  O_4 
REMARK    2  A    between atoms: O_4  and  C_5 
REMARK    3  A    between atoms: C_10  and  N_11 
REMARK       I    between atoms: N_11  and  C_12 
REMARK       I    between atoms: C_12  and  N_13 
ROOT
HETATM    1  N   UNL     1      24.483  46.135  50.181  1.00  0.00    -0.309 N 
HETATM    2  C   UNL     1      24.628  47.465  49.854  1.00  0.00     0.323 C 
HETATM    3  N   UNL     1      23.622  47.967  49.040  1.00  0.00    -0.328 N 
HETATM    4  C   UNL     1      23.497  49.425  48.937  1.00  0.00     0.185 C 
HETATM    5  C   UNL     1      22.045  49.749  49.063  1.00  0.00     0.035 A 
HETATM    6  C   UNL     1      20.986  48.868  48.948  1.00  0.00    -0.020 A 
HETATM    7  C   UNL     1      21.210  47.415  48.693  1.00  0.00     0.061 C 
HETATM    8  C   UNL     1      22.663  47.187  48.226  1.00  0.00     0.132 C 
HETATM    9  N   UNL     1      21.540  50.988  49.341  1.00  0.00    -0.357 N 
HETATM   10  H   UNL     1      22.082  51.826  49.495  1.00  0.00     0.166 HD
HETATM   11  C   UNL     1      20.163  50.924  49.411  1.00  0.00     0.043 A 
HETATM   12  C   UNL     1      19.789  49.601  49.165  1.00  0.00    -0.001 A 
HETATM   13  C   UNL     1      19.230  51.933  49.685  1.00  0.00     0.030 A 
HETATM   14  C   UNL     1      17.878  51.577  49.706  1.00  0.00     0.002 A 
HETATM   15  C   UNL     1      17.476  50.266  49.461  1.00  0.00     0.001 A 
HETATM   16  C   UNL     1      18.421  49.268  49.191  1.00  0.00     0.014 A 
HETATM   17  O   UNL     1      25.531  48.190  50.263  1.00  0.00    -0.247 OA
HETATM   18  H   UNL     1      23.560  45.759  50.048  1.00  0.00     0.170 HD
ENDROOT
BRANCH   1  19
HETATM   19  C   UNL     1      25.334  45.363  51.002  1.00  0.00     0.037 A 
HETATM   20  C   UNL     1      26.575  44.876  50.597  1.00  0.00     0.032 A 
HETATM   21  C   UNL     1      27.397  44.192  51.498  1.00  0.00     0.039 A 
HETATM   22  C   UNL     1      26.984  43.991  52.815  1.00  0.00     0.075 A 
HETATM   23  C   UNL     1      25.700  44.387  53.214  1.00  0.00    -0.026 A 
HETATM   24  C   UNL     1      25.214  44.156  54.617  1.00  0.00     0.051 C 
HETATM   25  C   UNL     1      24.892  45.088  52.303  1.00  0.00     0.039 A 
BRANCH  22  26
HETATM   26  O   UNL     1      27.772  43.378  53.753  1.00  0.00    -0.346 OA
BRANCH  26  27
HETATM   27  C   UNL     1      29.014  44.038  54.050  1.00  0.00     0.121 C 
HETATM   28  C   UNL     1      28.821  45.160  55.071  1.00  0.00     0.040 C 
HETATM   29  C   UNL     1      29.944  42.973  54.626  1.00  0.00     0.040 C 
ENDBRANCH  26  27
ENDBRANCH  22  26
ENDBRANCH   1  19
TORSDOF 3
ENDMDL
MODEL 2
REMARK VINA RESULT:      -8.3      2.332      9.756
REMARK  3 active torsions:
REMARK  status: ('A' for Active; 'I' for Inactive)
REMARK    1  A    between atoms: C_3  and  O_4 
REMARK    2  A    between atoms: O_4  and  C_5 
REMARK    3  A    between atoms: C_10  and  N_11 
REMARK       I    between atoms: N_11  and  C_12 
REMARK       I    between atoms: C_12  and  N_13 
ROOT
HETATM    1  N   UNL     1      22.623  48.092  49.447  1.00  0.00    -0.309 N 
HETATM    2  C   UNL     1      23.185  46.920  48.990  1.00  0.00     0.323 C 
HETATM    3  N   UNL     1      24.485  46.703  49.424  1.00  0.00    -0.328 N 
HETATM    4  C   UNL     1      25.027  45.345  49.290  1.00  0.00     0.185 C 
HETATM    5  C   UNL     1      25.713  45.020  50.576  1.00  0.00     0.035 A 
HETATM    6  C   UNL     1      26.083  45.911  51.567  1.00  0.00    -0.020 A 
HETATM    7  C   UNL     1      25.793  47.369  51.446  1.00  0.00     0.061 C 
HETATM    8  C   UNL     1      25.415  47.706  49.987  1.00  0.00     0.132 C 
HETATM    9  N   UNL     1      26.063  43.763  50.981  1.00  0.00    -0.357 N 
HETATM   10  H   UNL     1      25.899  42.909  50.466  1.00  0.00     0.166 HD
HETATM   11  C   UNL     1      26.654  43.823  52.226  1.00  0.00     0.043 A 
HETATM   12  C   UNL     1      26.681  45.165  52.616  1.00  0.00    -0.001 A 
HETATM   13  C   UNL     1      27.152  42.793  53.035  1.00  0.00     0.030 A 
HETATM   14  C   UNL     1      27.693  43.146  54.275  1.00  0.00     0.002 A 
HETATM   15  C   UNL     1      27.735  44.476  54.688  1.00  0.00     0.001 A 
HETATM   16  C   UNL     1      27.232  45.494  53.870  1.00  0.00     0.014 A 
HETATM   17  O   UNL     1      22.604  46.091  48.294  1.00  0.00    -0.247 OA
HETATM   18  H   UNL     1      23.079  48.504  50.243  1.00  0.00     0.170 HD
ENDROOT
BRANCH   1  19
HETATM   19  C   UNL     1      21.318  48.566  49.189  1.00  0.00     0.037 A 
HETATM   20  C   UNL     1      20.184  47.756  49.178  1.00  0.00     0.032 A 
HETATM   21  C   UNL     1      18.915  48.317  48.999  1.00  0.00     0.039 A 
HETATM   22  C   UNL     1      18.769  49.694  48.833  1.00  0.00     0.075 A 
HETATM   23  C   UNL     1      19.904  50.511  48.745  1.00  0.00    -0.026 A 
HETATM   24  C   UNL     1      19.782  51.994  48.535  1.00  0.00     0.051 C 
HETATM   25  C   UNL     1      21.172  49.938  48.942  1.00  0.00     0.039 A 
BRANCH  22  26
HETATM   26  O   UNL     1      17.548  50.300  48.712  1.00  0.00    -0.346 OA
BRANCH  26  27
HETATM   27  C   UNL     1      16.793  49.952  47.539  1.00  0.00     0.121 C 
HETATM   28  C   UNL     1      15.504  49.215  47.901  1.00  0.00     0.040 C 
HETATM   29  C   UNL     1      16.455  51.265  46.836  1.00  0.00     0.040 C 
ENDBRANCH  26  27
ENDBRANCH  22  26
ENDBRANCH   1  19
TORSDOF 3
ENDMDL
MODEL 3
REMARK VINA RESULT:      -8.1      7.118     10.466
REMARK  3 active torsions:
REMARK  status: ('A' for Active; 'I' for Inactive)
REMARK    1  A    between atoms: C_3  and  O_4 
REMARK    2  A    between atoms: O_4  and  C_5 
REMARK    3  A    between atoms: C_10  and  N_11 
REMARK       I    between atoms: N_11  and  C_12 
REMARK       I    between atoms: C_12  and  N_13 
ROOT
HETATM    1  N   UNL     1      27.732  40.713  49.659  1.00  0.00    -0.309 N 
HETATM    2  C   UNL     1      26.977  41.732  50.199  1.00  0.00     0.323 C 
HETATM    3  N   UNL     1      27.065  41.839  51.579  1.00  0.00    -0.328 N 
HETATM    4  C   UNL     1      26.595  43.086  52.194  1.00  0.00     0.185 C 
HETATM    5  C   UNL     1      27.623  43.493  53.198  1.00  0.00     0.035 A 
HETATM    6  C   UNL     1      28.636  42.705  53.713  1.00  0.00    -0.020 A 
HETATM    7  C   UNL     1      28.821  41.293  53.271  1.00  0.00     0.061 C 
HETATM    8  C   UNL     1      27.559  40.812  52.523  1.00  0.00     0.132 C 
HETATM    9  N   UNL     1      27.730  44.739  53.748  1.00  0.00    -0.357 N 
HETATM   10  H   UNL     1      27.135  45.529  53.543  1.00  0.00     0.166 HD
HETATM   11  C   UNL     1      28.804  44.774  54.615  1.00  0.00     0.043 A 
HETATM   12  C   UNL     1      29.389  43.505  54.613  1.00  0.00    -0.001 A 
HETATM   13  C   UNL     1      29.301  45.833  55.385  1.00  0.00     0.030 A 
HETATM   14  C   UNL     1      30.428  45.586  56.176  1.00  0.00     0.002 A 
HETATM   15  C   UNL     1      31.030  44.330  56.196  1.00  0.00     0.001 A 
HETATM   16  C   UNL     1      30.522  43.282  55.419  1.00  0.00     0.014 A 
HETATM   17  O   UNL     1      26.305  42.525  49.544  1.00  0.00    -0.247 OA
HETATM   18  H   UNL     1      28.460  40.359  50.255  1.00  0.00     0.170 HD
ENDROOT
BRANCH   1  19
HETATM   19  C   UNL     1      27.855  40.377  48.294  1.00  0.00     0.037 A 
HETATM   20  C   UNL     1      27.951  41.315  47.267  1.00  0.00     0.032 A 
HETATM   21  C   UNL     1      28.157  40.902  45.947  1.00  0.00     0.039 A 
HETATM   22  C   UNL     1      28.273  39.546  45.642  1.00  0.00     0.075 A 
HETATM   23  C   UNL     1      28.083  38.586  46.645  1.00  0.00    -0.026 A 
HETATM   24  C   UNL     1      28.169  37.117  46.342  1.00  0.00     0.051 C 
HETATM   25  C   UNL     1      27.892  39.014  47.969  1.00  0.00     0.039 A 
BRANCH  22  26
HETATM   26  O   UNL     1      28.532  39.091  44.377  1.00  0.00    -0.346 OA
BRANCH  26  27
HETATM   27  C   UNL     1      28.675  40.104  43.367  1.00  0.00     0.121 C 
HETATM   28  C   UNL     1      30.080  40.100  42.766  1.00  0.00     0.040 C 
HETATM   29  C   UNL     1      27.649  39.782  42.282  1.00  0.00     0.040 C 
ENDBRANCH  26  27
ENDBRANCH  22  26
ENDBRANCH   1  19
TORSDOF 3
ENDMDL
MODEL 4
REMARK VINA RESULT:      -8.1      4.157      5.403
REMARK  3 active torsions:
REMARK  status: ('A' for Active; 'I' for Inactive)
REMARK    1  A    between atoms: C_3  and  O_4 
REMARK    2  A    between atoms: O_4  and  C_5 
REMARK    3  A    between atoms: C_10  and  N_11 
REMARK       I    between atoms: N_11  and  C_12 
REMARK       I    between atoms: C_12  and  N_13 
ROOT
HETATM    1  N   UNL     1      26.243  43.174  52.280  1.00  0.00    -0.309 N 
HETATM    2  C   UNL     1      26.376  42.705  50.991  1.00  0.00     0.323 C 
HETATM    3  N   UNL     1      25.173  42.511  50.327  1.00  0.00    -0.328 N 
HETATM    4  C   UNL     1      25.220  42.362  48.868  1.00  0.00     0.185 C 
HETATM    5  C   UNL     1      24.129  43.213  48.306  1.00  0.00     0.035 A 
HETATM    6  C   UNL     1      23.063  43.758  48.998  1.00  0.00    -0.020 A 
HETATM    7  C   UNL     1      22.905  43.551  50.467  1.00  0.00     0.061 C 
HETATM    8  C   UNL     1      23.827  42.404  50.934  1.00  0.00     0.132 C 
HETATM    9  N   UNL     1      24.035  43.606  47.001  1.00  0.00    -0.357 N 
HETATM   10  H   UNL     1      24.688  43.373  46.266  1.00  0.00     0.166 HD
HETATM   11  C   UNL     1      22.922  44.404  46.834  1.00  0.00     0.043 A 
HETATM   12  C   UNL     1      22.291  44.512  48.076  1.00  0.00    -0.001 A 
HETATM   13  C   UNL     1      22.438  45.042  45.684  1.00  0.00     0.030 A 
HETATM   14  C   UNL     1      21.277  45.810  45.809  1.00  0.00     0.002 A 
HETATM   15  C   UNL     1      20.626  45.934  47.035  1.00  0.00     0.001 A 
HETATM   16  C   UNL     1      21.122  45.292  48.175  1.00  0.00     0.014 A 
HETATM   17  O   UNL     1      27.449  42.505  50.428  1.00  0.00    -0.247 OA
HETATM   18  H   UNL     1      25.351  43.587  52.495  1.00  0.00     0.170 HD
ENDROOT
BRANCH   1  19
HETATM   19  C   UNL     1      27.282  43.482  53.185  1.00  0.00     0.037 A 
HETATM   20  C   UNL     1      28.265  42.575  53.577  1.00  0.00     0.032 A 
HETATM   21  C   UNL     1      29.312  42.981  54.411  1.00  0.00     0.039 A 
HETATM   22  C   UNL     1      29.385  44.300  54.858  1.00  0.00     0.075 A 
HETATM   23  C   UNL     1      28.355  45.200  54.554  1.00  0.00    -0.026 A 
HETATM   24  C   UNL     1      28.388  46.619  55.048  1.00  0.00     0.051 C 
HETATM   25  C   UNL     1      27.319  44.784  53.702  1.00  0.00     0.039 A 
BRANCH  22  26
HETATM   26  O   UNL     1      30.418  44.765  55.629  1.00  0.00    -0.346 OA
BRANCH  26  27
HETATM   27  C   UNL     1      30.523  44.188  56.941  1.00  0.00     0.121 C 
HETATM   28  C   UNL     1      31.841  43.431  57.115  1.00  0.00     0.040 C 
HETATM   29  C   UNL     1      30.463  45.349  57.931  1.00  0.00     0.040 C 
ENDBRANCH  26  27
ENDBRANCH  22  26
ENDBRANCH   1  19
TORSDOF 3
ENDMDL
MODEL 5
REMARK VINA RESULT:      -8.0      7.618      9.534
REMARK  3 active torsions:
REMARK  status: ('A' for Active; 'I' for Inactive)
REMARK    1  A    between atoms: C_3  and  O_4 
REMARK    2  A    between atoms: O_4  and  C_5 
REMARK    3  A    between atoms: C_10  and  N_11 
REMARK       I    between atoms: N_11  and  C_12 
REMARK       I    between atoms: C_12  and  N_13 
ROOT
HETATM    1  N   UNL     1      28.041  42.255  51.860  1.00  0.00    -0.309 N 
HETATM    2  C   UNL     1      28.021  40.911  51.554  1.00  0.00     0.323 C 
HETATM    3  N   UNL     1      27.292  40.595  50.416  1.00  0.00    -0.328 N 
HETATM    4  C   UNL     1      27.507  39.272  49.819  1.00  0.00     0.185 C 
HETATM    5  C   UNL     1      27.635  39.473  48.345  1.00  0.00     0.035 A 
HETATM    6  C   UNL     1      27.282  40.602  47.628  1.00  0.00    -0.020 A 
HETATM    7  C   UNL     1      26.724  41.808  48.306  1.00  0.00     0.061 C 
HETATM    8  C   UNL     1      26.285  41.443  49.740  1.00  0.00     0.132 C 
HETATM    9  N   UNL     1      28.154  38.559  47.472  1.00  0.00    -0.357 N 
HETATM   10  H   UNL     1      28.513  37.647  47.716  1.00  0.00     0.166 HD
HETATM   11  C   UNL     1      28.147  39.080  46.194  1.00  0.00     0.043 A 
HETATM   12  C   UNL     1      27.600  40.364  46.265  1.00  0.00    -0.001 A 
HETATM   13  C   UNL     1      28.592  38.516  44.992  1.00  0.00     0.030 A 
HETATM   14  C   UNL     1      28.474  39.286  43.831  1.00  0.00     0.002 A 
HETATM   15  C   UNL     1      27.929  40.568  43.871  1.00  0.00     0.001 A 
HETATM   16  C   UNL     1      27.490  41.118  45.081  1.00  0.00     0.014 A 
HETATM   17  O   UNL     1      28.620  40.043  52.182  1.00  0.00    -0.247 OA
HETATM   18  H   UNL     1      27.787  42.870  51.106  1.00  0.00     0.170 HD
ENDROOT
BRANCH   1  19
HETATM   19  C   UNL     1      28.711  42.871  52.939  1.00  0.00     0.037 A 
HETATM   20  C   UNL     1      29.993  42.522  53.360  1.00  0.00     0.032 A 
HETATM   21  C   UNL     1      30.622  43.239  54.383  1.00  0.00     0.039 A 
HETATM   22  C   UNL     1      29.975  44.313  54.992  1.00  0.00     0.075 A 
HETATM   23  C   UNL     1      28.651  44.616  54.650  1.00  0.00    -0.026 A 
HETATM   24  C   UNL     1      27.915  45.748  55.311  1.00  0.00     0.051 C 
HETATM   25  C   UNL     1      28.036  43.900  53.610  1.00  0.00     0.039 A 
BRANCH  22  26
HETATM   26  O   UNL     1      30.567  45.084  55.958  1.00  0.00    -0.346 OA
BRANCH  26  27
HETATM   27  C   UNL     1      30.653  44.488  57.263  1.00  0.00     0.121 C 
HETATM   28  C   UNL     1      31.957  43.708  57.437  1.00  0.00     0.040 C 
HETATM   29  C   UNL     1      30.604  45.637  58.268  1.00  0.00     0.040 C 
ENDBRANCH  26  27
ENDBRANCH  22  26
ENDBRANCH   1  19
TORSDOF 3
ENDMDL
MODEL 6
REMARK VINA RESULT:      -7.9     19.274     21.126
REMARK  3 active torsions:
REMARK  status: ('A' for Active; 'I' for Inactive)
REMARK    1  A    between atoms: C_3  and  O_4 
REMARK    2  A    between atoms: O_4  and  C_5 
REMARK    3  A    between atoms: C_10  and  N_11 
REMARK       I    between atoms: N_11  and  C_12 
REMARK       I    between atoms: C_12  and  N_13 
ROOT
HETATM    1  N   UNL     1      38.140  42.885  64.608  1.00  0.00    -0.309 N 
HETATM    2  C   UNL     1      38.044  43.942  63.729  1.00  0.00     0.323 C 
HETATM    3  N   UNL     1      37.182  44.950  64.138  1.00  0.00    -0.328 N 
HETATM    4  C   UNL     1      37.287  46.248  63.462  1.00  0.00     0.185 C 
HETATM    5  C   UNL     1      37.253  47.298  64.523  1.00  0.00     0.035 A 
HETATM    6  C   UNL     1      36.856  47.135  65.837  1.00  0.00    -0.020 A 
HETATM    7  C   UNL     1      36.416  45.808  66.356  1.00  0.00     0.061 C 
HETATM    8  C   UNL     1      36.131  44.856  65.175  1.00  0.00     0.132 C 
HETATM    9  N   UNL     1      37.642  48.596  64.353  1.00  0.00    -0.357 N 
HETATM   10  H   UNL     1      37.998  48.999  63.497  1.00  0.00     0.166 HD
HETATM   11  C   UNL     1      37.506  49.283  65.542  1.00  0.00     0.043 A 
HETATM   12  C   UNL     1      37.010  48.386  66.492  1.00  0.00    -0.001 A 
HETATM   13  C   UNL     1      37.795  50.619  65.846  1.00  0.00     0.030 A 
HETATM   14  C   UNL     1      37.570  51.050  67.157  1.00  0.00     0.002 A 
HETATM   15  C   UNL     1      37.073  50.178  68.124  1.00  0.00     0.001 A 
HETATM   16  C   UNL     1      36.791  48.845  67.805  1.00  0.00     0.014 A 
HETATM   17  O   UNL     1      38.684  44.042  62.685  1.00  0.00    -0.247 OA
HETATM   18  H   UNL     1      37.822  43.076  65.543  1.00  0.00     0.170 HD
ENDROOT
BRANCH   1  19
HETATM   19  C   UNL     1      38.946  41.735  64.471  1.00  0.00     0.037 A 
HETATM   20  C   UNL     1      39.788  41.251  65.471  1.00  0.00     0.032 A 
HETATM   21  C   UNL     1      40.490  40.055  65.288  1.00  0.00     0.039 A 
HETATM   22  C   UNL     1      40.355  39.331  64.104  1.00  0.00     0.075 A 
HETATM   23  C   UNL     1      39.591  39.851  63.051  1.00  0.00    -0.026 A 
HETATM   24  C   UNL     1      39.451  39.111  61.750  1.00  0.00     0.051 C 
HETATM   25  C   UNL     1      38.877  41.044  63.253  1.00  0.00     0.039 A 
BRANCH  22  26
HETATM   26  O   UNL     1      40.974  38.128  63.896  1.00  0.00    -0.346 OA
BRANCH  26  27
HETATM   27  C   UNL     1      41.638  37.563  65.040  1.00  0.00     0.121 C 
HETATM   28  C   UNL     1      40.783  36.484  65.705  1.00  0.00     0.040 C 
HETATM   29  C   UNL     1      42.937  36.947  64.527  1.00  0.00     0.040 C 
ENDBRANCH  26  27
ENDBRANCH  22  26
ENDBRANCH   1  19
TORSDOF 3
ENDMDL
MODEL 7
REMARK VINA RESULT:      -7.8     14.033     17.160
REMARK  3 active torsions:
REMARK  status: ('A' for Active; 'I' for Inactive)
REMARK    1  A    between atoms: C_3  and  O_4 
REMARK    2  A    between atoms: O_4  and  C_5 
REMARK    3  A    between atoms: C_10  and  N_11 
REMARK       I    between atoms: N_11  and  C_12 
REMARK       I    between atoms: C_12  and  N_13 
ROOT
HETATM    1  N   UNL     1      34.030  52.294  40.192  1.00  0.00    -0.309 N 
HETATM    2  C   UNL     1      34.667  51.382  41.005  1.00  0.00     0.323 C 
HETATM    3  N   UNL     1      35.924  51.781  41.437  1.00  0.00    -0.328 N 
HETATM    4  C   UNL     1      36.514  51.058  42.569  1.00  0.00     0.185 C 
HETATM    5  C   UNL     1      37.079  52.083  43.497  1.00  0.00     0.035 A 
HETATM    6  C   UNL     1      37.324  53.413  43.212  1.00  0.00    -0.020 A 
HETATM    7  C   UNL     1      37.007  53.991  41.873  1.00  0.00     0.061 C 
HETATM    8  C   UNL     1      36.766  52.852  40.859  1.00  0.00     0.132 C 
HETATM    9  N   UNL     1      37.422  51.856  44.800  1.00  0.00    -0.357 N 
HETATM   10  H   UNL     1      37.334  50.976  45.289  1.00  0.00     0.166 HD
HETATM   11  C   UNL     1      37.885  53.024  45.369  1.00  0.00     0.043 A 
HETATM   12  C   UNL     1      37.837  54.019  44.389  1.00  0.00    -0.001 A 
HETATM   13  C   UNL     1      38.330  53.272  46.674  1.00  0.00     0.030 A 
HETATM   14  C   UNL     1      38.736  54.574  46.984  1.00  0.00     0.002 A 
HETATM   15  C   UNL     1      38.701  55.585  46.026  1.00  0.00     0.001 A 
HETATM   16  C   UNL     1      38.252  55.321  44.727  1.00  0.00     0.014 A 
HETATM   17  O   UNL     1      34.181  50.316  41.375  1.00  0.00    -0.247 OA
HETATM   18  H   UNL     1      34.394  53.230  40.232  1.00  0.00     0.170 HD
ENDROOT
BRANCH   1  19
HETATM   19  C   UNL     1      32.745  52.172  39.621  1.00  0.00     0.037 A 
HETATM   20  C   UNL     1      32.474  51.444  38.464  1.00  0.00     0.032 A 
HETATM   21  C   UNL     1      31.159  51.300  38.009  1.00  0.00     0.039 A 
HETATM   22  C   UNL     1      30.103  51.882  38.710  1.00  0.00     0.075 A 
HETATM   23  C   UNL     1      30.365  52.697  39.819  1.00  0.00    -0.026 A 
HETATM   24  C   UNL     1      29.252  53.364  40.576  1.00  0.00     0.051 C 
HETATM   25  C   UNL     1      31.688  52.820  40.275  1.00  0.00     0.039 A 
BRANCH  22  26
HETATM   26  O   UNL     1      28.793  51.725  38.341  1.00  0.00    -0.346 OA
BRANCH  26  27
HETATM   27  C   UNL     1      28.281  50.384  38.418  1.00  0.00     0.121 C 
HETATM   28  C   UNL     1      28.435  49.807  39.826  1.00  0.00     0.040 C 
HETATM   29  C   UNL     1      26.800  50.464  38.054  1.00  0.00     0.040 C 
ENDBRANCH  26  27
ENDBRANCH  22  26
ENDBRANCH   1  19
TORSDOF 3
ENDMDL
MODEL 8
REMARK VINA RESULT:      -7.7     14.352     15.781
REMARK  3 active torsions:
REMARK  status: ('A' for Active; 'I' for Inactive)
REMARK    1  A    between atoms: C_3  and  O_4 
REMARK    2  A    between atoms: O_4  and  C_5 
REMARK    3  A    between atoms: C_10  and  N_11 
REMARK       I    between atoms: N_11  and  C_12 
REMARK       I    between atoms: C_12  and  N_13 
ROOT
HETATM    1  N   UNL     1      35.598  52.466  43.590  1.00  0.00    -0.309 N 
HETATM    2  C   UNL     1      35.468  51.459  42.659  1.00  0.00     0.323 C 
HETATM    3  N   UNL     1      34.160  51.054  42.433  1.00  0.00    -0.328 N 
HETATM    4  C   UNL     1      33.894  50.262  41.228  1.00  0.00     0.185 C 
HETATM    5  C   UNL     1      32.665  50.828  40.595  1.00  0.00     0.035 A 
HETATM    6  C   UNL     1      31.751  51.684  41.179  1.00  0.00    -0.020 A 
HETATM    7  C   UNL     1      31.930  52.172  42.578  1.00  0.00     0.061 C 
HETATM    8  C   UNL     1      32.987  51.309  43.299  1.00  0.00     0.132 C 
HETATM    9  N   UNL     1      32.268  50.594  39.309  1.00  0.00    -0.357 N 
HETATM   10  H   UNL     1      32.755  50.019  38.635  1.00  0.00     0.166 HD
HETATM   11  C   UNL     1      31.107  51.292  39.046  1.00  0.00     0.043 A 
HETATM   12  C   UNL     1      30.760  51.984  40.209  1.00  0.00    -0.001 A 
HETATM   13  C   UNL     1      30.353  51.369  37.868  1.00  0.00     0.030 A 
HETATM   14  C   UNL     1      29.210  52.175  37.882  1.00  0.00     0.002 A 
HETATM   15  C   UNL     1      28.838  52.875  39.028  1.00  0.00     0.001 A 
HETATM   16  C   UNL     1      29.604  52.789  40.197  1.00  0.00     0.014 A 
HETATM   17  O   UNL     1      36.400  50.968  42.028  1.00  0.00    -0.247 OA
HETATM   18  H   UNL     1      34.756  52.981  43.785  1.00  0.00     0.170 HD
ENDROOT
BRANCH   1  19
HETATM   19  C   UNL     1      36.794  53.090  44.008  1.00  0.00     0.037 A 
HETATM   20  C   UNL     1      37.517  53.988  43.225  1.00  0.00     0.032 A 
HETATM   21  C   UNL     1      38.647  54.629  43.744  1.00  0.00     0.039 A 
HETATM   22  C   UNL     1      39.061  54.380  45.052  1.00  0.00     0.075 A 
HETATM   23  C   UNL     1      38.405  53.408  45.819  1.00  0.00    -0.026 A 
HETATM   24  C   UNL     1      38.847  53.093  47.221  1.00  0.00     0.051 C 
HETATM   25  C   UNL     1      37.262  52.784  45.293  1.00  0.00     0.039 A 
BRANCH  22  26
HETATM   26  O   UNL     1      40.125  55.022  45.627  1.00  0.00    -0.346 OA
BRANCH  26  27
HETATM   27  C   UNL     1      40.394  56.346  45.134  1.00  0.00     0.121 C 
HETATM   28  C   UNL     1      39.731  57.412  46.006  1.00  0.00     0.040 C 
HETATM   29  C   UNL     1      41.911  56.521  45.171  1.00  0.00     0.040 C 
ENDBRANCH  26  27
ENDBRANCH  22  26
ENDBRANCH   1  19
TORSDOF 3
ENDMDL
MODEL 9
REMARK VINA RESULT:      -7.6     11.526     12.981
REMARK  3 active torsions:
REMARK  status: ('A' for Active; 'I' for Inactive)
REMARK    1  A    between atoms: C_3  and  O_4 
REMARK    2  A    between atoms: O_4  and  C_5 
REMARK    3  A    between atoms: C_10  and  N_11 
REMARK       I    between atoms: N_11  and  C_12 
REMARK       I    between atoms: C_12  and  N_13 
ROOT
HETATM    1  N   UNL     1      31.378  49.820  40.590  1.00  0.00    -0.309 N 
HETATM    2  C   UNL     1      30.640  50.464  39.621  1.00  0.00     0.323 C 
HETATM    3  N   UNL     1      29.638  49.689  39.055  1.00  0.00    -0.328 N 
HETATM    4  C   UNL     1      28.593  50.382  38.293  1.00  0.00     0.185 C 
HETATM    5  C   UNL     1      27.284  49.803  38.719  1.00  0.00     0.035 A 
HETATM    6  C   UNL     1      27.086  48.626  39.416  1.00  0.00    -0.020 A 
HETATM    7  C   UNL     1      28.235  47.782  39.856  1.00  0.00     0.061 C 
HETATM    8  C   UNL     1      29.515  48.215  39.109  1.00  0.00     0.132 C 
HETATM    9  N   UNL     1      26.065  50.377  38.496  1.00  0.00    -0.357 N 
HETATM   10  H   UNL     1      25.902  51.255  38.024  1.00  0.00     0.166 HD
HETATM   11  C   UNL     1      25.073  49.590  39.044  1.00  0.00     0.043 A 
HETATM   12  C   UNL     1      25.690  48.480  39.627  1.00  0.00    -0.001 A 
HETATM   13  C   UNL     1      23.686  49.785  39.075  1.00  0.00     0.030 A 
HETATM   14  C   UNL     1      22.910  48.816  39.720  1.00  0.00     0.002 A 
HETATM   15  C   UNL     1      23.497  47.698  40.307  1.00  0.00     0.001 A 
HETATM   16  C   UNL     1      24.885  47.519  40.269  1.00  0.00     0.014 A 
HETATM   17  O   UNL     1      30.797  51.636  39.289  1.00  0.00    -0.247 OA
HETATM   18  H   UNL     1      30.949  48.997  40.978  1.00  0.00     0.170 HD
ENDROOT
BRANCH   1  19
HETATM   19  C   UNL     1      32.442  50.357  41.347  1.00  0.00     0.037 A 
HETATM   20  C   UNL     1      33.755  50.444  40.890  1.00  0.00     0.032 A 
HETATM   21  C   UNL     1      34.736  51.068  41.668  1.00  0.00     0.039 A 
HETATM   22  C   UNL     1      34.410  51.613  42.909  1.00  0.00     0.075 A 
HETATM   23  C   UNL     1      33.119  51.448  43.428  1.00  0.00    -0.026 A 
HETATM   24  C   UNL     1      32.745  51.995  44.777  1.00  0.00     0.051 C 
HETATM   25  C   UNL     1      32.139  50.834  42.630  1.00  0.00     0.039 A 
BRANCH  22  26
HETATM   26  O   UNL     1      35.318  52.284  43.685  1.00  0.00    -0.346 OA
BRANCH  26  27
HETATM   27  C   UNL     1      36.659  52.335  43.171  1.00  0.00     0.121 C 
HETATM   28  C   UNL     1      37.087  53.771  42.868  1.00  0.00     0.040 C 
HETATM   29  C   UNL     1      37.561  51.747  44.254  1.00  0.00     0.040 C 
ENDBRANCH  26  27
ENDBRANCH  22  26
ENDBRANCH   1  19
TORSDOF 3
ENDMDL
MODEL 10
REMARK VINA RESULT:      -7.4      7.524      9.696
REMARK  3 active torsions:
REMARK  status: ('A' for Active; 'I' for Inactive)
REMARK    1  A    between atoms: C_3  and  O_4 
REMARK    2  A    between atoms: O_4  and  C_5 
REMARK    3  A    between atoms: C_10  and  N_11 
REMARK       I    between atoms: N_11  and  C_12 
REMARK       I    between atoms: C_12  and  N_13 
ROOT
HETATM    1  N   UNL     1      28.526  41.218  51.082  1.00  0.00    -0.309 N 
HETATM    2  C   UNL     1      27.952  41.580  49.883  1.00  0.00     0.323 C 
HETATM    3  N   UNL     1      28.001  40.596  48.906  1.00  0.00    -0.328 N 
HETATM    4  C   UNL     1      27.119  40.750  47.743  1.00  0.00     0.185 C 
HETATM    5  C   UNL     1      26.487  39.421  47.494  1.00  0.00     0.035 A 
HETATM    6  C   UNL     1      26.891  38.202  48.007  1.00  0.00    -0.020 A 
HETATM    7  C   UNL     1      28.056  38.098  48.934  1.00  0.00     0.061 C 
HETATM    8  C   UNL     1      28.878  39.404  48.885  1.00  0.00     0.132 C 
HETATM    9  N   UNL     1      25.379  39.212  46.724  1.00  0.00    -0.357 N 
HETATM   10  H   UNL     1      24.855  39.926  46.236  1.00  0.00     0.166 HD
HETATM   11  C   UNL     1      25.052  37.872  46.731  1.00  0.00     0.043 A 
HETATM   12  C   UNL     1      25.991  37.214  47.530  1.00  0.00    -0.001 A 
HETATM   13  C   UNL     1      23.995  37.201  46.102  1.00  0.00     0.030 A 
HETATM   14  C   UNL     1      23.896  35.820  46.296  1.00  0.00     0.002 A 
HETATM   15  C   UNL     1      24.819  35.137  47.085  1.00  0.00     0.001 A 
HETATM   16  C   UNL     1      25.870  35.822  47.708  1.00  0.00     0.014 A 
HETATM   17  O   UNL     1      27.395  42.654  49.672  1.00  0.00    -0.247 OA
HETATM   18  H   UNL     1      28.651  40.229  51.215  1.00  0.00     0.170 HD
ENDROOT
BRANCH   1  19
HETATM   19  C   UNL     1      28.607  41.997  52.257  1.00  0.00     0.037 A 
HETATM   20  C   UNL     1      29.807  42.394  52.845  1.00  0.00     0.032 A 
HETATM   21  C   UNL     1      29.804  43.239  53.960  1.00  0.00     0.039 A 
HETATM   22  C   UNL     1      28.600  43.696  54.495  1.00  0.00     0.075 A 
HETATM   23  C   UNL     1      27.384  43.230  53.978  1.00  0.00    -0.026 A 
HETATM   24  C   UNL     1      26.069  43.678  54.552  1.00  0.00     0.051 C 
HETATM   25  C   UNL     1      27.400  42.395  52.848  1.00  0.00     0.039 A 
BRANCH  22  26
HETATM   26  O   UNL     1      28.541  44.568  55.548  1.00  0.00    -0.346 OA
BRANCH  26  27
HETATM   27  C   UNL     1      29.247  45.808  55.371  1.00  0.00     0.121 C 
HETATM   28  C   UNL     1      28.284  46.992  55.280  1.00  0.00     0.040 C 
HETATM   29  C   UNL     1      30.150  45.971  56.592  1.00  0.00     0.040 C 
ENDBRANCH  26  27
ENDBRANCH  22  26
ENDBRANCH   1  19
TORSDOF 3
ENDMDL
