MODEL 1
REMARK VINA RESULT:      -7.6      0.000      0.000
REMARK  8 active torsions:
REMARK  status: ('A' for Active; 'I' for Inactive)
REMARK    1  A    between atoms: C_2  and  O_3 
REMARK    2  A    between atoms: O_3  and  C_4 
REMARK       I    between atoms: C_4  and  N_5 
REMARK    3  A    between atoms: C_8  and  N_9 
REMARK       I    between atoms: N_9  and  C_10 
REMARK    4  A    between atoms: C_10  and  C_11 
REMARK    5  A    between atoms: C_12  and  C_13 
REMARK    6  A    between atoms: N_18  and  C_19 
REMARK    7  A    between atoms: C_19  and  C_20 
REMARK    8  A    between atoms: C_20  and  O_21 
ROOT
HETATM    1  C   UNL     1      31.852  50.054  39.732  1.00  0.00     0.139 C 
HETATM    2  C   UNL     1      32.801  50.449  40.885  1.00  0.00     0.145 C 
HETATM    3  N   UNL     1      32.139  51.157  41.989  1.00  0.00    -0.335 N 
HETATM    4  C   UNL     1      31.038  51.986  41.776  1.00  0.00     0.255 C 
HETATM    5  O   UNL     1      30.491  52.628  42.670  1.00  0.00    -0.267 OA
HETATM    6  C   UNL     1      30.477  52.062  40.400  1.00  0.00     0.039 A 
HETATM    7  C   UNL     1      30.838  51.126  39.423  1.00  0.00    -0.027 A 
HETATM    8  C   UNL     1      29.534  53.056  40.104  1.00  0.00     0.017 A 
HETATM    9  C   UNL     1      28.952  53.121  38.838  1.00  0.00     0.001 A 
HETATM   10  C   UNL     1      29.301  52.187  37.866  1.00  0.00     0.001 A 
HETATM   11  C   UNL     1      30.237  51.192  38.154  1.00  0.00     0.009 A 
ENDROOT
BRANCH   1  12
HETATM   12  C   UNL     1      31.239  48.702  40.085  1.00  0.00     0.229 C 
HETATM   13  N   UNL     1      29.851  48.713  40.060  1.00  0.00    -0.356 N 
HETATM   14  H   UNL     1      29.374  49.607  40.066  1.00  0.00     0.162 HD
HETATM   15  O   UNL     1      31.887  47.686  40.308  1.00  0.00    -0.273 OA
BRANCH  13  16
HETATM   16  C   UNL     1      29.059  47.504  40.267  1.00  0.00     0.087 C 
HETATM   17  C   UNL     1      27.858  47.741  41.185  1.00  0.00     0.045 C 
HETATM   18  C   UNL     1      26.762  48.555  40.507  1.00  0.00     0.130 C 
HETATM   19  N   UNL     1      26.408  48.020  39.195  1.00  0.00    -0.328 N 
HETATM   20  C   UNL     1      25.140  48.199  38.651  1.00  0.00     0.362 C 
HETATM   21  C   UNL     1      27.502  47.738  38.278  1.00  0.00     0.130 C 
HETATM   22  O   UNL     1      24.874  48.012  37.470  1.00  0.00    -0.238 OA
HETATM   23  C   UNL     1      28.605  46.914  38.931  1.00  0.00     0.045 C 
BRANCH  20  24
HETATM   24  O   UNL     1      24.227  48.598  39.576  1.00  0.00    -0.304 OA
BRANCH  24  25
HETATM   25  C   UNL     1      23.383  49.695  39.197  1.00  0.00     0.176 C 
HETATM   26  C   UNL     1      22.028  49.584  39.873  1.00  0.00     0.034 C 
ENDBRANCH  24  25
ENDBRANCH  20  24
ENDBRANCH  13  16
ENDBRANCH   1  12
BRANCH   2  27
HETATM   27  C   UNL     1      33.971  51.265  40.359  1.00  0.00     0.006 A 
HETATM   28  S   UNL     1      35.567  50.636  40.527  1.00  0.00    -0.104 SA
HETATM   29  C   UNL     1      36.257  51.984  39.739  1.00  0.00     0.050 A 
HETATM   30  C   UNL     1      35.306  52.907  39.366  1.00  0.00     0.008 A 
HETATM   31  C   UNL     1      33.990  52.493  39.724  1.00  0.00     0.017 A 
ENDBRANCH   2  27
BRANCH   3  32
HETATM   32  C   UNL     1      32.479  50.825  43.382  1.00  0.00     0.153 C 
BRANCH  32  33
HETATM   33  C   UNL     1      33.347  51.826  44.154  1.00  0.00     0.187 C 
BRANCH  33  34
HETATM   34  O   UNL     1      34.429  52.279  43.343  1.00  0.00    -0.394 OA
HETATM   35  C   UNL     1      35.641  52.355  44.081  1.00  0.00     0.201 C 
ENDBRANCH  33  34
ENDBRANCH  32  33
ENDBRANCH   3  32
TORSDOF 8
ENDMDL
MODEL 2
REMARK VINA RESULT:      -7.4     13.258     17.394
REMARK  8 active torsions:
REMARK  status: ('A' for Active; 'I' for Inactive)
REMARK    1  A    between atoms: C_2  and  O_3 
REMARK    2  A    between atoms: O_3  and  C_4 
REMARK       I    between atoms: C_4  and  N_5 
REMARK    3  A    between atoms: C_8  and  N_9 
REMARK       I    between atoms: N_9  and  C_10 
REMARK    4  A    between atoms: C_10  and  C_11 
REMARK    5  A    between atoms: C_12  and  C_13 
REMARK    6  A    between atoms: N_18  and  C_19 
REMARK    7  A    between atoms: C_19  and  C_20 
REMARK    8  A    between atoms: C_20  and  O_21 
ROOT
HETATM    1  C   UNL     1      16.961  51.999  46.850  1.00  0.00     0.139 C 
HETATM    2  C   UNL     1      16.393  51.241  45.629  1.00  0.00     0.145 C 
HETATM    3  N   UNL     1      16.594  49.787  45.681  1.00  0.00    -0.335 N 
HETATM    4  C   UNL     1      17.704  49.219  46.307  1.00  0.00     0.255 C 
HETATM    5  O   UNL     1      17.923  48.010  46.328  1.00  0.00    -0.267 OA
HETATM    6  C   UNL     1      18.645  50.127  47.017  1.00  0.00     0.039 A 
HETATM    7  C   UNL     1      18.289  51.449  47.307  1.00  0.00    -0.027 A 
HETATM    8  C   UNL     1      19.881  49.624  47.446  1.00  0.00     0.017 A 
HETATM    9  C   UNL     1      20.764  50.435  48.159  1.00  0.00     0.001 A 
HETATM   10  C   UNL     1      20.410  51.748  48.457  1.00  0.00     0.001 A 
HETATM   11  C   UNL     1      19.179  52.255  48.037  1.00  0.00     0.009 A 
ENDROOT
BRANCH   1  12
HETATM   12  C   UNL     1      15.885  52.002  47.930  1.00  0.00     0.229 C 
HETATM   13  N   UNL     1      15.317  53.253  48.128  1.00  0.00    -0.356 N 
HETATM   14  H   UNL     1      15.797  54.065  47.759  1.00  0.00     0.162 HD
HETATM   15  O   UNL     1      15.503  51.002  48.528  1.00  0.00    -0.273 OA
BRANCH  13  16
HETATM   16  C   UNL     1      14.199  53.465  49.042  1.00  0.00     0.087 C 
HETATM   17  C   UNL     1      14.636  53.474  50.509  1.00  0.00     0.045 C 
HETATM   18  C   UNL     1      15.406  54.737  50.876  1.00  0.00     0.130 C 
HETATM   19  N   UNL     1      14.710  55.951  50.459  1.00  0.00    -0.328 N 
HETATM   20  C   UNL     1      14.883  57.159  51.126  1.00  0.00     0.362 C 
HETATM   21  C   UNL     1      14.235  56.002  49.084  1.00  0.00     0.130 C 
HETATM   22  O   UNL     1      14.543  58.244  50.669  1.00  0.00    -0.238 OA
HETATM   23  C   UNL     1      13.450  54.754  48.697  1.00  0.00     0.045 C 
BRANCH  20  24
HETATM   24  O   UNL     1      15.463  57.003  52.346  1.00  0.00    -0.304 OA
BRANCH  24  25
HETATM   25  C   UNL     1      15.425  58.146  53.213  1.00  0.00     0.176 C 
HETATM   26  C   UNL     1      16.044  57.815  54.559  1.00  0.00     0.034 C 
ENDBRANCH  24  25
ENDBRANCH  20  24
ENDBRANCH  13  16
ENDBRANCH   1  12
BRANCH   2  27
HETATM   27  C   UNL     1      16.962  51.808  44.337  1.00  0.00     0.006 A 
HETATM   28  S   UNL     1      16.532  53.410  43.871  1.00  0.00    -0.104 SA
HETATM   29  C   UNL     1      17.502  53.337  42.468  1.00  0.00     0.050 A 
HETATM   30  C   UNL     1      18.130  52.120  42.337  1.00  0.00     0.008 A 
HETATM   31  C   UNL     1      17.819  51.238  43.413  1.00  0.00     0.017 A 
ENDBRANCH   2  27
BRANCH   3  32
HETATM   32  C   UNL     1      15.506  48.881  45.277  1.00  0.00     0.153 C 
BRANCH  32  33
HETATM   33  C   UNL     1      14.162  49.026  46.000  1.00  0.00     0.187 C 
BRANCH  33  34
HETATM   34  O   UNL     1      13.483  47.774  46.050  1.00  0.00    -0.394 OA
HETATM   35  C   UNL     1      13.058  47.357  44.759  1.00  0.00     0.201 C 
ENDBRANCH  33  34
ENDBRANCH  32  33
ENDBRANCH   3  32
TORSDOF 8
ENDMDL
MODEL 3
REMARK VINA RESULT:      -7.3     25.667     28.158
REMARK  8 active torsions:
REMARK  status: ('A' for Active; 'I' for Inactive)
REMARK    1  A    between atoms: C_2  and  O_3 
REMARK    2  A    between atoms: O_3  and  C_4 
REMARK       I    between atoms: C_4  and  N_5 
REMARK    3  A    between atoms: C_8  and  N_9 
REMARK       I    between atoms: N_9  and  C_10 
REMARK    4  A    between atoms: C_10  and  C_11 
REMARK    5  A    between atoms: C_12  and  C_13 
REMARK    6  A    between atoms: N_18  and  C_19 
REMARK    7  A    between atoms: C_19  and  C_20 
REMARK    8  A    between atoms: C_20  and  O_21 
ROOT
HETATM    1  C   UNL     1      38.684  46.708  66.073  1.00  0.00     0.139 C 
HETATM    2  C   UNL     1      38.126  45.894  67.262  1.00  0.00     0.145 C 
HETATM    3  N   UNL     1      36.834  46.380  67.766  1.00  0.00    -0.335 N 
HETATM    4  C   UNL     1      36.485  47.729  67.715  1.00  0.00     0.255 C 
HETATM    5  O   UNL     1      35.433  48.173  68.169  1.00  0.00    -0.267 OA
HETATM    6  C   UNL     1      37.421  48.667  67.040  1.00  0.00     0.039 A 
HETATM    7  C   UNL     1      38.459  48.191  66.229  1.00  0.00    -0.027 A 
HETATM    8  C   UNL     1      37.220  50.047  67.180  1.00  0.00     0.017 A 
HETATM    9  C   UNL     1      38.049  50.953  66.518  1.00  0.00     0.001 A 
HETATM   10  C   UNL     1      39.076  50.483  65.703  1.00  0.00     0.001 A 
HETATM   11  C   UNL     1      39.281  49.110  65.556  1.00  0.00     0.009 A 
ENDROOT
BRANCH   1  12
HETATM   12  C   UNL     1      38.091  46.121  64.796  1.00  0.00     0.229 C 
HETATM   13  N   UNL     1      38.638  44.890  64.460  1.00  0.00    -0.356 N 
HETATM   14  H   UNL     1      39.506  44.610  64.901  1.00  0.00     0.162 HD
HETATM   15  O   UNL     1      37.182  46.637  64.155  1.00  0.00    -0.273 OA
BRANCH  13  16
HETATM   16  C   UNL     1      38.148  44.103  63.332  1.00  0.00     0.087 C 
HETATM   17  C   UNL     1      39.278  43.411  62.567  1.00  0.00     0.045 C 
HETATM   18  C   UNL     1      39.878  42.247  63.347  1.00  0.00     0.130 C 
HETATM   19  N   UNL     1      38.857  41.332  63.850  1.00  0.00    -0.328 N 
HETATM   20  C   UNL     1      39.128  39.987  64.075  1.00  0.00     0.362 C 
HETATM   21  C   UNL     1      37.733  41.922  64.561  1.00  0.00     0.130 C 
HETATM   22  O   UNL     1      38.406  39.248  64.734  1.00  0.00    -0.238 OA
HETATM   23  C   UNL     1      37.107  43.081  63.793  1.00  0.00     0.045 C 
BRANCH  20  24
HETATM   24  O   UNL     1      40.278  39.578  63.476  1.00  0.00    -0.304 OA
BRANCH  24  25
HETATM   25  C   UNL     1      41.127  38.725  64.257  1.00  0.00     0.176 C 
HETATM   26  C   UNL     1      42.018  39.551  65.168  1.00  0.00     0.034 C 
ENDBRANCH  24  25
ENDBRANCH  20  24
ENDBRANCH  13  16
ENDBRANCH   1  12
BRANCH   2  27
HETATM   27  C   UNL     1      39.144  45.830  68.390  1.00  0.00     0.006 A 
HETATM   28  S   UNL     1      40.574  44.894  68.168  1.00  0.00    -0.104 SA
HETATM   29  C   UNL     1      41.170  45.310  69.712  1.00  0.00     0.050 A 
HETATM   30  C   UNL     1      40.302  46.128  70.398  1.00  0.00     0.008 A 
HETATM   31  C   UNL     1      39.134  46.427  69.637  1.00  0.00     0.017 A 
ENDBRANCH   2  27
BRANCH   3  32
HETATM   32  C   UNL     1      35.779  45.419  68.125  1.00  0.00     0.153 C 
BRANCH  32  33
HETATM   33  C   UNL     1      35.441  44.328  67.102  1.00  0.00     0.187 C 
BRANCH  33  34
HETATM   34  O   UNL     1      34.453  43.441  67.624  1.00  0.00    -0.394 OA
HETATM   35  C   UNL     1      33.766  42.754  66.587  1.00  0.00     0.201 C 
ENDBRANCH  33  34
ENDBRANCH  32  33
ENDBRANCH   3  32
TORSDOF 8
ENDMDL
MODEL 4
REMARK VINA RESULT:      -7.2     11.279     13.974
REMARK  8 active torsions:
REMARK  status: ('A' for Active; 'I' for Inactive)
REMARK    1  A    between atoms: C_2  and  O_3 
REMARK    2  A    between atoms: O_3  and  C_4 
REMARK       I    between atoms: C_4  and  N_5 
REMARK    3  A    between atoms: C_8  and  N_9 
REMARK       I    between atoms: N_9  and  C_10 
REMARK    4  A    between atoms: C_10  and  C_11 
REMARK    5  A    between atoms: C_12  and  C_13 
REMARK    6  A    between atoms: N_18  and  C_19 
REMARK    7  A    between atoms: C_19  and  C_20 
REMARK    8  A    between atoms: C_20  and  O_21 
ROOT
HETATM    1  C   UNL     1      21.505  46.569  47.826  1.00  0.00     0.139 C 
HETATM    2  C   UNL     1      21.158  47.711  48.809  1.00  0.00     0.145 C 
HETATM    3  N   UNL     1      19.725  48.024  48.881  1.00  0.00    -0.335 N 
HETATM    4  C   UNL     1      18.883  47.872  47.779  1.00  0.00     0.255 C 
HETATM    5  O   UNL     1      17.690  48.168  47.794  1.00  0.00    -0.267 OA
HETATM    6  C   UNL     1      19.455  47.282  46.539  1.00  0.00     0.039 A 
HETATM    7  C   UNL     1      20.695  46.633  46.556  1.00  0.00    -0.027 A 
HETATM    8  C   UNL     1      18.709  47.337  45.354  1.00  0.00     0.017 A 
HETATM    9  C   UNL     1      19.195  46.749  44.186  1.00  0.00     0.001 A 
HETATM   10  C   UNL     1      20.424  46.094  44.201  1.00  0.00     0.001 A 
HETATM   11  C   UNL     1      21.171  46.032  45.378  1.00  0.00     0.009 A 
ENDROOT
BRANCH   1  12
HETATM   12  C   UNL     1      21.369  45.253  48.585  1.00  0.00     0.229 C 
HETATM   13  N   UNL     1      22.591  44.722  48.974  1.00  0.00    -0.356 N 
HETATM   14  H   UNL     1      23.433  45.078  48.537  1.00  0.00     0.162 HD
HETATM   15  O   UNL     1      20.299  44.735  48.884  1.00  0.00    -0.273 OA
BRANCH  13  16
HETATM   16  C   UNL     1      22.691  43.521  49.797  1.00  0.00     0.087 C 
HETATM   17  C   UNL     1      23.166  42.303  49.001  1.00  0.00     0.045 C 
HETATM   18  C   UNL     1      24.643  42.390  48.635  1.00  0.00     0.130 C 
HETATM   19  N   UNL     1      25.481  42.706  49.789  1.00  0.00    -0.328 N 
HETATM   20  C   UNL     1      26.811  42.304  49.859  1.00  0.00     0.362 C 
HETATM   21  C   UNL     1      25.072  43.833  50.615  1.00  0.00     0.130 C 
HETATM   22  O   UNL     1      27.618  42.760  50.660  1.00  0.00    -0.238 OA
HETATM   23  C   UNL     1      23.600  43.761  51.004  1.00  0.00     0.045 C 
BRANCH  20  24
HETATM   24  O   UNL     1      27.114  41.343  48.947  1.00  0.00    -0.304 OA
BRANCH  24  25
HETATM   25  C   UNL     1      27.865  40.223  49.437  1.00  0.00     0.176 C 
HETATM   26  C   UNL     1      27.147  38.922  49.124  1.00  0.00     0.034 C 
ENDBRANCH  24  25
ENDBRANCH  20  24
ENDBRANCH  13  16
ENDBRANCH   1  12
BRANCH   2  27
HETATM   27  C   UNL     1      21.958  48.962  48.479  1.00  0.00     0.006 A 
HETATM   28  S   UNL     1      23.667  48.937  48.694  1.00  0.00    -0.104 SA
HETATM   29  C   UNL     1      23.831  50.541  48.131  1.00  0.00     0.050 A 
HETATM   30  C   UNL     1      22.617  51.098  47.800  1.00  0.00     0.008 A 
HETATM   31  C   UNL     1      21.538  50.190  48.001  1.00  0.00     0.017 A 
ENDBRANCH   2  27
BRANCH   3  32
HETATM   32  C   UNL     1      19.095  48.285  50.185  1.00  0.00     0.153 C 
BRANCH  32  33
HETATM   33  C   UNL     1      19.189  49.711  50.741  1.00  0.00     0.187 C 
BRANCH  33  34
HETATM   34  O   UNL     1      18.112  50.509  50.255  1.00  0.00    -0.394 OA
HETATM   35  C   UNL     1      18.560  51.784  49.816  1.00  0.00     0.201 C 
ENDBRANCH  33  34
ENDBRANCH  32  33
ENDBRANCH   3  32
TORSDOF 8
ENDMDL
MODEL 5
REMARK VINA RESULT:      -7.0     11.459     14.360
REMARK  8 active torsions:
REMARK  status: ('A' for Active; 'I' for Inactive)
REMARK    1  A    between atoms: C_2  and  O_3 
REMARK    2  A    between atoms: O_3  and  C_4 
REMARK       I    between atoms: C_4  and  N_5 
REMARK    3  A    between atoms: C_8  and  N_9 
REMARK       I    between atoms: N_9  and  C_10 
REMARK    4  A    between atoms: C_10  and  C_11 
REMARK    5  A    between atoms: C_12  and  C_13 
REMARK    6  A    between atoms: N_18  and  C_19 
REMARK    7  A    between atoms: C_19  and  C_20 
REMARK    8  A    between atoms: C_20  and  O_21 
ROOT
HETATM    1  C   UNL     1      19.817  49.598  46.984  1.00  0.00     0.139 C 
HETATM    2  C   UNL     1      20.652  48.490  47.663  1.00  0.00     0.145 C 
HETATM    3  N   UNL     1      20.041  47.942  48.882  1.00  0.00    -0.335 N 
HETATM    4  C   UNL     1      19.240  48.721  49.718  1.00  0.00     0.255 C 
HETATM    5  O   UNL     1      18.753  48.306  50.766  1.00  0.00    -0.267 OA
HETATM    6  C   UNL     1      18.933  50.113  49.290  1.00  0.00     0.039 A 
HETATM    7  C   UNL     1      19.178  50.534  47.978  1.00  0.00    -0.027 A 
HETATM    8  C   UNL     1      18.338  50.989  50.208  1.00  0.00     0.017 A 
HETATM    9  C   UNL     1      17.991  52.285  49.824  1.00  0.00     0.001 A 
HETATM   10  C   UNL     1      18.225  52.705  48.517  1.00  0.00     0.001 A 
HETATM   11  C   UNL     1      18.813  51.836  47.596  1.00  0.00     0.009 A 
ENDROOT
BRANCH   1  12
HETATM   12  C   UNL     1      18.826  48.916  46.046  1.00  0.00     0.229 C 
HETATM   13  N   UNL     1      17.616  49.591  45.953  1.00  0.00    -0.356 N 
HETATM   14  H   UNL     1      17.395  50.287  46.654  1.00  0.00     0.162 HD
HETATM   15  O   UNL     1      19.075  47.913  45.388  1.00  0.00    -0.273 OA
BRANCH  13  16
HETATM   16  C   UNL     1      16.560  49.171  45.036  1.00  0.00     0.087 C 
HETATM   17  C   UNL     1      15.161  49.437  45.595  1.00  0.00     0.045 C 
HETATM   18  C   UNL     1      14.811  50.920  45.598  1.00  0.00     0.130 C 
HETATM   19  N   UNL     1      15.062  51.551  44.305  1.00  0.00    -0.328 N 
HETATM   20  C   UNL     1      14.346  52.667  43.885  1.00  0.00     0.362 C 
HETATM   21  C   UNL     1      16.362  51.316  43.696  1.00  0.00     0.130 C 
HETATM   22  O   UNL     1      14.688  53.384  42.952  1.00  0.00    -0.238 OA
HETATM   23  C   UNL     1      16.728  49.836  43.669  1.00  0.00     0.045 C 
BRANCH  20  24
HETATM   24  O   UNL     1      13.218  52.870  44.618  1.00  0.00    -0.304 OA
BRANCH  24  25
HETATM   25  C   UNL     1      13.009  54.207  45.095  1.00  0.00     0.176 C 
HETATM   26  C   UNL     1      13.650  54.393  46.458  1.00  0.00     0.034 C 
ENDBRANCH  24  25
ENDBRANCH  20  24
ENDBRANCH  13  16
ENDBRANCH   1  12
BRANCH   2  27
HETATM   27  C   UNL     1      22.061  48.984  47.955  1.00  0.00     0.006 A 
HETATM   28  S   UNL     1      23.139  47.959  48.824  1.00  0.00    -0.104 SA
HETATM   29  C   UNL     1      24.408  49.097  48.730  1.00  0.00     0.050 A 
HETATM   30  C   UNL     1      24.027  50.242  48.068  1.00  0.00     0.008 A 
HETATM   31  C   UNL     1      22.675  50.178  47.622  1.00  0.00     0.017 A 
ENDBRANCH   2  27
BRANCH   3  32
HETATM   32  C   UNL     1      20.068  46.491  49.128  1.00  0.00     0.153 C 
BRANCH  32  33
HETATM   33  C   UNL     1      19.916  45.567  47.914  1.00  0.00     0.187 C 
BRANCH  33  34
HETATM   34  O   UNL     1      18.727  44.788  48.024  1.00  0.00    -0.394 OA
HETATM   35  C   UNL     1      17.568  45.556  47.732  1.00  0.00     0.201 C 
ENDBRANCH  33  34
ENDBRANCH  32  33
ENDBRANCH   3  32
TORSDOF 8
ENDMDL
MODEL 6
REMARK VINA RESULT:      -6.8      3.417      6.455
REMARK  8 active torsions:
REMARK  status: ('A' for Active; 'I' for Inactive)
REMARK    1  A    between atoms: C_2  and  O_3 
REMARK    2  A    between atoms: O_3  and  C_4 
REMARK       I    between atoms: C_4  and  N_5 
REMARK    3  A    between atoms: C_8  and  N_9 
REMARK       I    between atoms: N_9  and  C_10 
REMARK    4  A    between atoms: C_10  and  C_11 
REMARK    5  A    between atoms: C_12  and  C_13 
REMARK    6  A    between atoms: N_18  and  C_19 
REMARK    7  A    between atoms: C_19  and  C_20 
REMARK    8  A    between atoms: C_20  and  O_21 
ROOT
HETATM    1  C   UNL     1      36.707  51.173  42.448  1.00  0.00     0.139 C 
HETATM    2  C   UNL     1      37.635  51.954  43.405  1.00  0.00     0.145 C 
HETATM    3  N   UNL     1      37.947  53.318  42.955  1.00  0.00    -0.335 N 
HETATM    4  C   UNL     1      38.028  53.646  41.602  1.00  0.00     0.255 C 
HETATM    5  O   UNL     1      38.331  54.764  41.194  1.00  0.00    -0.267 OA
HETATM    6  C   UNL     1      37.689  52.592  40.607  1.00  0.00     0.039 A 
HETATM    7  C   UNL     1      37.032  51.419  40.996  1.00  0.00    -0.027 A 
HETATM    8  C   UNL     1      37.987  52.813  39.256  1.00  0.00     0.017 A 
HETATM    9  C   UNL     1      37.636  51.867  38.292  1.00  0.00     0.001 A 
HETATM   10  C   UNL     1      36.974  50.703  38.674  1.00  0.00     0.001 A 
HETATM   11  C   UNL     1      36.671  50.478  40.018  1.00  0.00     0.009 A 
ENDROOT
BRANCH   1  12
HETATM   12  C   UNL     1      35.268  51.508  42.828  1.00  0.00     0.229 C 
HETATM   13  N   UNL     1      34.334  50.736  42.151  1.00  0.00    -0.356 N 
HETATM   14  H   UNL     1      34.633  50.228  41.328  1.00  0.00     0.162 HD
HETATM   15  O   UNL     1      34.953  52.327  43.685  1.00  0.00    -0.273 OA
BRANCH  13  16
HETATM   16  C   UNL     1      32.905  50.820  42.433  1.00  0.00     0.087 C 
HETATM   17  C   UNL     1      32.183  51.805  41.512  1.00  0.00     0.045 C 
HETATM   18  C   UNL     1      32.051  51.276  40.088  1.00  0.00     0.130 C 
HETATM   19  N   UNL     1      31.506  49.922  40.049  1.00  0.00    -0.328 N 
HETATM   20  C   UNL     1      30.792  49.452  38.952  1.00  0.00     0.362 C 
HETATM   21  C   UNL     1      32.122  48.936  40.925  1.00  0.00     0.130 C 
HETATM   22  O   UNL     1      30.549  48.268  38.754  1.00  0.00    -0.238 OA
HETATM   23  C   UNL     1      32.253  49.438  42.358  1.00  0.00     0.045 C 
BRANCH  20  24
HETATM   24  O   UNL     1      30.384  50.454  38.127  1.00  0.00    -0.304 OA
BRANCH  24  25
HETATM   25  C   UNL     1      29.000  50.822  38.218  1.00  0.00     0.176 C 
HETATM   26  C   UNL     1      28.858  52.321  38.409  1.00  0.00     0.034 C 
ENDBRANCH  24  25
ENDBRANCH  20  24
ENDBRANCH  13  16
ENDBRANCH   1  12
BRANCH   2  27
HETATM   27  C   UNL     1      38.916  51.176  43.662  1.00  0.00     0.006 A 
HETATM   28  S   UNL     1      39.892  51.603  45.017  1.00  0.00    -0.104 SA
HETATM   29  C   UNL     1      41.023  50.369  44.680  1.00  0.00     0.050 A 
HETATM   30  C   UNL     1      40.685  49.652  43.554  1.00  0.00     0.008 A 
HETATM   31  C   UNL     1      39.473  50.117  42.967  1.00  0.00     0.017 A 
ENDBRANCH   2  27
BRANCH   3  32
HETATM   32  C   UNL     1      37.953  54.426  43.924  1.00  0.00     0.153 C 
BRANCH  32  33
HETATM   33  C   UNL     1      37.313  54.169  45.293  1.00  0.00     0.187 C 
BRANCH  33  34
HETATM   34  O   UNL     1      37.669  55.199  46.213  1.00  0.00    -0.394 OA
HETATM   35  C   UNL     1      39.075  55.404  46.253  1.00  0.00     0.201 C 
ENDBRANCH  33  34
ENDBRANCH  32  33
ENDBRANCH   3  32
TORSDOF 8
ENDMDL
MODEL 7
REMARK VINA RESULT:      -6.7      9.961     13.083
REMARK  8 active torsions:
REMARK  status: ('A' for Active; 'I' for Inactive)
REMARK    1  A    between atoms: C_2  and  O_3 
REMARK    2  A    between atoms: O_3  and  C_4 
REMARK       I    between atoms: C_4  and  N_5 
REMARK    3  A    between atoms: C_8  and  N_9 
REMARK       I    between atoms: N_9  and  C_10 
REMARK    4  A    between atoms: C_10  and  C_11 
REMARK    5  A    between atoms: C_12  and  C_13 
REMARK    6  A    between atoms: N_18  and  C_19 
REMARK    7  A    between atoms: C_19  and  C_20 
REMARK    8  A    between atoms: C_20  and  O_21 
ROOT
HETATM    1  C   UNL     1      19.686  49.561  47.001  1.00  0.00     0.139 C 
HETATM    2  C   UNL     1      20.534  48.466  47.687  1.00  0.00     0.145 C 
HETATM    3  N   UNL     1      19.943  47.941  48.926  1.00  0.00    -0.335 N 
HETATM    4  C   UNL     1      19.156  48.735  49.760  1.00  0.00     0.255 C 
HETATM    5  O   UNL     1      18.685  48.339  50.823  1.00  0.00    -0.267 OA
HETATM    6  C   UNL     1      18.840  50.118  49.312  1.00  0.00     0.039 A 
HETATM    7  C   UNL     1      19.063  50.515  47.988  1.00  0.00    -0.027 A 
HETATM    8  C   UNL     1      18.260  51.012  50.223  1.00  0.00     0.017 A 
HETATM    9  C   UNL     1      17.905  52.299  49.820  1.00  0.00     0.001 A 
HETATM   10  C   UNL     1      18.118  52.695  48.502  1.00  0.00     0.001 A 
HETATM   11  C   UNL     1      18.691  51.810  47.588  1.00  0.00     0.009 A 
ENDROOT
BRANCH   1  12
HETATM   12  C   UNL     1      18.680  48.862  46.093  1.00  0.00     0.229 C 
HETATM   13  N   UNL     1      19.283  48.066  45.128  1.00  0.00    -0.356 N 
HETATM   14  H   UNL     1      20.269  48.197  44.940  1.00  0.00     0.162 HD
HETATM   15  O   UNL     1      17.464  48.933  46.225  1.00  0.00    -0.273 OA
BRANCH  13  16
HETATM   16  C   UNL     1      18.509  47.228  44.217  1.00  0.00     0.087 C 
HETATM   17  C   UNL     1      17.977  48.008  43.012  1.00  0.00     0.045 C 
HETATM   18  C   UNL     1      19.080  48.371  42.025  1.00  0.00     0.130 C 
HETATM   19  N   UNL     1      19.904  47.218  41.667  1.00  0.00    -0.328 N 
HETATM   20  C   UNL     1      20.559  47.140  40.443  1.00  0.00     0.362 C 
HETATM   21  C   UNL     1      20.418  46.408  42.761  1.00  0.00     0.130 C 
HETATM   22  O   UNL     1      21.458  46.343  40.202  1.00  0.00    -0.238 OA
HETATM   23  C   UNL     1      19.330  46.022  43.756  1.00  0.00     0.045 C 
BRANCH  20  24
HETATM   24  O   UNL     1      20.088  48.040  39.540  1.00  0.00    -0.304 OA
BRANCH  24  25
HETATM   25  C   UNL     1      21.076  48.831  38.863  1.00  0.00     0.176 C 
HETATM   26  C   UNL     1      21.157  50.219  39.472  1.00  0.00     0.034 C 
ENDBRANCH  24  25
ENDBRANCH  20  24
ENDBRANCH  13  16
ENDBRANCH   1  12
BRANCH   2  27
HETATM   27  C   UNL     1      21.946  48.966  47.946  1.00  0.00     0.006 A 
HETATM   28  S   UNL     1      23.049  47.945  48.788  1.00  0.00    -0.104 SA
HETATM   29  C   UNL     1      24.311  49.089  48.666  1.00  0.00     0.050 A 
HETATM   30  C   UNL     1      23.909  50.233  48.015  1.00  0.00     0.008 A 
HETATM   31  C   UNL     1      22.547  50.163  47.602  1.00  0.00     0.017 A 
ENDBRANCH   2  27
BRANCH   3  32
HETATM   32  C   UNL     1      19.975  46.495  49.198  1.00  0.00     0.153 C 
BRANCH  32  33
HETATM   33  C   UNL     1      19.934  45.549  47.992  1.00  0.00     0.187 C 
BRANCH  33  34
HETATM   34  O   UNL     1      18.734  44.780  48.000  1.00  0.00    -0.394 OA
HETATM   35  C   UNL     1      17.598  45.577  47.695  1.00  0.00     0.201 C 
ENDBRANCH  33  34
ENDBRANCH  32  33
ENDBRANCH   3  32
TORSDOF 8
ENDMDL
MODEL 8
REMARK VINA RESULT:      -6.7     12.033     15.850
REMARK  8 active torsions:
REMARK  status: ('A' for Active; 'I' for Inactive)
REMARK    1  A    between atoms: C_2  and  O_3 
REMARK    2  A    between atoms: O_3  and  C_4 
REMARK       I    between atoms: C_4  and  N_5 
REMARK    3  A    between atoms: C_8  and  N_9 
REMARK       I    between atoms: N_9  and  C_10 
REMARK    4  A    between atoms: C_10  and  C_11 
REMARK    5  A    between atoms: C_12  and  C_13 
REMARK    6  A    between atoms: N_18  and  C_19 
REMARK    7  A    between atoms: C_19  and  C_20 
REMARK    8  A    between atoms: C_20  and  O_21 
ROOT
HETATM    1  C   UNL     1      15.562  50.543  46.983  1.00  0.00     0.139 C 
HETATM    2  C   UNL     1      16.266  49.234  46.560  1.00  0.00     0.145 C 
HETATM    3  N   UNL     1      17.587  49.436  45.949  1.00  0.00    -0.335 N 
HETATM    4  C   UNL     1      17.884  50.575  45.200  1.00  0.00     0.255 C 
HETATM    5  O   UNL     1      18.963  50.752  44.639  1.00  0.00    -0.267 OA
HETATM    6  C   UNL     1      16.853  51.644  45.116  1.00  0.00     0.039 A 
HETATM    7  C   UNL     1      15.753  51.654  45.982  1.00  0.00    -0.027 A 
HETATM    8  C   UNL     1      17.023  52.681  44.188  1.00  0.00     0.017 A 
HETATM    9  C   UNL     1      16.101  53.725  44.119  1.00  0.00     0.001 A 
HETATM   10  C   UNL     1      15.010  53.743  44.985  1.00  0.00     0.001 A 
HETATM   11  C   UNL     1      14.836  52.716  45.914  1.00  0.00     0.009 A 
ENDROOT
BRANCH   1  12
HETATM   12  C   UNL     1      16.038  50.886  48.391  1.00  0.00     0.229 C 
HETATM   13  N   UNL     1      17.283  50.349  48.689  1.00  0.00    -0.356 N 
HETATM   14  H   UNL     1      17.644  49.610  48.098  1.00  0.00     0.162 HD
HETATM   15  O   UNL     1      15.428  51.610  49.170  1.00  0.00    -0.273 OA
BRANCH  13  16
HETATM   16  C   UNL     1      17.974  50.634  49.943  1.00  0.00     0.087 C 
HETATM   17  C   UNL     1      18.772  49.434  50.458  1.00  0.00     0.045 C 
HETATM   18  C   UNL     1      20.020  49.169  49.625  1.00  0.00     0.130 C 
HETATM   19  N   UNL     1      20.823  50.374  49.431  1.00  0.00    -0.328 N 
HETATM   20  C   UNL     1      22.197  50.312  49.225  1.00  0.00     0.362 C 
HETATM   21  C   UNL     1      20.125  51.566  48.974  1.00  0.00     0.130 C 
HETATM   22  O   UNL     1      22.864  51.247  48.798  1.00  0.00    -0.238 OA
HETATM   23  C   UNL     1      18.879  51.859  49.800  1.00  0.00     0.045 C 
BRANCH  20  24
HETATM   24  O   UNL     1      22.720  49.102  49.557  1.00  0.00    -0.304 OA
BRANCH  24  25
HETATM   25  C   UNL     1      23.901  48.708  48.843  1.00  0.00     0.176 C 
HETATM   26  C   UNL     1      24.796  47.853  49.723  1.00  0.00     0.034 C 
ENDBRANCH  24  25
ENDBRANCH  20  24
ENDBRANCH  13  16
ENDBRANCH   1  12
BRANCH   2  27
HETATM   27  C   UNL     1      15.373  48.421  45.635  1.00  0.00     0.006 A 
HETATM   28  S   UNL     1      13.665  48.492  45.855  1.00  0.00    -0.104 SA
HETATM   29  C   UNL     1      13.383  47.441  44.539  1.00  0.00     0.050 A 
HETATM   30  C   UNL     1      14.555  47.026  43.949  1.00  0.00     0.008 A 
HETATM   31  C   UNL     1      15.701  47.590  44.580  1.00  0.00     0.017 A 
ENDBRANCH   2  27
BRANCH   3  32
HETATM   32  C   UNL     1      18.704  48.548  46.307  1.00  0.00     0.153 C 
BRANCH  32  33
HETATM   33  C   UNL     1      19.018  47.390  45.353  1.00  0.00     0.187 C 
BRANCH  33  34
HETATM   34  O   UNL     1      19.172  46.172  46.078  1.00  0.00    -0.394 OA
HETATM   35  C   UNL     1      18.197  46.047  47.105  1.00  0.00     0.201 C 
ENDBRANCH  33  34
ENDBRANCH  32  33
ENDBRANCH   3  32
TORSDOF 8
ENDMDL
MODEL 9
REMARK VINA RESULT:      -6.5     11.238     13.437
REMARK  8 active torsions:
REMARK  status: ('A' for Active; 'I' for Inactive)
REMARK    1  A    between atoms: C_2  and  O_3 
REMARK    2  A    between atoms: O_3  and  C_4 
REMARK       I    between atoms: C_4  and  N_5 
REMARK    3  A    between atoms: C_8  and  N_9 
REMARK       I    between atoms: N_9  and  C_10 
REMARK    4  A    between atoms: C_10  and  C_11 
REMARK    5  A    between atoms: C_12  and  C_13 
REMARK    6  A    between atoms: N_18  and  C_19 
REMARK    7  A    between atoms: C_19  and  C_20 
REMARK    8  A    between atoms: C_20  and  O_21 
ROOT
HETATM    1  C   UNL     1      19.816  49.512  46.997  1.00  0.00     0.139 C 
HETATM    2  C   UNL     1      20.690  48.458  47.713  1.00  0.00     0.145 C 
HETATM    3  N   UNL     1      20.099  47.932  48.951  1.00  0.00    -0.335 N 
HETATM    4  C   UNL     1      19.273  48.711  49.761  1.00  0.00     0.255 C 
HETATM    5  O   UNL     1      18.801  48.316  50.824  1.00  0.00    -0.267 OA
HETATM    6  C   UNL     1      18.916  50.076  49.286  1.00  0.00     0.039 A 
HETATM    7  C   UNL     1      19.146  50.460  47.959  1.00  0.00    -0.027 A 
HETATM    8  C   UNL     1      18.293  50.963  50.174  1.00  0.00     0.017 A 
HETATM    9  C   UNL     1      17.900  52.231  49.745  1.00  0.00     0.001 A 
HETATM   10  C   UNL     1      18.119  52.613  48.424  1.00  0.00     0.001 A 
HETATM   11  C   UNL     1      18.736  51.734  47.533  1.00  0.00     0.009 A 
ENDROOT
BRANCH   1  12
HETATM   12  C   UNL     1      18.849  48.764  46.086  1.00  0.00     0.229 C 
HETATM   13  N   UNL     1      19.378  47.583  45.585  1.00  0.00    -0.356 N 
HETATM   14  H   UNL     1      20.379  47.439  45.642  1.00  0.00     0.162 HD
HETATM   15  O   UNL     1      17.698  49.121  45.858  1.00  0.00    -0.273 OA
BRANCH  13  16
HETATM   16  C   UNL     1      18.591  46.660  44.773  1.00  0.00     0.087 C 
HETATM   17  C   UNL     1      19.415  46.012  43.658  1.00  0.00     0.045 C 
HETATM   18  C   UNL     1      20.402  44.980  44.192  1.00  0.00     0.130 C 
HETATM   19  N   UNL     1      19.767  44.020  45.092  1.00  0.00    -0.328 N 
HETATM   20  C   UNL     1      20.260  42.730  45.252  1.00  0.00     0.362 C 
HETATM   21  C   UNL     1      18.939  44.563  46.159  1.00  0.00     0.130 C 
HETATM   22  O   UNL     1      19.939  41.987  46.172  1.00  0.00    -0.238 OA
HETATM   23  C   UNL     1      17.935  45.589  45.647  1.00  0.00     0.045 C 
BRANCH  20  24
HETATM   24  O   UNL     1      21.133  42.380  44.269  1.00  0.00    -0.304 OA
BRANCH  24  25
HETATM   25  C   UNL     1      20.832  41.169  43.561  1.00  0.00     0.176 C 
HETATM   26  C   UNL     1      19.642  41.371  42.641  1.00  0.00     0.034 C 
ENDBRANCH  24  25
ENDBRANCH  20  24
ENDBRANCH  13  16
ENDBRANCH   1  12
BRANCH   2  27
HETATM   27  C   UNL     1      22.081  49.011  47.984  1.00  0.00     0.006 A 
HETATM   28  S   UNL     1      23.179  48.075  48.927  1.00  0.00    -0.104 SA
HETATM   29  C   UNL     1      24.416  49.241  48.771  1.00  0.00     0.050 A 
HETATM   30  C   UNL     1      24.009  50.330  48.034  1.00  0.00     0.008 A 
HETATM   31  C   UNL     1      22.664  50.198  47.581  1.00  0.00     0.017 A 
ENDBRANCH   2  27
BRANCH   3  32
HETATM   32  C   UNL     1      20.177  46.492  49.247  1.00  0.00     0.153 C 
BRANCH  32  33
HETATM   33  C   UNL     1      21.036  45.627  48.318  1.00  0.00     0.187 C 
BRANCH  33  34
HETATM   34  O   UNL     1      21.172  44.309  48.846  1.00  0.00    -0.394 OA
HETATM   35  C   UNL     1      22.484  44.075  49.338  1.00  0.00     0.201 C 
ENDBRANCH  33  34
ENDBRANCH  32  33
ENDBRANCH   3  32
TORSDOF 8
ENDMDL
MODEL 10
REMARK VINA RESULT:      -6.5     25.150     28.066
REMARK  8 active torsions:
REMARK  status: ('A' for Active; 'I' for Inactive)
REMARK    1  A    between atoms: C_2  and  O_3 
REMARK    2  A    between atoms: O_3  and  C_4 
REMARK       I    between atoms: C_4  and  N_5 
REMARK    3  A    between atoms: C_8  and  N_9 
REMARK       I    between atoms: N_9  and  C_10 
REMARK    4  A    between atoms: C_10  and  C_11 
REMARK    5  A    between atoms: C_12  and  C_13 
REMARK    6  A    between atoms: N_18  and  C_19 
REMARK    7  A    between atoms: C_19  and  C_20 
REMARK    8  A    between atoms: C_20  and  O_21 
ROOT
HETATM    1  C   UNL     1      38.637  48.163  65.911  1.00  0.00     0.139 C 
HETATM    2  C   UNL     1      39.124  47.136  66.958  1.00  0.00     0.145 C 
HETATM    3  N   UNL     1      38.313  47.099  68.182  1.00  0.00    -0.335 N 
HETATM    4  C   UNL     1      37.671  48.235  68.675  1.00  0.00     0.255 C 
HETATM    5  O   UNL     1      37.024  48.247  69.719  1.00  0.00    -0.267 OA
HETATM    6  C   UNL     1      37.746  49.483  67.868  1.00  0.00     0.039 A 
HETATM    7  C   UNL     1      38.179  49.456  66.537  1.00  0.00    -0.027 A 
HETATM    8  C   UNL     1      37.322  50.690  68.442  1.00  0.00     0.017 A 
HETATM    9  C   UNL     1      37.331  51.868  67.696  1.00  0.00     0.001 A 
HETATM   10  C   UNL     1      37.753  51.844  66.369  1.00  0.00     0.001 A 
HETATM   11  C   UNL     1      38.173  50.645  65.789  1.00  0.00     0.009 A 
ENDROOT
BRANCH   1  12
HETATM   12  C   UNL     1      37.577  47.478  65.054  1.00  0.00     0.229 C 
HETATM   13  N   UNL     1      38.042  46.325  64.436  1.00  0.00    -0.356 N 
HETATM   14  H   UNL     1      39.042  46.172  64.387  1.00  0.00     0.162 HD
HETATM   15  O   UNL     1      36.415  47.855  64.960  1.00  0.00    -0.273 OA
BRANCH  13  16
HETATM   16  C   UNL     1      37.169  45.458  63.650  1.00  0.00     0.087 C 
HETATM   17  C   UNL     1      37.930  44.687  62.569  1.00  0.00     0.045 C 
HETATM   18  C   UNL     1      38.800  43.579  63.152  1.00  0.00     0.130 C 
HETATM   19  N   UNL     1      38.063  42.726  64.080  1.00  0.00    -0.328 N 
HETATM   20  C   UNL     1      38.419  41.399  64.293  1.00  0.00     0.362 C 
HETATM   21  C   UNL     1      37.288  43.391  65.117  1.00  0.00     0.130 C 
HETATM   22  O   UNL     1      38.015  40.729  65.236  1.00  0.00    -0.238 OA
HETATM   23  C   UNL     1      36.399  44.495  64.556  1.00  0.00     0.045 C 
BRANCH  20  24
HETATM   24  O   UNL     1      39.258  40.923  63.334  1.00  0.00    -0.304 OA
BRANCH  24  25
HETATM   25  C   UNL     1      40.403  40.196  63.803  1.00  0.00     0.176 C 
HETATM   26  C   UNL     1      40.241  38.712  63.530  1.00  0.00     0.034 C 
ENDBRANCH  24  25
ENDBRANCH  20  24
ENDBRANCH  13  16
ENDBRANCH   1  12
BRANCH   2  27
HETATM   27  C   UNL     1      40.587  47.374  67.300  1.00  0.00     0.006 A 
HETATM   28  S   UNL     1      41.044  47.502  68.957  1.00  0.00    -0.104 SA
HETATM   29  C   UNL     1      42.691  47.710  68.559  1.00  0.00     0.050 A 
HETATM   30  C   UNL     1      42.899  47.702  67.199  1.00  0.00     0.008 A 
HETATM   31  C   UNL     1      41.687  47.509  66.473  1.00  0.00     0.017 A 
ENDBRANCH   2  27
BRANCH   3  32
HETATM   32  C   UNL     1      37.965  45.805  68.792  1.00  0.00     0.153 C 
BRANCH  32  33
HETATM   33  C   UNL     1      36.730  45.078  68.249  1.00  0.00     0.187 C 
BRANCH  33  34
HETATM   34  O   UNL     1      36.254  44.123  69.195  1.00  0.00    -0.394 OA
HETATM   35  C   UNL     1      36.421  44.581  70.530  1.00  0.00     0.201 C 
ENDBRANCH  33  34
ENDBRANCH  32  33
ENDBRANCH   3  32
TORSDOF 8
ENDMDL
