MODEL 1
REMARK VINA RESULT:      -9.8      0.000      0.000
REMARK  10 active torsions:
REMARK  status: ('A' for Active; 'I' for Inactive)
REMARK    1  A    between atoms: C_4  and  C_5 
REMARK    2  A    between atoms: C_5  and  N_6 
REMARK    3  A    between atoms: C_7  and  S_8 
REMARK    4  A    between atoms: S_8  and  C_9 
REMARK    5  A    between atoms: C_9  and  C_10 
REMARK       I    between atoms: C_10  and  N_11 
REMARK    6  A    between atoms: N_11  and  C_12 
REMARK    7  A    between atoms: C_12  and  C_13 
REMARK       I    between atoms: C_13  and  N_14 
REMARK    8  A    between atoms: N_14  and  C_15 
REMARK    9  A    between atoms: C_26  and  C_27 
REMARK   10  A    between atoms: C_27  and  N_28 
ROOT
HETATM    1  N   UNL     1      23.675  46.381  49.307  1.00  0.00    -0.306 N 
HETATM    2  C   UNL     1      24.125  45.088  49.224  1.00  0.00     0.192 A 
HETATM    3  N   UNL     1      23.296  44.380  48.495  1.00  0.00    -0.123 NA
HETATM    4  N   UNL     1      22.314  45.217  48.042  1.00  0.00    -0.132 NA
HETATM    5  C   UNL     1      22.573  46.435  48.474  1.00  0.00     0.157 A 
ENDROOT
BRANCH   2   6
HETATM    6  S   UNL     1      25.603  44.535  49.919  1.00  0.00    -0.081 SA
BRANCH   6   7
HETATM    7  C   UNL     1      25.019  43.733  51.438  1.00  0.00     0.185 C 
BRANCH   7   8
HETATM    8  C   UNL     1      25.118  44.666  52.632  1.00  0.00     0.227 C 
HETATM    9  N   UNL     1      26.047  45.676  52.495  1.00  0.00    -0.352 N 
HETATM   10  H   UNL     1      26.749  45.626  51.768  1.00  0.00     0.162 HD
HETATM   11  O   UNL     1      24.422  44.575  53.642  1.00  0.00    -0.273 OA
BRANCH   9  12
HETATM   12  C   UNL     1      26.161  46.754  53.469  1.00  0.00     0.225 C 
BRANCH  12  13
HETATM   13  C   UNL     1      27.179  46.463  54.579  1.00  0.00     0.239 C 
HETATM   14  N   UNL     1      28.121  45.522  54.203  1.00  0.00    -0.326 N 
HETATM   15  H   UNL     1      28.067  45.214  53.229  1.00  0.00     0.169 HD
HETATM   16  O   UNL     1      27.095  47.017  55.671  1.00  0.00    -0.271 OA
BRANCH  14  17
HETATM   17  C   UNL     1      29.154  44.970  54.978  1.00  0.00     0.035 A 
HETATM   18  C   UNL     1      29.744  45.619  56.066  1.00  0.00     0.032 A 
HETATM   19  C   UNL     1      30.760  44.994  56.795  1.00  0.00     0.044 A 
HETATM   20  C   UNL     1      31.187  43.725  56.428  1.00  0.00     0.116 A 
HETATM   21  F   UNL     1      32.169  43.131  57.118  1.00  0.00    -0.206 F 
HETATM   22  C   UNL     1      30.611  43.062  55.353  1.00  0.00     0.044 A 
HETATM   23  C   UNL     1      29.591  43.683  54.631  1.00  0.00     0.032 A 
ENDBRANCH  14  17
ENDBRANCH  12  13
ENDBRANCH   9  12
ENDBRANCH   7   8
ENDBRANCH   6   7
ENDBRANCH   2   6
BRANCH   1  24
HETATM   24  C   UNL     1      24.170  47.436  50.179  1.00  0.00     0.171 C 
BRANCH  24  25
HETATM   25  C   UNL     1      25.229  48.284  49.523  1.00  0.00    -0.040 A 
HETATM   26  C   UNL     1      24.873  49.321  48.646  1.00  0.00     0.009 A 
HETATM   27  C   UNL     1      25.852  50.138  48.077  1.00  0.00     0.001 A 
HETATM   28  C   UNL     1      27.195  49.938  48.389  1.00  0.00     0.000 A 
HETATM   29  C   UNL     1      27.561  48.924  49.268  1.00  0.00     0.001 A 
HETATM   30  C   UNL     1      26.585  48.101  49.831  1.00  0.00     0.009 A 
ENDBRANCH  24  25
ENDBRANCH   1  24
BRANCH   5  31
HETATM   31  C   UNL     1      21.832  47.671  48.094  1.00  0.00     0.315 C 
BRANCH  31  32
HETATM   32  N   UNL     1      21.023  48.305  49.223  1.00  0.00    -0.064 N 
HETATM   33  H   UNL     1      21.447  47.958  50.094  1.00  0.00     0.280 HD
HETATM   34  C   UNL     1      21.132  49.811  49.184  1.00  0.00     0.235 C 
HETATM   35  C   UNL     1      20.436  50.422  50.391  1.00  0.00     0.028 C 
HETATM   36  C   UNL     1      18.987  49.966  50.500  1.00  0.00     0.003 C 
HETATM   37  C   UNL     1      18.891  48.446  50.480  1.00  0.00     0.028 C 
HETATM   38  C   UNL     1      19.575  47.855  49.252  1.00  0.00     0.235 C 
ENDBRANCH  31  32
ENDBRANCH   5  31
TORSDOF 10
ENDMDL
MODEL 2
REMARK VINA RESULT:      -9.4      4.916     10.476
REMARK  10 active torsions:
REMARK  status: ('A' for Active; 'I' for Inactive)
REMARK    1  A    between atoms: C_4  and  C_5 
REMARK    2  A    between atoms: C_5  and  N_6 
REMARK    3  A    between atoms: C_7  and  S_8 
REMARK    4  A    between atoms: S_8  and  C_9 
REMARK    5  A    between atoms: C_9  and  C_10 
REMARK       I    between atoms: C_10  and  N_11 
REMARK    6  A    between atoms: N_11  and  C_12 
REMARK    7  A    between atoms: C_12  and  C_13 
REMARK       I    between atoms: C_13  and  N_14 
REMARK    8  A    between atoms: N_14  and  C_15 
REMARK    9  A    between atoms: C_26  and  C_27 
REMARK   10  A    between atoms: C_27  and  N_28 
ROOT
HETATM    1  N   UNL     1      27.097  43.338  52.154  1.00  0.00    -0.306 N 
HETATM    2  C   UNL     1      26.889  44.495  51.448  1.00  0.00     0.192 A 
HETATM    3  N   UNL     1      27.253  44.321  50.200  1.00  0.00    -0.123 NA
HETATM    4  N   UNL     1      27.657  43.021  50.057  1.00  0.00    -0.132 NA
HETATM    5  C   UNL     1      27.503  42.408  51.214  1.00  0.00     0.157 A 
ENDROOT
BRANCH   2   6
HETATM    6  S   UNL     1      26.179  45.917  52.117  1.00  0.00    -0.081 SA
BRANCH   6   7
HETATM    7  C   UNL     1      24.659  46.065  51.136  1.00  0.00     0.185 C 
BRANCH   7   8
HETATM    8  C   UNL     1      24.768  47.179  50.110  1.00  0.00     0.227 C 
HETATM    9  N   UNL     1      23.581  47.824  49.833  1.00  0.00    -0.352 N 
HETATM   10  H   UNL     1      22.701  47.410  50.114  1.00  0.00     0.162 HD
HETATM   11  O   UNL     1      25.819  47.524  49.572  1.00  0.00    -0.273 OA
BRANCH   9  12
HETATM   12  C   UNL     1      23.529  49.018  49.000  1.00  0.00     0.225 C 
BRANCH  12  13
HETATM   13  C   UNL     1      22.488  50.041  49.471  1.00  0.00     0.239 C 
HETATM   14  N   UNL     1      21.233  49.808  48.936  1.00  0.00    -0.326 N 
HETATM   15  H   UNL     1      21.147  48.956  48.377  1.00  0.00     0.169 HD
HETATM   16  O   UNL     1      22.803  50.961  50.220  1.00  0.00    -0.271 OA
BRANCH  14  17
HETATM   17  C   UNL     1      20.066  50.573  49.095  1.00  0.00     0.035 A 
HETATM   18  C   UNL     1      19.000  50.206  49.920  1.00  0.00     0.032 A 
HETATM   19  C   UNL     1      17.877  51.032  50.032  1.00  0.00     0.044 A 
HETATM   20  C   UNL     1      17.823  52.218  49.313  1.00  0.00     0.116 A 
HETATM   21  F   UNL     1      16.742  53.003  49.410  1.00  0.00    -0.206 F 
HETATM   22  C   UNL     1      18.873  52.602  48.491  1.00  0.00     0.044 A 
HETATM   23  C   UNL     1      19.998  51.782  48.385  1.00  0.00     0.032 A 
ENDBRANCH  14  17
ENDBRANCH  12  13
ENDBRANCH   9  12
ENDBRANCH   7   8
ENDBRANCH   6   7
ENDBRANCH   2   6
BRANCH   1  24
HETATM   24  C   UNL     1      27.030  43.157  53.596  1.00  0.00     0.171 C 
BRANCH  24  25
HETATM   25  C   UNL     1      28.290  43.594  54.297  1.00  0.00    -0.040 A 
HETATM   26  C   UNL     1      28.346  44.826  54.968  1.00  0.00     0.009 A 
HETATM   27  C   UNL     1      29.498  45.208  55.657  1.00  0.00     0.001 A 
HETATM   28  C   UNL     1      30.601  44.357  55.699  1.00  0.00     0.000 A 
HETATM   29  C   UNL     1      30.555  43.127  55.052  1.00  0.00     0.001 A 
HETATM   30  C   UNL     1      29.408  42.747  54.354  1.00  0.00     0.009 A 
ENDBRANCH  24  25
ENDBRANCH   1  24
BRANCH   5  31
HETATM   31  C   UNL     1      27.692  40.951  51.461  1.00  0.00     0.315 C 
BRANCH  31  32
HETATM   32  N   UNL     1      28.049  40.133  50.222  1.00  0.00    -0.064 N 
HETATM   33  H   UNL     1      28.480  40.800  49.566  1.00  0.00     0.280 HD
HETATM   34  C   UNL     1      29.050  39.053  50.559  1.00  0.00     0.235 C 
HETATM   35  C   UNL     1      29.499  38.336  49.294  1.00  0.00     0.028 C 
HETATM   36  C   UNL     1      28.318  37.782  48.507  1.00  0.00     0.003 C 
HETATM   37  C   UNL     1      27.292  38.872  48.226  1.00  0.00     0.028 C 
HETATM   38  C   UNL     1      26.839  39.563  49.508  1.00  0.00     0.235 C 
ENDBRANCH  31  32
ENDBRANCH   5  31
TORSDOF 10
ENDMDL
MODEL 3
REMARK VINA RESULT:      -9.4      4.624      9.858
REMARK  10 active torsions:
REMARK  status: ('A' for Active; 'I' for Inactive)
REMARK    1  A    between atoms: C_4  and  C_5 
REMARK    2  A    between atoms: C_5  and  N_6 
REMARK    3  A    between atoms: C_7  and  S_8 
REMARK    4  A    between atoms: S_8  and  C_9 
REMARK    5  A    between atoms: C_9  and  C_10 
REMARK       I    between atoms: C_10  and  N_11 
REMARK    6  A    between atoms: N_11  and  C_12 
REMARK    7  A    between atoms: C_12  and  C_13 
REMARK       I    between atoms: C_13  and  N_14 
REMARK    8  A    between atoms: N_14  and  C_15 
REMARK    9  A    between atoms: C_26  and  C_27 
REMARK   10  A    between atoms: C_27  and  N_28 
ROOT
HETATM    1  N   UNL     1      26.228  45.068  51.227  1.00  0.00    -0.306 N 
HETATM    2  C   UNL     1      26.531  46.021  50.289  1.00  0.00     0.192 A 
HETATM    3  N   UNL     1      27.227  45.476  49.319  1.00  0.00    -0.123 NA
HETATM    4  N   UNL     1      27.343  44.139  49.584  1.00  0.00    -0.132 NA
HETATM    5  C   UNL     1      26.688  43.877  50.697  1.00  0.00     0.157 A 
ENDROOT
BRANCH   2   6
HETATM    6  S   UNL     1      25.993  47.657  50.367  1.00  0.00    -0.081 SA
BRANCH   6   7
HETATM    7  C   UNL     1      27.056  48.454  49.131  1.00  0.00     0.185 C 
BRANCH   7   8
HETATM    8  C   UNL     1      26.349  49.620  48.461  1.00  0.00     0.227 C 
HETATM    9  N   UNL     1      25.030  49.384  48.138  1.00  0.00    -0.352 N 
HETATM   10  H   UNL     1      24.671  48.438  48.132  1.00  0.00     0.162 HD
HETATM   11  O   UNL     1      26.873  50.710  48.239  1.00  0.00    -0.273 OA
BRANCH   9  12
HETATM   12  C   UNL     1      24.158  50.440  47.642  1.00  0.00     0.225 C 
BRANCH  12  13
HETATM   13  C   UNL     1      23.054  50.830  48.633  1.00  0.00     0.239 C 
HETATM   14  N   UNL     1      21.785  50.608  48.129  1.00  0.00    -0.326 N 
HETATM   15  H   UNL     1      21.750  50.146  47.218  1.00  0.00     0.169 HD
HETATM   16  O   UNL     1      23.333  51.308  49.728  1.00  0.00    -0.271 OA
BRANCH  14  17
HETATM   17  C   UNL     1      20.549  50.906  48.728  1.00  0.00     0.035 A 
HETATM   18  C   UNL     1      19.947  50.112  49.708  1.00  0.00     0.032 A 
HETATM   19  C   UNL     1      18.720  50.487  50.263  1.00  0.00     0.044 A 
HETATM   20  C   UNL     1      18.097  51.650  49.831  1.00  0.00     0.116 A 
HETATM   21  F   UNL     1      16.915  52.001  50.353  1.00  0.00    -0.206 F 
HETATM   22  C   UNL     1      18.681  52.454  48.861  1.00  0.00     0.044 A 
HETATM   23  C   UNL     1      19.910  52.084  48.313  1.00  0.00     0.032 A 
ENDBRANCH  14  17
ENDBRANCH  12  13
ENDBRANCH   9  12
ENDBRANCH   7   8
ENDBRANCH   6   7
ENDBRANCH   2   6
BRANCH   1  24
HETATM   24  C   UNL     1      25.660  45.280  52.551  1.00  0.00     0.171 C 
BRANCH  24  25
HETATM   25  C   UNL     1      26.685  45.731  53.559  1.00  0.00    -0.040 A 
HETATM   26  C   UNL     1      27.657  44.840  54.038  1.00  0.00     0.009 A 
HETATM   27  C   UNL     1      28.636  45.272  54.935  1.00  0.00     0.001 A 
HETATM   28  C   UNL     1      28.664  46.602  55.351  1.00  0.00     0.000 A 
HETATM   29  C   UNL     1      27.716  47.500  54.871  1.00  0.00     0.001 A 
HETATM   30  C   UNL     1      26.732  47.069  53.982  1.00  0.00     0.009 A 
ENDBRANCH  24  25
ENDBRANCH   1  24
BRANCH   5  31
HETATM   31  C   UNL     1      26.445  42.522  51.268  1.00  0.00     0.315 C 
BRANCH  31  32
HETATM   32  N   UNL     1      26.922  41.364  50.394  1.00  0.00    -0.064 N 
HETATM   33  H   UNL     1      27.272  41.798  49.529  1.00  0.00     0.280 HD
HETATM   34  C   UNL     1      28.048  40.613  51.062  1.00  0.00     0.235 C 
HETATM   35  C   UNL     1      28.604  39.551  50.125  1.00  0.00     0.028 C 
HETATM   36  C   UNL     1      27.516  38.608  49.629  1.00  0.00     0.003 C 
HETATM   37  C   UNL     1      26.361  39.385  49.009  1.00  0.00     0.028 C 
HETATM   38  C   UNL     1      25.805  40.429  49.973  1.00  0.00     0.235 C 
ENDBRANCH  31  32
ENDBRANCH   5  31
TORSDOF 10
ENDMDL
MODEL 4
REMARK VINA RESULT:      -9.1      1.539      2.076
REMARK  10 active torsions:
REMARK  status: ('A' for Active; 'I' for Inactive)
REMARK    1  A    between atoms: C_4  and  C_5 
REMARK    2  A    between atoms: C_5  and  N_6 
REMARK    3  A    between atoms: C_7  and  S_8 
REMARK    4  A    between atoms: S_8  and  C_9 
REMARK    5  A    between atoms: C_9  and  C_10 
REMARK       I    between atoms: C_10  and  N_11 
REMARK    6  A    between atoms: N_11  and  C_12 
REMARK    7  A    between atoms: C_12  and  C_13 
REMARK       I    between atoms: C_13  and  N_14 
REMARK    8  A    between atoms: N_14  and  C_15 
REMARK    9  A    between atoms: C_26  and  C_27 
REMARK   10  A    between atoms: C_27  and  N_28 
ROOT
HETATM    1  N   UNL     1      22.977  47.434  48.569  1.00  0.00    -0.306 N 
HETATM    2  C   UNL     1      22.898  46.158  48.076  1.00  0.00     0.192 A 
HETATM    3  N   UNL     1      21.955  46.095  47.166  1.00  0.00    -0.123 NA
HETATM    4  N   UNL     1      21.435  47.351  47.012  1.00  0.00    -0.132 NA
HETATM    5  C   UNL     1      22.091  48.173  47.807  1.00  0.00     0.157 A 
ENDROOT
BRANCH   2   6
HETATM    6  S   UNL     1      23.953  44.876  48.545  1.00  0.00    -0.081 SA
BRANCH   6   7
HETATM    7  C   UNL     1      23.769  44.890  50.350  1.00  0.00     0.185 C 
BRANCH   7   8
HETATM    8  C   UNL     1      24.567  43.772  50.997  1.00  0.00     0.227 C 
HETATM    9  N   UNL     1      25.901  44.060  51.197  1.00  0.00    -0.352 N 
HETATM   10  H   UNL     1      26.327  44.846  50.724  1.00  0.00     0.162 HD
HETATM   11  O   UNL     1      24.089  42.696  51.353  1.00  0.00    -0.273 OA
BRANCH   9  12
HETATM   12  C   UNL     1      26.776  43.171  51.950  1.00  0.00     0.225 C 
BRANCH  12  13
HETATM   13  C   UNL     1      27.162  43.725  53.327  1.00  0.00     0.239 C 
HETATM   14  N   UNL     1      28.531  43.749  53.526  1.00  0.00    -0.326 N 
HETATM   15  H   UNL     1      29.095  43.479  52.717  1.00  0.00     0.169 HD
HETATM   16  O   UNL     1      26.301  44.067  54.132  1.00  0.00    -0.271 OA
BRANCH  14  17
HETATM   17  C   UNL     1      29.234  44.127  54.682  1.00  0.00     0.035 A 
HETATM   18  C   UNL     1      28.921  45.252  55.450  1.00  0.00     0.032 A 
HETATM   19  C   UNL     1      29.664  45.553  56.596  1.00  0.00     0.044 A 
HETATM   20  C   UNL     1      30.721  44.730  56.964  1.00  0.00     0.116 A 
HETATM   21  F   UNL     1      31.441  45.026  58.054  1.00  0.00    -0.206 F 
HETATM   22  C   UNL     1      31.044  43.607  56.217  1.00  0.00     0.044 A 
HETATM   23  C   UNL     1      30.297  43.302  55.078  1.00  0.00     0.032 A 
ENDBRANCH  14  17
ENDBRANCH  12  13
ENDBRANCH   9  12
ENDBRANCH   7   8
ENDBRANCH   6   7
ENDBRANCH   2   6
BRANCH   1  24
HETATM   24  C   UNL     1      23.732  47.890  49.727  1.00  0.00     0.171 C 
BRANCH  24  25
HETATM   25  C   UNL     1      25.110  48.382  49.366  1.00  0.00    -0.040 A 
HETATM   26  C   UNL     1      25.278  49.580  48.653  1.00  0.00     0.009 A 
HETATM   27  C   UNL     1      26.556  50.059  48.362  1.00  0.00     0.001 A 
HETATM   28  C   UNL     1      27.680  49.358  48.793  1.00  0.00     0.000 A 
HETATM   29  C   UNL     1      27.528  48.178  49.515  1.00  0.00     0.001 A 
HETATM   30  C   UNL     1      26.252  47.692  49.799  1.00  0.00     0.009 A 
ENDBRANCH  24  25
ENDBRANCH   1  24
BRANCH   5  31
HETATM   31  C   UNL     1      21.937  49.655  47.847  1.00  0.00     0.315 C 
BRANCH  31  32
HETATM   32  N   UNL     1      20.563  50.144  48.298  1.00  0.00    -0.064 N 
HETATM   33  H   UNL     1      19.932  49.963  47.504  1.00  0.00     0.280 HD
HETATM   34  C   UNL     1      20.081  49.367  49.499  1.00  0.00     0.235 C 
HETATM   35  C   UNL     1      18.657  49.770  49.853  1.00  0.00     0.028 C 
HETATM   36  C   UNL     1      18.530  51.272  50.068  1.00  0.00     0.003 C 
HETATM   37  C   UNL     1      19.073  52.042  48.870  1.00  0.00     0.028 C 
HETATM   38  C   UNL     1      20.508  51.639  48.546  1.00  0.00     0.235 C 
ENDBRANCH  31  32
ENDBRANCH   5  31
TORSDOF 10
ENDMDL
MODEL 5
REMARK VINA RESULT:      -8.9      3.854      6.810
REMARK  10 active torsions:
REMARK  status: ('A' for Active; 'I' for Inactive)
REMARK    1  A    between atoms: C_4  and  C_5 
REMARK    2  A    between atoms: C_5  and  N_6 
REMARK    3  A    between atoms: C_7  and  S_8 
REMARK    4  A    between atoms: S_8  and  C_9 
REMARK    5  A    between atoms: C_9  and  C_10 
REMARK       I    between atoms: C_10  and  N_11 
REMARK    6  A    between atoms: N_11  and  C_12 
REMARK    7  A    between atoms: C_12  and  C_13 
REMARK       I    between atoms: C_13  and  N_14 
REMARK    8  A    between atoms: N_14  and  C_15 
REMARK    9  A    between atoms: C_26  and  C_27 
REMARK   10  A    between atoms: C_27  and  N_28 
ROOT
HETATM    1  N   UNL     1      20.722  48.253  48.700  1.00  0.00    -0.306 N 
HETATM    2  C   UNL     1      20.202  47.731  47.544  1.00  0.00     0.192 A 
HETATM    3  N   UNL     1      21.168  47.522  46.682  1.00  0.00    -0.123 NA
HETATM    4  N   UNL     1      22.349  47.856  47.285  1.00  0.00    -0.132 NA
HETATM    5  C   UNL     1      22.093  48.236  48.521  1.00  0.00     0.157 A 
ENDROOT
BRANCH   2   6
HETATM    6  S   UNL     1      18.535  47.344  47.325  1.00  0.00    -0.081 SA
BRANCH   6   7
HETATM    7  C   UNL     1      18.405  45.764  48.209  1.00  0.00     0.185 C 
BRANCH   7   8
HETATM    8  C   UNL     1      19.305  44.708  47.592  1.00  0.00     0.227 C 
HETATM    9  N   UNL     1      20.648  44.873  47.854  1.00  0.00    -0.352 N 
HETATM   10  H   UNL     1      20.991  45.755  48.213  1.00  0.00     0.162 HD
HETATM   11  O   UNL     1      18.898  43.753  46.932  1.00  0.00    -0.273 OA
BRANCH   9  12
HETATM   12  C   UNL     1      21.634  43.868  47.481  1.00  0.00     0.225 C 
BRANCH  12  13
HETATM   13  C   UNL     1      22.608  43.524  48.615  1.00  0.00     0.239 C 
HETATM   14  N   UNL     1      23.522  44.535  48.856  1.00  0.00    -0.326 N 
HETATM   15  H   UNL     1      23.378  45.392  48.317  1.00  0.00     0.169 HD
HETATM   16  O   UNL     1      22.550  42.440  49.188  1.00  0.00    -0.271 OA
BRANCH  14  17
HETATM   17  C   UNL     1      24.591  44.539  49.768  1.00  0.00     0.035 A 
HETATM   18  C   UNL     1      25.925  44.336  49.405  1.00  0.00     0.032 A 
HETATM   19  C   UNL     1      26.932  44.369  50.374  1.00  0.00     0.044 A 
HETATM   20  C   UNL     1      26.600  44.598  51.702  1.00  0.00     0.116 A 
HETATM   21  F   UNL     1      27.564  44.617  52.632  1.00  0.00    -0.206 F 
HETATM   22  C   UNL     1      25.281  44.806  52.082  1.00  0.00     0.044 A 
HETATM   23  C   UNL     1      24.277  44.782  51.114  1.00  0.00     0.032 A 
ENDBRANCH  14  17
ENDBRANCH  12  13
ENDBRANCH   9  12
ENDBRANCH   7   8
ENDBRANCH   6   7
ENDBRANCH   2   6
BRANCH   1  24
HETATM   24  C   UNL     1      19.989  48.823  49.821  1.00  0.00     0.171 C 
BRANCH  24  25
HETATM   25  C   UNL     1      19.422  50.185  49.515  1.00  0.00    -0.040 A 
HETATM   26  C   UNL     1      20.133  51.092  48.714  1.00  0.00     0.009 A 
HETATM   27  C   UNL     1      19.586  52.335  48.390  1.00  0.00     0.001 A 
HETATM   28  C   UNL     1      18.316  52.679  48.849  1.00  0.00     0.000 A 
HETATM   29  C   UNL     1      17.593  51.783  49.631  1.00  0.00     0.001 A 
HETATM   30  C   UNL     1      18.142  50.545  49.963  1.00  0.00     0.009 A 
ENDBRANCH  24  25
ENDBRANCH   1  24
BRANCH   5  31
HETATM   31  C   UNL     1      23.109  48.550  49.566  1.00  0.00     0.315 C 
BRANCH  31  32
HETATM   32  N   UNL     1      24.552  48.571  49.070  1.00  0.00    -0.064 N 
HETATM   33  H   UNL     1      24.575  47.933  48.262  1.00  0.00     0.280 HD
HETATM   34  C   UNL     1      24.946  49.957  48.616  1.00  0.00     0.235 C 
HETATM   35  C   UNL     1      26.336  49.935  47.999  1.00  0.00     0.028 C 
HETATM   36  C   UNL     1      27.368  49.340  48.948  1.00  0.00     0.003 C 
HETATM   37  C   UNL     1      26.928  47.967  49.440  1.00  0.00     0.028 C 
HETATM   38  C   UNL     1      25.542  48.014  50.074  1.00  0.00     0.235 C 
ENDBRANCH  31  32
ENDBRANCH   5  31
TORSDOF 10
ENDMDL
MODEL 6
REMARK VINA RESULT:      -8.9      4.186     10.190
REMARK  10 active torsions:
REMARK  status: ('A' for Active; 'I' for Inactive)
REMARK    1  A    between atoms: C_4  and  C_5 
REMARK    2  A    between atoms: C_5  and  N_6 
REMARK    3  A    between atoms: C_7  and  S_8 
REMARK    4  A    between atoms: S_8  and  C_9 
REMARK    5  A    between atoms: C_9  and  C_10 
REMARK       I    between atoms: C_10  and  N_11 
REMARK    6  A    between atoms: N_11  and  C_12 
REMARK    7  A    between atoms: C_12  and  C_13 
REMARK       I    between atoms: C_13  and  N_14 
REMARK    8  A    between atoms: N_14  and  C_15 
REMARK    9  A    between atoms: C_26  and  C_27 
REMARK   10  A    between atoms: C_27  and  N_28 
ROOT
HETATM    1  N   UNL     1      26.679  44.056  51.944  1.00  0.00    -0.306 N 
HETATM    2  C   UNL     1      25.394  44.466  52.188  1.00  0.00     0.192 A 
HETATM    3  N   UNL     1      25.153  44.415  53.476  1.00  0.00    -0.123 NA
HETATM    4  N   UNL     1      26.302  44.020  54.104  1.00  0.00    -0.132 NA
HETATM    5  C   UNL     1      27.242  43.865  53.193  1.00  0.00     0.157 A 
ENDROOT
BRANCH   2   6
HETATM    6  S   UNL     1      24.315  45.033  50.968  1.00  0.00    -0.081 SA
BRANCH   6   7
HETATM    7  C   UNL     1      25.140  46.556  50.426  1.00  0.00     0.185 C 
BRANCH   7   8
HETATM    8  C   UNL     1      24.204  47.434  49.614  1.00  0.00     0.227 C 
HETATM    9  N   UNL     1      24.728  48.660  49.262  1.00  0.00    -0.352 N 
HETATM   10  H   UNL     1      25.557  49.009  49.724  1.00  0.00     0.162 HD
HETATM   11  O   UNL     1      23.076  47.098  49.257  1.00  0.00    -0.273 OA
BRANCH   9  12
HETATM   12  C   UNL     1      24.034  49.560  48.350  1.00  0.00     0.225 C 
BRANCH  12  13
HETATM   13  C   UNL     1      22.941  50.391  49.033  1.00  0.00     0.239 C 
HETATM   14  N   UNL     1      21.670  50.058  48.599  1.00  0.00    -0.326 N 
HETATM   15  H   UNL     1      21.622  49.262  47.957  1.00  0.00     0.169 HD
HETATM   16  O   UNL     1      23.229  51.262  49.848  1.00  0.00    -0.271 OA
BRANCH  14  17
HETATM   17  C   UNL     1      20.447  50.650  48.955  1.00  0.00     0.035 A 
HETATM   18  C   UNL     1      19.996  51.872  48.447  1.00  0.00     0.032 A 
HETATM   19  C   UNL     1      18.759  52.387  48.845  1.00  0.00     0.044 A 
HETATM   20  C   UNL     1      17.981  51.682  49.754  1.00  0.00     0.116 A 
HETATM   21  F   UNL     1      16.802  52.182  50.144  1.00  0.00    -0.206 F 
HETATM   22  C   UNL     1      18.410  50.465  50.266  1.00  0.00     0.044 A 
HETATM   23  C   UNL     1      19.641  49.947  49.863  1.00  0.00     0.032 A 
ENDBRANCH  14  17
ENDBRANCH  12  13
ENDBRANCH   9  12
ENDBRANCH   7   8
ENDBRANCH   6   7
ENDBRANCH   2   6
BRANCH   1  24
HETATM   24  C   UNL     1      27.285  43.761  50.654  1.00  0.00     0.171 C 
BRANCH  24  25
HETATM   25  C   UNL     1      26.866  42.421  50.108  1.00  0.00    -0.040 A 
HETATM   26  C   UNL     1      26.191  42.327  48.880  1.00  0.00     0.009 A 
HETATM   27  C   UNL     1      25.847  41.082  48.352  1.00  0.00     0.001 A 
HETATM   28  C   UNL     1      26.186  39.916  49.035  1.00  0.00     0.000 A 
HETATM   29  C   UNL     1      26.869  39.993  50.244  1.00  0.00     0.001 A 
HETATM   30  C   UNL     1      27.206  41.236  50.779  1.00  0.00     0.009 A 
ENDBRANCH  24  25
ENDBRANCH   1  24
BRANCH   5  31
HETATM   31  C   UNL     1      28.680  43.578  53.463  1.00  0.00     0.315 C 
BRANCH  31  32
HETATM   32  N   UNL     1      29.148  43.923  54.874  1.00  0.00    -0.064 N 
HETATM   33  H   UNL     1      28.476  43.466  55.507  1.00  0.00     0.280 HD
HETATM   34  C   UNL     1      30.528  43.368  55.135  1.00  0.00     0.235 C 
HETATM   35  C   UNL     1      30.925  43.600  56.586  1.00  0.00     0.028 C 
HETATM   36  C   UNL     1      30.828  45.070  56.972  1.00  0.00     0.003 C 
HETATM   37  C   UNL     1      29.447  45.628  56.649  1.00  0.00     0.028 C 
HETATM   38  C   UNL     1      29.078  45.405  55.186  1.00  0.00     0.235 C 
ENDBRANCH  31  32
ENDBRANCH   5  31
TORSDOF 10
ENDMDL
MODEL 7
REMARK VINA RESULT:      -8.8      4.563     10.538
REMARK  10 active torsions:
REMARK  status: ('A' for Active; 'I' for Inactive)
REMARK    1  A    between atoms: C_4  and  C_5 
REMARK    2  A    between atoms: C_5  and  N_6 
REMARK    3  A    between atoms: C_7  and  S_8 
REMARK    4  A    between atoms: S_8  and  C_9 
REMARK    5  A    between atoms: C_9  and  C_10 
REMARK       I    between atoms: C_10  and  N_11 
REMARK    6  A    between atoms: N_11  and  C_12 
REMARK    7  A    between atoms: C_12  and  C_13 
REMARK       I    between atoms: C_13  and  N_14 
REMARK    8  A    between atoms: N_14  and  C_15 
REMARK    9  A    between atoms: C_26  and  C_27 
REMARK   10  A    between atoms: C_27  and  N_28 
ROOT
HETATM    1  N   UNL     1      25.435  45.688  52.314  1.00  0.00    -0.306 N 
HETATM    2  C   UNL     1      25.452  46.885  51.646  1.00  0.00     0.192 A 
HETATM    3  N   UNL     1      26.137  47.765  52.338  1.00  0.00    -0.123 NA
HETATM    4  N   UNL     1      26.626  47.137  53.450  1.00  0.00    -0.132 NA
HETATM    5  C   UNL     1      26.261  45.871  53.407  1.00  0.00     0.157 A 
ENDROOT
BRANCH   2   6
HETATM    6  S   UNL     1      24.741  47.134  50.095  1.00  0.00    -0.081 SA
BRANCH   6   7
HETATM    7  C   UNL     1      25.866  48.357  49.366  1.00  0.00     0.185 C 
BRANCH   7   8
HETATM    8  C   UNL     1      25.101  49.437  48.620  1.00  0.00     0.227 C 
HETATM    9  N   UNL     1      23.841  49.696  49.117  1.00  0.00    -0.352 N 
HETATM   10  H   UNL     1      23.403  49.044  49.755  1.00  0.00     0.162 HD
HETATM   11  O   UNL     1      25.552  50.070  47.667  1.00  0.00    -0.273 OA
BRANCH   9  12
HETATM   12  C   UNL     1      23.036  50.808  48.630  1.00  0.00     0.225 C 
BRANCH  12  13
HETATM   13  C   UNL     1      21.529  50.519  48.651  1.00  0.00     0.239 C 
HETATM   14  N   UNL     1      20.766  51.658  48.461  1.00  0.00    -0.326 N 
HETATM   15  H   UNL     1      21.295  52.508  48.252  1.00  0.00     0.169 HD
HETATM   16  O   UNL     1      21.109  49.383  48.848  1.00  0.00    -0.271 OA
BRANCH  14  17
HETATM   17  C   UNL     1      19.367  51.779  48.484  1.00  0.00     0.035 A 
HETATM   18  C   UNL     1      18.560  51.703  47.346  1.00  0.00     0.032 A 
HETATM   19  C   UNL     1      17.171  51.822  47.457  1.00  0.00     0.044 A 
HETATM   20  C   UNL     1      16.597  52.023  48.705  1.00  0.00     0.116 A 
HETATM   21  F   UNL     1      15.268  52.150  48.810  1.00  0.00    -0.206 F 
HETATM   22  C   UNL     1      17.382  52.098  49.847  1.00  0.00     0.044 A 
HETATM   23  C   UNL     1      18.767  51.971  49.738  1.00  0.00     0.032 A 
ENDBRANCH  14  17
ENDBRANCH  12  13
ENDBRANCH   9  12
ENDBRANCH   7   8
ENDBRANCH   6   7
ENDBRANCH   2   6
BRANCH   1  24
HETATM   24  C   UNL     1      24.625  44.517  52.012  1.00  0.00     0.171 C 
BRANCH  24  25
HETATM   25  C   UNL     1      25.246  43.634  50.960  1.00  0.00    -0.040 A 
HETATM   26  C   UNL     1      24.511  43.241  49.830  1.00  0.00     0.009 A 
HETATM   27  C   UNL     1      25.103  42.464  48.834  1.00  0.00     0.001 A 
HETATM   28  C   UNL     1      26.438  42.083  48.946  1.00  0.00     0.000 A 
HETATM   29  C   UNL     1      27.183  42.478  50.053  1.00  0.00     0.001 A 
HETATM   30  C   UNL     1      26.592  43.248  51.055  1.00  0.00     0.009 A 
ENDBRANCH  24  25
ENDBRANCH   1  24
BRANCH   5  31
HETATM   31  C   UNL     1      26.700  44.805  54.352  1.00  0.00     0.315 C 
BRANCH  31  32
HETATM   32  N   UNL     1      28.213  44.627  54.460  1.00  0.00    -0.064 N 
HETATM   33  H   UNL     1      28.608  45.142  53.661  1.00  0.00     0.280 HD
HETATM   34  C   UNL     1      28.736  45.227  55.743  1.00  0.00     0.235 C 
HETATM   35  C   UNL     1      30.255  45.166  55.774  1.00  0.00     0.028 C 
HETATM   36  C   UNL     1      30.769  43.747  55.567  1.00  0.00     0.003 C 
HETATM   37  C   UNL     1      30.187  43.136  54.298  1.00  0.00     0.028 C 
HETATM   38  C   UNL     1      28.663  43.189  54.297  1.00  0.00     0.235 C 
ENDBRANCH  31  32
ENDBRANCH   5  31
TORSDOF 10
ENDMDL
MODEL 8
REMARK VINA RESULT:      -8.6      2.635      4.215
REMARK  10 active torsions:
REMARK  status: ('A' for Active; 'I' for Inactive)
REMARK    1  A    between atoms: C_4  and  C_5 
REMARK    2  A    between atoms: C_5  and  N_6 
REMARK    3  A    between atoms: C_7  and  S_8 
REMARK    4  A    between atoms: S_8  and  C_9 
REMARK    5  A    between atoms: C_9  and  C_10 
REMARK       I    between atoms: C_10  and  N_11 
REMARK    6  A    between atoms: N_11  and  C_12 
REMARK    7  A    between atoms: C_12  and  C_13 
REMARK       I    between atoms: C_13  and  N_14 
REMARK    8  A    between atoms: N_14  and  C_15 
REMARK    9  A    between atoms: C_26  and  C_27 
REMARK   10  A    between atoms: C_27  and  N_28 
ROOT
HETATM    1  N   UNL     1      20.884  47.792  47.583  1.00  0.00    -0.306 N 
HETATM    2  C   UNL     1      21.453  46.742  48.256  1.00  0.00     0.192 A 
HETATM    3  N   UNL     1      20.653  45.703  48.207  1.00  0.00    -0.123 NA
HETATM    4  N   UNL     1      19.566  46.045  47.449  1.00  0.00    -0.132 NA
HETATM    5  C   UNL     1      19.731  47.279  47.018  1.00  0.00     0.157 A 
ENDROOT
BRANCH   2   6
HETATM    6  S   UNL     1      23.020  46.792  48.975  1.00  0.00    -0.081 SA
BRANCH   6   7
HETATM    7  C   UNL     1      23.507  45.045  48.918  1.00  0.00     0.185 C 
BRANCH   7   8
HETATM    8  C   UNL     1      23.816  44.510  50.306  1.00  0.00     0.227 C 
HETATM    9  N   UNL     1      24.808  45.193  50.976  1.00  0.00    -0.352 N 
HETATM   10  H   UNL     1      25.420  45.822  50.474  1.00  0.00     0.162 HD
HETATM   11  O   UNL     1      23.227  43.566  50.830  1.00  0.00    -0.273 OA
BRANCH   9  12
HETATM   12  C   UNL     1      25.119  44.921  52.373  1.00  0.00     0.225 C 
BRANCH  12  13
HETATM   13  C   UNL     1      26.608  44.646  52.620  1.00  0.00     0.239 C 
HETATM   14  N   UNL     1      26.909  44.510  53.963  1.00  0.00    -0.326 N 
HETATM   15  H   UNL     1      26.105  44.526  54.595  1.00  0.00     0.169 HD
HETATM   16  O   UNL     1      27.402  44.592  51.684  1.00  0.00    -0.271 OA
BRANCH  14  17
HETATM   17  C   UNL     1      28.168  44.318  54.556  1.00  0.00     0.035 A 
HETATM   18  C   UNL     1      28.936  43.161  54.398  1.00  0.00     0.032 A 
HETATM   19  C   UNL     1      30.187  43.055  55.013  1.00  0.00     0.044 A 
HETATM   20  C   UNL     1      30.662  44.104  55.789  1.00  0.00     0.116 A 
HETATM   21  F   UNL     1      31.854  43.997  56.389  1.00  0.00    -0.206 F 
HETATM   22  C   UNL     1      29.916  45.263  55.955  1.00  0.00     0.044 A 
HETATM   23  C   UNL     1      28.670  45.372  55.334  1.00  0.00     0.032 A 
ENDBRANCH  14  17
ENDBRANCH  12  13
ENDBRANCH   9  12
ENDBRANCH   7   8
ENDBRANCH   6   7
ENDBRANCH   2   6
BRANCH   1  24
HETATM   24  C   UNL     1      21.328  49.178  47.570  1.00  0.00     0.171 C 
BRANCH  24  25
HETATM   25  C   UNL     1      20.460  50.075  48.414  1.00  0.00    -0.040 A 
HETATM   26  C   UNL     1      20.206  51.400  48.024  1.00  0.00     0.009 A 
HETATM   27  C   UNL     1      19.363  52.214  48.781  1.00  0.00     0.001 A 
HETATM   28  C   UNL     1      18.751  51.711  49.928  1.00  0.00     0.000 A 
HETATM   29  C   UNL     1      18.980  50.396  50.318  1.00  0.00     0.001 A 
HETATM   30  C   UNL     1      19.830  49.582  49.568  1.00  0.00     0.009 A 
ENDBRANCH  24  25
ENDBRANCH   1  24
BRANCH   5  31
HETATM   31  C   UNL     1      18.849  47.990  46.049  1.00  0.00     0.315 C 
BRANCH  31  32
HETATM   32  N   UNL     1      17.967  49.074  46.661  1.00  0.00    -0.064 N 
HETATM   33  H   UNL     1      18.547  49.526  47.382  1.00  0.00     0.280 HD
HETATM   34  C   UNL     1      17.577  50.101  45.625  1.00  0.00     0.235 C 
HETATM   35  C   UNL     1      16.815  51.245  46.276  1.00  0.00     0.028 C 
HETATM   36  C   UNL     1      15.606  50.748  47.057  1.00  0.00     0.003 C 
HETATM   37  C   UNL     1      16.008  49.673  48.058  1.00  0.00     0.028 C 
HETATM   38  C   UNL     1      16.752  48.525  47.382  1.00  0.00     0.235 C 
ENDBRANCH  31  32
ENDBRANCH   5  31
TORSDOF 10
ENDMDL
MODEL 9
REMARK VINA RESULT:      -8.5      2.067      2.938
REMARK  10 active torsions:
REMARK  status: ('A' for Active; 'I' for Inactive)
REMARK    1  A    between atoms: C_4  and  C_5 
REMARK    2  A    between atoms: C_5  and  N_6 
REMARK    3  A    between atoms: C_7  and  S_8 
REMARK    4  A    between atoms: S_8  and  C_9 
REMARK    5  A    between atoms: C_9  and  C_10 
REMARK       I    between atoms: C_10  and  N_11 
REMARK    6  A    between atoms: N_11  and  C_12 
REMARK    7  A    between atoms: C_12  and  C_13 
REMARK       I    between atoms: C_13  and  N_14 
REMARK    8  A    between atoms: N_14  and  C_15 
REMARK    9  A    between atoms: C_26  and  C_27 
REMARK   10  A    between atoms: C_27  and  N_28 
ROOT
HETATM    1  N   UNL     1      20.974  46.168  47.766  1.00  0.00    -0.306 N 
HETATM    2  C   UNL     1      21.691  45.128  48.298  1.00  0.00     0.192 A 
HETATM    3  N   UNL     1      20.936  44.457  49.136  1.00  0.00    -0.123 NA
HETATM    4  N   UNL     1      19.690  45.020  49.123  1.00  0.00    -0.132 NA
HETATM    5  C   UNL     1      19.689  46.009  48.251  1.00  0.00     0.157 A 
ENDROOT
BRANCH   2   6
HETATM    6  S   UNL     1      23.310  44.743  47.849  1.00  0.00    -0.081 SA
BRANCH   6   7
HETATM    7  C   UNL     1      23.985  44.108  49.409  1.00  0.00     0.185 C 
BRANCH   7   8
HETATM    8  C   UNL     1      24.652  45.210  50.214  1.00  0.00     0.227 C 
HETATM    9  N   UNL     1      24.419  45.150  51.571  1.00  0.00    -0.352 N 
HETATM   10  H   UNL     1      23.675  44.569  51.934  1.00  0.00     0.162 HD
HETATM   11  O   UNL     1      25.371  46.082  49.729  1.00  0.00    -0.273 OA
BRANCH   9  12
HETATM   12  C   UNL     1      25.109  46.026  52.509  1.00  0.00     0.225 C 
BRANCH  12  13
HETATM   13  C   UNL     1      25.947  45.264  53.545  1.00  0.00     0.239 C 
HETATM   14  N   UNL     1      27.305  45.488  53.399  1.00  0.00    -0.326 N 
HETATM   15  H   UNL     1      27.560  46.181  52.691  1.00  0.00     0.169 HD
HETATM   16  O   UNL     1      25.413  44.529  54.369  1.00  0.00    -0.271 OA
BRANCH  14  17
HETATM   17  C   UNL     1      28.363  44.911  54.121  1.00  0.00     0.035 A 
HETATM   18  C   UNL     1      28.920  45.477  55.271  1.00  0.00     0.032 A 
HETATM   19  C   UNL     1      29.964  44.831  55.940  1.00  0.00     0.044 A 
HETATM   20  C   UNL     1      30.451  43.626  55.452  1.00  0.00     0.116 A 
HETATM   21  F   UNL     1      31.460  43.014  56.085  1.00  0.00    -0.206 F 
HETATM   22  C   UNL     1      29.908  43.046  54.313  1.00  0.00     0.044 A 
HETATM   23  C   UNL     1      28.860  43.687  53.651  1.00  0.00     0.032 A 
ENDBRANCH  14  17
ENDBRANCH  12  13
ENDBRANCH   9  12
ENDBRANCH   7   8
ENDBRANCH   6   7
ENDBRANCH   2   6
BRANCH   1  24
HETATM   24  C   UNL     1      21.480  47.273  46.966  1.00  0.00     0.171 C 
BRANCH  24  25
HETATM   25  C   UNL     1      21.864  48.468  47.800  1.00  0.00    -0.040 A 
HETATM   26  C   UNL     1      22.870  48.366  48.775  1.00  0.00     0.009 A 
HETATM   27  C   UNL     1      23.258  49.485  49.514  1.00  0.00     0.001 A 
HETATM   28  C   UNL     1      22.658  50.720  49.278  1.00  0.00     0.000 A 
HETATM   29  C   UNL     1      21.672  50.839  48.304  1.00  0.00     0.001 A 
HETATM   30  C   UNL     1      21.275  49.721  47.570  1.00  0.00     0.009 A 
ENDBRANCH  24  25
ENDBRANCH   1  24
BRANCH   5  31
HETATM   31  C   UNL     1      18.497  46.796  47.826  1.00  0.00     0.315 C 
BRANCH  31  32
HETATM   32  N   UNL     1      18.141  47.965  48.741  1.00  0.00    -0.064 N 
HETATM   33  H   UNL     1      17.224  47.728  49.146  1.00  0.00     0.280 HD
HETATM   34  C   UNL     1      19.151  48.106  49.854  1.00  0.00     0.235 C 
HETATM   35  C   UNL     1      18.711  49.183  50.834  1.00  0.00     0.028 C 
HETATM   36  C   UNL     1      18.455  50.513  50.136  1.00  0.00     0.003 C 
HETATM   37  C   UNL     1      17.477  50.342  48.980  1.00  0.00     0.028 C 
HETATM   38  C   UNL     1      17.947  49.273  47.999  1.00  0.00     0.235 C 
ENDBRANCH  31  32
ENDBRANCH   5  31
TORSDOF 10
ENDMDL
MODEL 10
REMARK VINA RESULT:      -8.3      4.416     10.111
REMARK  10 active torsions:
REMARK  status: ('A' for Active; 'I' for Inactive)
REMARK    1  A    between atoms: C_4  and  C_5 
REMARK    2  A    between atoms: C_5  and  N_6 
REMARK    3  A    between atoms: C_7  and  S_8 
REMARK    4  A    between atoms: S_8  and  C_9 
REMARK    5  A    between atoms: C_9  and  C_10 
REMARK       I    between atoms: C_10  and  N_11 
REMARK    6  A    between atoms: N_11  and  C_12 
REMARK    7  A    between atoms: C_12  and  C_13 
REMARK       I    between atoms: C_13  and  N_14 
REMARK    8  A    between atoms: N_14  and  C_15 
REMARK    9  A    between atoms: C_26  and  C_27 
REMARK   10  A    between atoms: C_27  and  N_28 
ROOT
HETATM    1  N   UNL     1      26.500  43.917  51.624  1.00  0.00    -0.306 N 
HETATM    2  C   UNL     1      25.241  44.420  51.832  1.00  0.00     0.192 A 
HETATM    3  N   UNL     1      24.924  44.302  53.099  1.00  0.00    -0.123 NA
HETATM    4  N   UNL     1      25.999  43.766  53.754  1.00  0.00    -0.132 NA
HETATM    5  C   UNL     1      26.973  43.593  52.882  1.00  0.00     0.157 A 
ENDROOT
BRANCH   2   6
HETATM    6  S   UNL     1      24.284  45.161  50.603  1.00  0.00    -0.081 SA
BRANCH   6   7
HETATM    7  C   UNL     1      23.010  43.901  50.319  1.00  0.00     0.185 C 
BRANCH   7   8
HETATM    8  C   UNL     1      22.292  44.127  48.999  1.00  0.00     0.227 C 
HETATM    9  N   UNL     1      21.950  45.439  48.749  1.00  0.00    -0.352 N 
HETATM   10  H   UNL     1      21.965  46.119  49.498  1.00  0.00     0.162 HD
HETATM   11  O   UNL     1      22.047  43.239  48.184  1.00  0.00    -0.273 OA
BRANCH   9  12
HETATM   12  C   UNL     1      21.405  45.861  47.466  1.00  0.00     0.225 C 
BRANCH  12  13
HETATM   13  C   UNL     1      20.489  47.087  47.570  1.00  0.00     0.239 C 
HETATM   14  N   UNL     1      20.961  48.029  48.468  1.00  0.00    -0.326 N 
HETATM   15  H   UNL     1      21.879  47.827  48.871  1.00  0.00     0.169 HD
HETATM   16  O   UNL     1      19.449  47.153  46.922  1.00  0.00    -0.271 OA
BRANCH  14  17
HETATM   17  C   UNL     1      20.354  49.233  48.862  1.00  0.00     0.035 A 
HETATM   18  C   UNL     1      20.699  50.484  48.344  1.00  0.00     0.032 A 
HETATM   19  C   UNL     1      20.037  51.635  48.781  1.00  0.00     0.044 A 
HETATM   20  C   UNL     1      19.038  51.530  49.739  1.00  0.00     0.116 A 
HETATM   21  F   UNL     1      18.413  52.634  50.168  1.00  0.00    -0.206 F 
HETATM   22  C   UNL     1      18.679  50.296  50.263  1.00  0.00     0.044 A 
HETATM   23  C   UNL     1      19.334  49.146  49.820  1.00  0.00     0.032 A 
ENDBRANCH  14  17
ENDBRANCH  12  13
ENDBRANCH   9  12
ENDBRANCH   7   8
ENDBRANCH   6   7
ENDBRANCH   2   6
BRANCH   1  24
HETATM   24  C   UNL     1      27.150  43.659  50.348  1.00  0.00     0.171 C 
BRANCH  24  25
HETATM   25  C   UNL     1      26.901  42.263  49.839  1.00  0.00    -0.040 A 
HETATM   26  C   UNL     1      27.776  41.215  50.167  1.00  0.00     0.009 A 
HETATM   27  C   UNL     1      27.518  39.913  49.735  1.00  0.00     0.001 A 
HETATM   28  C   UNL     1      26.376  39.639  48.985  1.00  0.00     0.000 A 
HETATM   29  C   UNL     1      25.492  40.665  48.666  1.00  0.00     0.001 A 
HETATM   30  C   UNL     1      25.752  41.969  49.089  1.00  0.00     0.009 A 
ENDBRANCH  24  25
ENDBRANCH   1  24
BRANCH   5  31
HETATM   31  C   UNL     1      28.364  43.163  53.203  1.00  0.00     0.315 C 
BRANCH  31  32
HETATM   32  N   UNL     1      28.909  43.694  54.527  1.00  0.00    -0.064 N 
HETATM   33  H   UNL     1      28.320  43.270  55.257  1.00  0.00     0.280 HD
HETATM   34  C   UNL     1      30.340  43.260  54.733  1.00  0.00     0.235 C 
HETATM   35  C   UNL     1      30.826  43.677  56.113  1.00  0.00     0.028 C 
HETATM   36  C   UNL     1      30.653  45.173  56.345  1.00  0.00     0.003 C 
HETATM   37  C   UNL     1      29.216  45.603  56.078  1.00  0.00     0.028 C 
HETATM   38  C   UNL     1      28.757  45.194  54.682  1.00  0.00     0.235 C 
ENDBRANCH  31  32
ENDBRANCH   5  31
TORSDOF 10
ENDMDL
