MODEL 1
REMARK VINA RESULT:      -9.8      0.000      0.000
REMARK  2 active torsions:
REMARK  status: ('A' for Active; 'I' for Inactive)
REMARK    1  A    between atoms: C_2  and  N_3 
REMARK    2  A    between atoms: N_3  and  C_4 
ROOT
HETATM    1  C   UNL     1      26.145  44.586  52.573  1.00  0.00     0.143 A 
HETATM    2  N   UNL     1      25.366  45.346  51.765  1.00  0.00    -0.223 NA
HETATM    3  C   UNL     1      25.290  46.665  51.961  1.00  0.00     0.236 A 
HETATM    4  N   UNL     1      25.901  47.372  52.906  1.00  0.00    -0.234 NA
HETATM    5  C   UNL     1      26.693  46.614  53.680  1.00  0.00     0.114 A 
HETATM    6  C   UNL     1      26.910  45.246  53.576  1.00  0.00     0.053 A 
HETATM    7  S   UNL     1      27.532  47.329  54.969  1.00  0.00    -0.073 SA
HETATM    8  C   UNL     1      28.264  45.855  55.405  1.00  0.00    -0.008 C 
HETATM    9  C   UNL     1      27.921  44.819  54.546  1.00  0.00    -0.028 C 
HETATM   10  C   UNL     1      28.550  43.454  54.644  1.00  0.00     0.041 C 
HETATM   11  C   UNL     1      30.082  43.478  54.591  1.00  0.00     0.005 C 
HETATM   12  C   UNL     1      30.759  43.922  55.888  1.00  0.00     0.001 C 
HETATM   13  C   UNL     1      30.602  45.407  56.217  1.00  0.00     0.005 C 
HETATM   14  C   UNL     1      29.178  45.807  56.594  1.00  0.00     0.047 C 
ENDROOT
BRANCH   1  15
HETATM   15  N   UNL     1      26.116  43.185  52.458  1.00  0.00    -0.340 N 
HETATM   16  H   UNL     1      25.225  42.810  52.748  1.00  0.00     0.167 HD
BRANCH  15  17
HETATM   17  C   UNL     1      26.843  42.303  51.633  1.00  0.00     0.036 A 
HETATM   18  C   UNL     1      27.691  41.304  52.127  1.00  0.00     0.032 A 
HETATM   19  C   UNL     1      28.370  40.435  51.265  1.00  0.00     0.042 A 
HETATM   20  C   UNL     1      28.193  40.540  49.890  1.00  0.00     0.102 A 
HETATM   21  C   UNL     1      27.351  41.529  49.377  1.00  0.00     0.104 A 
HETATM   22  O   UNL     1      28.875  39.648  49.105  1.00  0.00    -0.346 OA
HETATM   23  C   UNL     1      26.667  42.384  50.241  1.00  0.00     0.069 A 
HETATM   24  O   UNL     1      27.142  41.713  48.033  1.00  0.00    -0.346 OA
HETATM   25  C   UNL     1      28.142  41.044  47.256  1.00  0.00     0.202 C 
HETATM   26  C   UNL     1      28.361  39.629  47.769  1.00  0.00     0.202 C 
ENDBRANCH  15  17
ENDBRANCH   1  15
TORSDOF 2
ENDMDL
MODEL 2
REMARK VINA RESULT:      -9.7      0.769      1.559
REMARK  2 active torsions:
REMARK  status: ('A' for Active; 'I' for Inactive)
REMARK    1  A    between atoms: C_2  and  N_3 
REMARK    2  A    between atoms: N_3  and  C_4 
ROOT
HETATM    1  C   UNL     1      26.166  44.737  52.487  1.00  0.00     0.143 A 
HETATM    2  N   UNL     1      25.416  45.566  51.719  1.00  0.00    -0.223 NA
HETATM    3  C   UNL     1      25.387  46.875  51.986  1.00  0.00     0.236 A 
HETATM    4  N   UNL     1      26.021  47.508  52.966  1.00  0.00    -0.234 NA
HETATM    5  C   UNL     1      26.784  46.683  53.700  1.00  0.00     0.114 A 
HETATM    6  C   UNL     1      26.952  45.316  53.523  1.00  0.00     0.053 A 
HETATM    7  S   UNL     1      27.646  47.299  55.024  1.00  0.00    -0.073 SA
HETATM    8  C   UNL     1      28.323  45.778  55.382  1.00  0.00    -0.008 C 
HETATM    9  C   UNL     1      27.945  44.802  54.469  1.00  0.00    -0.028 C 
HETATM   10  C   UNL     1      28.525  43.412  54.495  1.00  0.00     0.041 C 
HETATM   11  C   UNL     1      30.057  43.385  54.444  1.00  0.00     0.005 C 
HETATM   12  C   UNL     1      30.747  43.735  55.763  1.00  0.00     0.001 C 
HETATM   13  C   UNL     1      30.643  45.205  56.170  1.00  0.00     0.005 C 
HETATM   14  C   UNL     1      29.232  45.635  56.567  1.00  0.00     0.047 C 
ENDROOT
BRANCH   1  15
HETATM   15  N   UNL     1      26.088  43.346  52.297  1.00  0.00    -0.340 N 
HETATM   16  H   UNL     1      25.282  42.956  52.764  1.00  0.00     0.167 HD
BRANCH  15  17
HETATM   17  C   UNL     1      26.589  42.516  51.275  1.00  0.00     0.036 A 
HETATM   18  C   UNL     1      26.334  42.723  49.914  1.00  0.00     0.032 A 
HETATM   19  C   UNL     1      26.881  41.885  48.936  1.00  0.00     0.042 A 
HETATM   20  C   UNL     1      27.711  40.833  49.305  1.00  0.00     0.102 A 
HETATM   21  C   UNL     1      27.979  40.609  50.657  1.00  0.00     0.104 A 
HETATM   22  O   UNL     1      28.224  40.062  48.297  1.00  0.00    -0.346 OA
HETATM   23  C   UNL     1      27.443  41.456  51.628  1.00  0.00     0.069 A 
HETATM   24  O   UNL     1      28.768  39.579  51.105  1.00  0.00    -0.346 OA
HETATM   25  C   UNL     1      28.959  38.591  50.086  1.00  0.00     0.202 C 
HETATM   26  C   UNL     1      29.308  39.249  48.760  1.00  0.00     0.202 C 
ENDBRANCH  15  17
ENDBRANCH   1  15
TORSDOF 2
ENDMDL
MODEL 3
REMARK VINA RESULT:      -9.1      3.545      6.039
REMARK  2 active torsions:
REMARK  status: ('A' for Active; 'I' for Inactive)
REMARK    1  A    between atoms: C_2  and  N_3 
REMARK    2  A    between atoms: N_3  and  C_4 
ROOT
HETATM    1  C   UNL     1      25.391  43.788  51.276  1.00  0.00     0.143 A 
HETATM    2  N   UNL     1      24.546  43.008  50.558  1.00  0.00    -0.223 NA
HETATM    3  C   UNL     1      24.908  41.766  50.225  1.00  0.00     0.236 A 
HETATM    4  N   UNL     1      26.057  41.162  50.508  1.00  0.00    -0.234 NA
HETATM    5  C   UNL     1      26.872  41.933  51.244  1.00  0.00     0.114 A 
HETATM    6  C   UNL     1      26.624  43.219  51.704  1.00  0.00     0.053 A 
HETATM    7  S   UNL     1      28.405  41.350  51.678  1.00  0.00    -0.073 SA
HETATM    8  C   UNL     1      28.778  42.769  52.544  1.00  0.00    -0.008 C 
HETATM    9  C   UNL     1      27.724  43.673  52.558  1.00  0.00    -0.028 C 
HETATM   10  C   UNL     1      27.764  44.939  53.374  1.00  0.00     0.041 C 
HETATM   11  C   UNL     1      28.060  44.702  54.859  1.00  0.00     0.005 C 
HETATM   12  C   UNL     1      29.526  44.408  55.179  1.00  0.00     0.001 C 
HETATM   13  C   UNL     1      30.021  43.038  54.714  1.00  0.00     0.005 C 
HETATM   14  C   UNL     1      30.122  42.903  53.197  1.00  0.00     0.047 C 
ENDROOT
BRANCH   1  15
HETATM   15  N   UNL     1      25.072  45.139  51.506  1.00  0.00    -0.340 N 
HETATM   16  H   UNL     1      24.959  45.328  52.492  1.00  0.00     0.167 HD
BRANCH  15  17
HETATM   17  C   UNL     1      25.329  46.298  50.748  1.00  0.00     0.036 A 
HETATM   18  C   UNL     1      26.609  46.683  50.331  1.00  0.00     0.032 A 
HETATM   19  C   UNL     1      26.807  47.830  49.554  1.00  0.00     0.042 A 
HETATM   20  C   UNL     1      25.719  48.602  49.163  1.00  0.00     0.102 A 
HETATM   21  C   UNL     1      24.434  48.235  49.567  1.00  0.00     0.104 A 
HETATM   22  O   UNL     1      25.982  49.702  48.391  1.00  0.00    -0.346 OA
HETATM   23  C   UNL     1      24.240  47.083  50.330  1.00  0.00     0.069 A 
HETATM   24  O   UNL     1      23.311  48.956  49.243  1.00  0.00    -0.346 OA
HETATM   25  C   UNL     1      23.653  50.270  48.786  1.00  0.00     0.202 C 
HETATM   26  C   UNL     1      24.790  50.208  47.779  1.00  0.00     0.202 C 
ENDBRANCH  15  17
ENDBRANCH   1  15
TORSDOF 2
ENDMDL
MODEL 4
REMARK VINA RESULT:      -9.0      7.462     10.993
REMARK  2 active torsions:
REMARK  status: ('A' for Active; 'I' for Inactive)
REMARK    1  A    between atoms: C_2  and  N_3 
REMARK    2  A    between atoms: N_3  and  C_4 
ROOT
HETATM    1  C   UNL     1      20.345  47.534  48.776  1.00  0.00     0.143 A 
HETATM    2  N   UNL     1      20.427  46.281  48.265  1.00  0.00    -0.223 NA
HETATM    3  C   UNL     1      19.352  45.720  47.701  1.00  0.00     0.236 A 
HETATM    4  N   UNL     1      18.141  46.252  47.580  1.00  0.00    -0.234 NA
HETATM    5  C   UNL     1      18.080  47.503  48.061  1.00  0.00     0.114 A 
HETATM    6  C   UNL     1      19.113  48.234  48.634  1.00  0.00     0.053 A 
HETATM    7  S   UNL     1      16.605  48.339  48.029  1.00  0.00    -0.073 SA
HETATM    8  C   UNL     1      17.297  49.731  48.726  1.00  0.00    -0.008 C 
HETATM    9  C   UNL     1      18.663  49.594  48.938  1.00  0.00    -0.028 C 
HETATM   10  C   UNL     1      19.519  50.738  49.415  1.00  0.00     0.041 C 
HETATM   11  C   UNL     1      19.411  51.992  48.540  1.00  0.00     0.005 C 
HETATM   12  C   UNL     1      18.138  52.811  48.751  1.00  0.00     0.001 C 
HETATM   13  C   UNL     1      16.860  52.157  48.224  1.00  0.00     0.005 C 
HETATM   14  C   UNL     1      16.431  50.922  49.012  1.00  0.00     0.047 C 
ENDROOT
BRANCH   1  15
HETATM   15  N   UNL     1      21.430  48.070  49.493  1.00  0.00    -0.340 N 
HETATM   16  H   UNL     1      21.473  47.695  50.429  1.00  0.00     0.167 HD
BRANCH  15  17
HETATM   17  C   UNL     1      22.655  48.613  49.058  1.00  0.00     0.036 A 
HETATM   18  C   UNL     1      22.753  49.676  48.153  1.00  0.00     0.032 A 
HETATM   19  C   UNL     1      23.995  50.198  47.775  1.00  0.00     0.042 A 
HETATM   20  C   UNL     1      25.164  49.675  48.317  1.00  0.00     0.102 A 
HETATM   21  C   UNL     1      25.088  48.616  49.223  1.00  0.00     0.104 A 
HETATM   22  O   UNL     1      26.344  50.243  47.916  1.00  0.00    -0.346 OA
HETATM   23  C   UNL     1      23.847  48.107  49.606  1.00  0.00     0.069 A 
HETATM   24  O   UNL     1      26.195  48.028  49.784  1.00  0.00    -0.346 OA
HETATM   25  C   UNL     1      27.386  48.373  49.066  1.00  0.00     0.202 C 
HETATM   26  C   UNL     1      27.424  49.865  48.777  1.00  0.00     0.202 C 
ENDBRANCH  15  17
ENDBRANCH   1  15
TORSDOF 2
ENDMDL
MODEL 5
REMARK VINA RESULT:      -8.9      1.255      1.879
REMARK  2 active torsions:
REMARK  status: ('A' for Active; 'I' for Inactive)
REMARK    1  A    between atoms: C_2  and  N_3 
REMARK    2  A    between atoms: N_3  and  C_4 
ROOT
HETATM    1  C   UNL     1      25.919  44.723  52.556  1.00  0.00     0.143 A 
HETATM    2  N   UNL     1      25.174  45.584  51.821  1.00  0.00    -0.223 NA
HETATM    3  C   UNL     1      25.257  46.898  52.049  1.00  0.00     0.236 A 
HETATM    4  N   UNL     1      26.005  47.508  52.962  1.00  0.00    -0.234 NA
HETATM    5  C   UNL     1      26.760  46.649  53.662  1.00  0.00     0.114 A 
HETATM    6  C   UNL     1      26.819  45.269  53.515  1.00  0.00     0.053 A 
HETATM    7  S   UNL     1      27.759  47.233  54.902  1.00  0.00    -0.073 SA
HETATM    8  C   UNL     1      28.353  45.676  55.255  1.00  0.00    -0.008 C 
HETATM    9  C   UNL     1      27.841  44.708  54.402  1.00  0.00    -0.028 C 
HETATM   10  C   UNL     1      28.321  43.281  54.428  1.00  0.00     0.041 C 
HETATM   11  C   UNL     1      29.840  43.141  54.267  1.00  0.00     0.005 C 
HETATM   12  C   UNL     1      30.648  43.473  55.521  1.00  0.00     0.001 C 
HETATM   13  C   UNL     1      30.679  44.957  55.890  1.00  0.00     0.005 C 
HETATM   14  C   UNL     1      29.335  45.498  56.375  1.00  0.00     0.047 C 
ENDROOT
BRANCH   1  15
HETATM   15  N   UNL     1      25.729  43.336  52.415  1.00  0.00    -0.340 N 
HETATM   16  H   UNL     1      25.330  42.932  53.251  1.00  0.00     0.167 HD
BRANCH  15  17
HETATM   17  C   UNL     1      25.545  42.534  51.272  1.00  0.00     0.036 A 
HETATM   18  C   UNL     1      24.475  42.688  50.382  1.00  0.00     0.032 A 
HETATM   19  C   UNL     1      24.354  41.882  49.244  1.00  0.00     0.042 A 
HETATM   20  C   UNL     1      25.317  40.918  48.968  1.00  0.00     0.102 A 
HETATM   21  C   UNL     1      26.393  40.749  49.842  1.00  0.00     0.104 A 
HETATM   22  O   UNL     1      25.145  40.175  47.831  1.00  0.00    -0.346 OA
HETATM   23  C   UNL     1      26.516  41.564  50.968  1.00  0.00     0.069 A 
HETATM   24  O   UNL     1      27.372  39.805  49.653  1.00  0.00    -0.346 OA
HETATM   25  C   UNL     1      26.963  38.817  48.701  1.00  0.00     0.202 C 
HETATM   26  C   UNL     1      26.344  39.475  47.478  1.00  0.00     0.202 C 
ENDBRANCH  15  17
ENDBRANCH   1  15
TORSDOF 2
ENDMDL
MODEL 6
REMARK VINA RESULT:      -8.7      4.075      7.281
REMARK  2 active torsions:
REMARK  status: ('A' for Active; 'I' for Inactive)
REMARK    1  A    between atoms: C_2  and  N_3 
REMARK    2  A    between atoms: N_3  and  C_4 
ROOT
HETATM    1  C   UNL     1      25.235  44.925  50.614  1.00  0.00     0.143 A 
HETATM    2  N   UNL     1      24.479  43.803  50.529  1.00  0.00    -0.223 NA
HETATM    3  C   UNL     1      23.288  43.847  49.922  1.00  0.00     0.236 A 
HETATM    4  N   UNL     1      22.708  44.908  49.371  1.00  0.00    -0.234 NA
HETATM    5  C   UNL     1      23.479  46.004  49.435  1.00  0.00     0.114 A 
HETATM    6  C   UNL     1      24.748  46.108  49.989  1.00  0.00     0.053 A 
HETATM    7  S   UNL     1      22.897  47.472  48.816  1.00  0.00    -0.073 SA
HETATM    8  C   UNL     1      24.336  48.292  49.211  1.00  0.00    -0.008 C 
HETATM    9  C   UNL     1      25.291  47.450  49.766  1.00  0.00    -0.028 C 
HETATM   10  C   UNL     1      26.691  47.915  50.069  1.00  0.00     0.041 C 
HETATM   11  C   UNL     1      27.408  48.532  48.863  1.00  0.00     0.005 C 
HETATM   12  C   UNL     1      26.972  49.957  48.521  1.00  0.00     0.001 C 
HETATM   13  C   UNL     1      25.567  50.073  47.929  1.00  0.00     0.005 C 
HETATM   14  C   UNL     1      24.452  49.760  48.924  1.00  0.00     0.047 C 
ENDROOT
BRANCH   1  15
HETATM   15  N   UNL     1      26.420  44.914  51.372  1.00  0.00    -0.340 N 
HETATM   16  H   UNL     1      27.232  44.795  50.784  1.00  0.00     0.167 HD
BRANCH  15  17
HETATM   17  C   UNL     1      26.726  45.471  52.629  1.00  0.00     0.036 A 
HETATM   18  C   UNL     1      25.949  46.457  53.248  1.00  0.00     0.032 A 
HETATM   19  C   UNL     1      26.281  46.958  54.513  1.00  0.00     0.042 A 
HETATM   20  C   UNL     1      27.389  46.461  55.188  1.00  0.00     0.102 A 
HETATM   21  C   UNL     1      28.177  45.476  54.590  1.00  0.00     0.104 A 
HETATM   22  O   UNL     1      27.648  46.984  56.428  1.00  0.00    -0.346 OA
HETATM   23  C   UNL     1      27.834  44.971  53.335  1.00  0.00     0.069 A 
HETATM   24  O   UNL     1      29.300  44.952  55.180  1.00  0.00    -0.346 OA
HETATM   25  C   UNL     1      29.749  45.774  56.263  1.00  0.00     0.202 C 
HETATM   26  C   UNL     1      28.582  46.174  57.151  1.00  0.00     0.202 C 
ENDBRANCH  15  17
ENDBRANCH   1  15
TORSDOF 2
ENDMDL
MODEL 7
REMARK VINA RESULT:      -8.6      3.666      6.181
REMARK  2 active torsions:
REMARK  status: ('A' for Active; 'I' for Inactive)
REMARK    1  A    between atoms: C_2  and  N_3 
REMARK    2  A    between atoms: N_3  and  C_4 
ROOT
HETATM    1  C   UNL     1      25.430  43.343  50.942  1.00  0.00     0.143 A 
HETATM    2  N   UNL     1      24.691  42.483  50.200  1.00  0.00    -0.223 NA
HETATM    3  C   UNL     1      25.173  41.270  49.909  1.00  0.00     0.236 A 
HETATM    4  N   UNL     1      26.354  40.772  50.260  1.00  0.00    -0.234 NA
HETATM    5  C   UNL     1      27.063  41.621  51.019  1.00  0.00     0.114 A 
HETATM    6  C   UNL     1      26.684  42.889  51.440  1.00  0.00     0.053 A 
HETATM    7  S   UNL     1      28.616  41.179  51.538  1.00  0.00    -0.073 SA
HETATM    8  C   UNL     1      28.824  42.638  52.391  1.00  0.00    -0.008 C 
HETATM    9  C   UNL     1      27.698  43.449  52.336  1.00  0.00    -0.028 C 
HETATM   10  C   UNL     1      27.590  44.727  53.127  1.00  0.00     0.041 C 
HETATM   11  C   UNL     1      27.831  44.540  54.629  1.00  0.00     0.005 C 
HETATM   12  C   UNL     1      29.299  44.378  55.026  1.00  0.00     0.001 C 
HETATM   13  C   UNL     1      29.931  43.048  54.613  1.00  0.00     0.005 C 
HETATM   14  C   UNL     1      30.118  42.897  53.105  1.00  0.00     0.047 C 
ENDROOT
BRANCH   1  15
HETATM   15  N   UNL     1      24.987  44.665  51.128  1.00  0.00    -0.340 N 
HETATM   16  H   UNL     1      25.474  45.113  51.892  1.00  0.00     0.167 HD
BRANCH  15  17
HETATM   17  C   UNL     1      24.395  45.583  50.238  1.00  0.00     0.036 A 
HETATM   18  C   UNL     1      23.318  45.266  49.402  1.00  0.00     0.032 A 
HETATM   19  C   UNL     1      22.747  46.223  48.556  1.00  0.00     0.042 A 
HETATM   20  C   UNL     1      23.235  47.525  48.549  1.00  0.00     0.102 A 
HETATM   21  C   UNL     1      24.308  47.863  49.375  1.00  0.00     0.104 A 
HETATM   22  O   UNL     1      22.621  48.415  47.708  1.00  0.00    -0.346 OA
HETATM   23  C   UNL     1      24.865  46.908  50.227  1.00  0.00     0.069 A 
HETATM   24  O   UNL     1      24.863  49.118  49.409  1.00  0.00    -0.346 OA
HETATM   25  C   UNL     1      24.468  49.891  48.270  1.00  0.00     0.202 C 
HETATM   26  C   UNL     1      22.971  49.765  48.031  1.00  0.00     0.202 C 
ENDBRANCH  15  17
ENDBRANCH   1  15
TORSDOF 2
ENDMDL
MODEL 8
REMARK VINA RESULT:      -8.3      3.870      7.550
REMARK  2 active torsions:
REMARK  status: ('A' for Active; 'I' for Inactive)
REMARK    1  A    between atoms: C_2  and  N_3 
REMARK    2  A    between atoms: N_3  and  C_4 
ROOT
HETATM    1  C   UNL     1      27.249  41.076  51.274  1.00  0.00     0.143 A 
HETATM    2  N   UNL     1      28.396  40.403  51.014  1.00  0.00    -0.223 NA
HETATM    3  C   UNL     1      28.558  39.793  49.836  1.00  0.00     0.236 A 
HETATM    4  N   UNL     1      27.690  39.745  48.832  1.00  0.00    -0.234 NA
HETATM    5  C   UNL     1      26.572  40.440  49.089  1.00  0.00     0.114 A 
HETATM    6  C   UNL     1      26.274  41.158  50.240  1.00  0.00     0.053 A 
HETATM    7  S   UNL     1      25.324  40.469  47.940  1.00  0.00    -0.073 SA
HETATM    8  C   UNL     1      24.360  41.487  48.907  1.00  0.00    -0.008 C 
HETATM    9  C   UNL     1      24.996  41.857  50.084  1.00  0.00    -0.028 C 
HETATM   10  C   UNL     1      24.401  42.862  51.036  1.00  0.00     0.041 C 
HETATM   11  C   UNL     1      24.050  44.200  50.375  1.00  0.00     0.005 C 
HETATM   12  C   UNL     1      22.771  44.183  49.538  1.00  0.00     0.001 C 
HETATM   13  C   UNL     1      22.872  43.399  48.229  1.00  0.00     0.005 C 
HETATM   14  C   UNL     1      22.998  41.890  48.424  1.00  0.00     0.047 C 
ENDROOT
BRANCH   1  15
HETATM   15  N   UNL     1      27.018  41.596  52.560  1.00  0.00    -0.340 N 
HETATM   16  H   UNL     1      26.638  40.894  53.179  1.00  0.00     0.167 HD
BRANCH  15  17
HETATM   17  C   UNL     1      27.608  42.676  53.247  1.00  0.00     0.036 A 
HETATM   18  C   UNL     1      27.121  43.987  53.192  1.00  0.00     0.032 A 
HETATM   19  C   UNL     1      27.728  45.020  53.917  1.00  0.00     0.042 A 
HETATM   20  C   UNL     1      28.823  44.749  54.729  1.00  0.00     0.102 A 
HETATM   21  C   UNL     1      29.324  43.448  54.799  1.00  0.00     0.104 A 
HETATM   22  O   UNL     1      29.359  45.802  55.422  1.00  0.00    -0.346 OA
HETATM   23  C   UNL     1      28.708  42.419  54.084  1.00  0.00     0.069 A 
HETATM   24  O   UNL     1      30.416  43.104  55.557  1.00  0.00    -0.346 OA
HETATM   25  C   UNL     1      31.164  44.262  55.944  1.00  0.00     0.202 C 
HETATM   26  C   UNL     1      30.237  45.351  56.459  1.00  0.00     0.202 C 
ENDBRANCH  15  17
ENDBRANCH   1  15
TORSDOF 2
ENDMDL
MODEL 9
REMARK VINA RESULT:      -8.3      7.577     11.003
REMARK  2 active torsions:
REMARK  status: ('A' for Active; 'I' for Inactive)
REMARK    1  A    between atoms: C_2  and  N_3 
REMARK    2  A    between atoms: N_3  and  C_4 
ROOT
HETATM    1  C   UNL     1      20.054  48.904  49.274  1.00  0.00     0.143 A 
HETATM    2  N   UNL     1      19.484  49.626  50.270  1.00  0.00    -0.223 NA
HETATM    3  C   UNL     1      18.316  50.241  50.061  1.00  0.00     0.236 A 
HETATM    4  N   UNL     1      17.604  50.252  48.940  1.00  0.00    -0.234 NA
HETATM    5  C   UNL     1      18.163  49.511  47.972  1.00  0.00     0.114 A 
HETATM    6  C   UNL     1      19.342  48.781  48.047  1.00  0.00     0.053 A 
HETATM    7  S   UNL     1      17.420  49.429  46.449  1.00  0.00    -0.073 SA
HETATM    8  C   UNL     1      18.611  48.371  45.845  1.00  0.00    -0.008 C 
HETATM    9  C   UNL     1      19.552  48.028  46.808  1.00  0.00    -0.028 C 
HETATM   10  C   UNL     1      20.622  46.999  46.553  1.00  0.00     0.041 C 
HETATM   11  C   UNL     1      20.074  45.647  46.081  1.00  0.00     0.005 C 
HETATM   12  C   UNL     1      19.639  45.610  44.616  1.00  0.00     0.001 C 
HETATM   13  C   UNL     1      18.367  46.397  44.304  1.00  0.00     0.005 C 
HETATM   14  C   UNL     1      18.536  47.911  44.419  1.00  0.00     0.047 C 
ENDROOT
BRANCH   1  15
HETATM   15  N   UNL     1      21.346  48.374  49.444  1.00  0.00    -0.340 N 
HETATM   16  H   UNL     1      21.319  47.374  49.577  1.00  0.00     0.167 HD
BRANCH  15  17
HETATM   17  C   UNL     1      22.606  48.841  49.023  1.00  0.00     0.036 A 
HETATM   18  C   UNL     1      22.778  49.893  48.115  1.00  0.00     0.032 A 
HETATM   19  C   UNL     1      24.055  50.339  47.751  1.00  0.00     0.042 A 
HETATM   20  C   UNL     1      25.183  49.748  48.309  1.00  0.00     0.102 A 
HETATM   21  C   UNL     1      25.033  48.698  49.217  1.00  0.00     0.104 A 
HETATM   22  O   UNL     1      26.400  50.242  47.920  1.00  0.00    -0.346 OA
HETATM   23  C   UNL     1      23.759  48.267  49.587  1.00  0.00     0.069 A 
HETATM   24  O   UNL     1      26.096  48.047  49.793  1.00  0.00    -0.346 OA
HETATM   25  C   UNL     1      27.313  48.317  49.088  1.00  0.00     0.202 C 
HETATM   26  C   UNL     1      27.445  49.803  48.795  1.00  0.00     0.202 C 
ENDBRANCH  15  17
ENDBRANCH   1  15
TORSDOF 2
ENDMDL
MODEL 10
REMARK VINA RESULT:      -8.2      4.735      8.181
REMARK  2 active torsions:
REMARK  status: ('A' for Active; 'I' for Inactive)
REMARK    1  A    between atoms: C_2  and  N_3 
REMARK    2  A    between atoms: N_3  and  C_4 
ROOT
HETATM    1  C   UNL     1      24.031  45.301  49.046  1.00  0.00     0.143 A 
HETATM    2  N   UNL     1      23.798  43.990  48.790  1.00  0.00    -0.223 NA
HETATM    3  C   UNL     1      22.574  43.589  48.435  1.00  0.00     0.236 A 
HETATM    4  N   UNL     1      21.489  44.344  48.304  1.00  0.00    -0.234 NA
HETATM    5  C   UNL     1      21.739  45.642  48.530  1.00  0.00     0.114 A 
HETATM    6  C   UNL     1      22.958  46.218  48.863  1.00  0.00     0.053 A 
HETATM    7  S   UNL     1      20.469  46.764  48.446  1.00  0.00    -0.073 SA
HETATM    8  C   UNL     1      21.505  48.070  48.795  1.00  0.00    -0.008 C 
HETATM    9  C   UNL     1      22.830  47.676  48.924  1.00  0.00    -0.028 C 
HETATM   10  C   UNL     1      23.949  48.669  49.095  1.00  0.00     0.041 C 
HETATM   11  C   UNL     1      23.993  49.739  47.999  1.00  0.00     0.005 C 
HETATM   12  C   UNL     1      22.945  50.843  48.140  1.00  0.00     0.001 C 
HETATM   13  C   UNL     1      21.509  50.404  47.854  1.00  0.00     0.005 C 
HETATM   14  C   UNL     1      20.936  49.454  48.904  1.00  0.00     0.047 C 
ENDROOT
BRANCH   1  15
HETATM   15  N   UNL     1      25.279  45.704  49.555  1.00  0.00    -0.340 N 
HETATM   16  H   UNL     1      25.700  46.417  48.977  1.00  0.00     0.167 HD
BRANCH  15  17
HETATM   17  C   UNL     1      25.806  45.670  50.862  1.00  0.00     0.036 A 
HETATM   18  C   UNL     1      26.518  44.582  51.381  1.00  0.00     0.032 A 
HETATM   19  C   UNL     1      27.046  44.610  52.677  1.00  0.00     0.042 A 
HETATM   20  C   UNL     1      26.887  45.741  53.469  1.00  0.00     0.102 A 
HETATM   21  C   UNL     1      26.181  46.838  52.970  1.00  0.00     0.104 A 
HETATM   22  O   UNL     1      27.442  45.708  54.720  1.00  0.00    -0.346 OA
HETATM   23  C   UNL     1      25.668  46.810  51.672  1.00  0.00     0.069 A 
HETATM   24  O   UNL     1      25.959  47.981  53.696  1.00  0.00    -0.346 OA
HETATM   25  C   UNL     1      26.203  47.765  55.091  1.00  0.00     0.202 C 
HETATM   26  C   UNL     1      27.510  47.017  55.297  1.00  0.00     0.202 C 
ENDBRANCH  15  17
ENDBRANCH   1  15
TORSDOF 2
ENDMDL
