MODEL 1
REMARK VINA RESULT:      -9.7      0.000      0.000
REMARK  5 active torsions:
REMARK  status: ('A' for Active; 'I' for Inactive)
REMARK    1  A    between atoms: C_6  and  O_7 
REMARK    2  A    between atoms: O_7  and  C_8 
REMARK    3  A    between atoms: C_8  and  C_9 
REMARK       I    between atoms: C_9  and  N_10 
REMARK    4  A    between atoms: N_10  and  N_11 
REMARK    5  A    between atoms: C_12  and  C_13 
ROOT
HETATM    1  C   UNL     1      26.135  46.676  53.624  1.00  0.00     0.261 C 
HETATM    2  N   UNL     1      26.266  46.543  52.249  1.00  0.00    -0.246 N 
HETATM    3  O   UNL     1      25.608  47.629  54.199  1.00  0.00    -0.269 OA
HETATM    4  H   UNL     1      26.743  45.732  51.866  1.00  0.00     0.192 HD
ENDROOT
BRANCH   2   5
HETATM    5  N   UNL     1      25.783  47.525  51.436  1.00  0.00    -0.184 NA
HETATM    6  C   UNL     1      26.206  47.537  50.216  1.00  0.00     0.152 C 
BRANCH   6   7
HETATM    7  C   UNL     1      25.706  48.557  49.315  1.00  0.00     0.011 A 
HETATM    8  C   UNL     1      24.343  48.863  48.995  1.00  0.00     0.004 A 
HETATM    9  C   UNL     1      24.357  49.930  48.093  1.00  0.00     0.043 A 
HETATM   10  C   UNL     1      23.092  48.344  49.393  1.00  0.00     0.014 A 
HETATM   11  C   UNL     1      23.189  50.501  47.570  1.00  0.00     0.030 A 
HETATM   12  N   UNL     1      25.673  50.257  47.868  1.00  0.00    -0.364 N 
HETATM   13  C   UNL     1      21.966  49.968  47.982  1.00  0.00     0.002 A 
HETATM   14  C   UNL     1      21.915  48.905  48.881  1.00  0.00     0.001 A 
HETATM   15  H   UNL     1      25.987  50.998  47.256  1.00  0.00     0.165 HD
HETATM   16  C   UNL     1      26.490  49.443  48.598  1.00  0.00     0.102 A 
ENDBRANCH   6   7
ENDBRANCH   2   5
BRANCH   1  17
HETATM   17  C   UNL     1      26.614  45.456  54.403  1.00  0.00     0.280 C 
BRANCH  17  18
HETATM   18  O   UNL     1      27.743  44.834  53.792  1.00  0.00    -0.342 OA
BRANCH  18  19
HETATM   19  C   UNL     1      28.776  44.565  54.659  1.00  0.00     0.075 A 
HETATM   20  C   UNL     1      29.464  43.355  54.470  1.00  0.00    -0.028 A 
HETATM   21  C   UNL     1      30.548  43.044  55.310  1.00  0.00     0.016 A 
HETATM   22  C   UNL     1      29.105  42.423  53.348  1.00  0.00     0.051 C 
HETATM   23  C   UNL     1      30.924  43.899  56.353  1.00  0.00    -0.061 A 
HETATM   24  C   UNL     1      32.103  43.583  57.224  1.00  0.00     0.048 C 
HETATM   25  C   UNL     1      30.212  45.086  56.544  1.00  0.00     0.009 A 
HETATM   26  C   UNL     1      29.141  45.412  55.709  1.00  0.00     0.038 A 
ENDBRANCH  18  19
ENDBRANCH  17  18
ENDBRANCH   1  17
TORSDOF 5
ENDMDL
MODEL 2
REMARK VINA RESULT:      -9.2      1.979      9.723
REMARK  5 active torsions:
REMARK  status: ('A' for Active; 'I' for Inactive)
REMARK    1  A    between atoms: C_6  and  O_7 
REMARK    2  A    between atoms: O_7  and  C_8 
REMARK    3  A    between atoms: C_8  and  C_9 
REMARK       I    between atoms: C_9  and  N_10 
REMARK    4  A    between atoms: N_10  and  N_11 
REMARK    5  A    between atoms: C_12  and  C_13 
ROOT
HETATM    1  C   UNL     1      25.226  47.103  50.952  1.00  0.00     0.261 C 
HETATM    2  N   UNL     1      25.031  46.389  52.126  1.00  0.00    -0.246 N 
HETATM    3  O   UNL     1      26.158  47.879  50.739  1.00  0.00    -0.269 OA
HETATM    4  H   UNL     1      24.214  45.793  52.221  1.00  0.00     0.192 HD
ENDROOT
BRANCH   2   5
HETATM    5  N   UNL     1      25.923  46.530  53.147  1.00  0.00    -0.184 NA
HETATM    6  C   UNL     1      26.719  45.537  53.370  1.00  0.00     0.152 C 
BRANCH   6   7
HETATM    7  C   UNL     1      27.693  45.653  54.439  1.00  0.00     0.011 A 
HETATM    8  C   UNL     1      28.796  44.784  54.729  1.00  0.00     0.004 A 
HETATM    9  C   UNL     1      29.457  45.308  55.843  1.00  0.00     0.043 A 
HETATM   10  C   UNL     1      29.307  43.606  54.145  1.00  0.00     0.014 A 
HETATM   11  C   UNL     1      30.596  44.715  56.401  1.00  0.00     0.030 A 
HETATM   12  N   UNL     1      28.781  46.445  56.220  1.00  0.00    -0.364 N 
HETATM   13  C   UNL     1      31.080  43.551  55.802  1.00  0.00     0.002 A 
HETATM   14  C   UNL     1      30.448  43.002  54.689  1.00  0.00     0.001 A 
HETATM   15  H   UNL     1      29.038  47.036  57.000  1.00  0.00     0.165 HD
HETATM   16  C   UNL     1      27.725  46.663  55.384  1.00  0.00     0.102 A 
ENDBRANCH   6   7
ENDBRANCH   2   5
BRANCH   1  17
HETATM   17  C   UNL     1      24.220  46.764  49.858  1.00  0.00     0.280 C 
BRANCH  17  18
HETATM   18  O   UNL     1      24.298  47.664  48.755  1.00  0.00    -0.342 OA
BRANCH  18  19
HETATM   19  C   UNL     1      23.309  48.619  48.735  1.00  0.00     0.075 A 
HETATM   20  C   UNL     1      23.691  49.922  48.377  1.00  0.00    -0.028 A 
HETATM   21  C   UNL     1      22.714  50.931  48.313  1.00  0.00     0.016 A 
HETATM   22  C   UNL     1      25.110  50.240  48.000  1.00  0.00     0.051 C 
HETATM   23  C   UNL     1      21.378  50.666  48.637  1.00  0.00    -0.061 A 
HETATM   24  C   UNL     1      20.331  51.734  48.531  1.00  0.00     0.048 C 
HETATM   25  C   UNL     1      21.018  49.370  49.016  1.00  0.00     0.009 A 
HETATM   26  C   UNL     1      21.978  48.356  49.074  1.00  0.00     0.038 A 
ENDBRANCH  18  19
ENDBRANCH  17  18
ENDBRANCH   1  17
TORSDOF 5
ENDMDL
MODEL 3
REMARK VINA RESULT:      -8.9      1.633      2.424
REMARK  5 active torsions:
REMARK  status: ('A' for Active; 'I' for Inactive)
REMARK    1  A    between atoms: C_6  and  O_7 
REMARK    2  A    between atoms: O_7  and  C_8 
REMARK    3  A    between atoms: C_8  and  C_9 
REMARK       I    between atoms: C_9  and  N_10 
REMARK    4  A    between atoms: N_10  and  N_11 
REMARK    5  A    between atoms: C_12  and  C_13 
ROOT
HETATM    1  C   UNL     1      26.606  43.991  50.656  1.00  0.00     0.261 C 
HETATM    2  N   UNL     1      25.424  44.715  50.718  1.00  0.00    -0.246 N 
HETATM    3  O   UNL     1      27.552  44.238  49.909  1.00  0.00    -0.269 OA
HETATM    4  H   UNL     1      24.684  44.418  51.347  1.00  0.00     0.192 HD
ENDROOT
BRANCH   2   5
HETATM    5  N   UNL     1      25.262  45.795  49.901  1.00  0.00    -0.184 NA
HETATM    6  C   UNL     1      25.572  46.950  50.390  1.00  0.00     0.152 C 
BRANCH   6   7
HETATM    7  C   UNL     1      25.428  48.123  49.548  1.00  0.00     0.011 A 
HETATM    8  C   UNL     1      24.217  48.737  49.088  1.00  0.00     0.004 A 
HETATM    9  C   UNL     1      24.579  49.845  48.317  1.00  0.00     0.043 A 
HETATM   10  C   UNL     1      22.843  48.466  49.259  1.00  0.00     0.014 A 
HETATM   11  C   UNL     1      23.642  50.691  47.712  1.00  0.00     0.030 A 
HETATM   12  N   UNL     1      25.953  49.901  48.304  1.00  0.00    -0.364 N 
HETATM   13  C   UNL     1      22.289  50.400  47.900  1.00  0.00     0.002 A 
HETATM   14  C   UNL     1      21.892  49.305  48.663  1.00  0.00     0.001 A 
HETATM   15  H   UNL     1      26.497  50.605  47.824  1.00  0.00     0.165 HD
HETATM   16  C   UNL     1      26.472  48.875  49.042  1.00  0.00     0.102 A 
ENDBRANCH   6   7
ENDBRANCH   2   5
BRANCH   1  17
HETATM   17  C   UNL     1      26.697  42.883  51.700  1.00  0.00     0.280 C 
BRANCH  17  18
HETATM   18  O   UNL     1      26.486  43.369  53.024  1.00  0.00    -0.342 OA
BRANCH  18  19
HETATM   19  C   UNL     1      27.640  43.547  53.750  1.00  0.00     0.075 A 
HETATM   20  C   UNL     1      27.834  44.809  54.335  1.00  0.00    -0.028 A 
HETATM   21  C   UNL     1      28.984  45.036  55.112  1.00  0.00     0.016 A 
HETATM   22  C   UNL     1      26.806  45.896  54.198  1.00  0.00     0.051 C 
HETATM   23  C   UNL     1      29.953  44.039  55.278  1.00  0.00    -0.061 A 
HETATM   24  C   UNL     1      31.159  44.271  56.138  1.00  0.00     0.048 C 
HETATM   25  C   UNL     1      29.757  42.797  54.668  1.00  0.00     0.009 A 
HETATM   26  C   UNL     1      28.614  42.556  53.902  1.00  0.00     0.038 A 
ENDBRANCH  18  19
ENDBRANCH  17  18
ENDBRANCH   1  17
TORSDOF 5
ENDMDL
MODEL 4
REMARK VINA RESULT:      -8.9      1.625      2.616
REMARK  5 active torsions:
REMARK  status: ('A' for Active; 'I' for Inactive)
REMARK    1  A    between atoms: C_6  and  O_7 
REMARK    2  A    between atoms: O_7  and  C_8 
REMARK    3  A    between atoms: C_8  and  C_9 
REMARK       I    between atoms: C_9  and  N_10 
REMARK    4  A    between atoms: N_10  and  N_11 
REMARK    5  A    between atoms: C_12  and  C_13 
ROOT
HETATM    1  C   UNL     1      25.637  46.746  51.969  1.00  0.00     0.261 C 
HETATM    2  N   UNL     1      25.424  46.925  50.610  1.00  0.00    -0.246 N 
HETATM    3  O   UNL     1      25.379  47.573  52.843  1.00  0.00    -0.269 OA
HETATM    4  H   UNL     1      25.696  46.195  49.958  1.00  0.00     0.192 HD
ENDROOT
BRANCH   2   5
HETATM    5  N   UNL     1      24.885  48.097  50.169  1.00  0.00    -0.184 NA
HETATM    6  C   UNL     1      23.713  48.037  49.628  1.00  0.00     0.152 C 
BRANCH   6   7
HETATM    7  C   UNL     1      23.099  49.264  49.158  1.00  0.00     0.011 A 
HETATM    8  C   UNL     1      21.703  49.581  49.080  1.00  0.00     0.004 A 
HETATM    9  C   UNL     1      21.599  50.881  48.578  1.00  0.00     0.043 A 
HETATM   10  C   UNL     1      20.513  48.893  49.399  1.00  0.00     0.014 A 
HETATM   11  C   UNL     1      20.372  51.524  48.378  1.00  0.00     0.030 A 
HETATM   12  N   UNL     1      22.878  51.335  48.354  1.00  0.00    -0.364 N 
HETATM   13  C   UNL     1      19.211  50.820  48.703  1.00  0.00     0.002 A 
HETATM   14  C   UNL     1      19.277  49.524  49.208  1.00  0.00     0.001 A 
HETATM   15  H   UNL     1      23.109  52.250  47.992  1.00  0.00     0.165 HD
HETATM   16  C   UNL     1      23.785  50.376  48.702  1.00  0.00     0.102 A 
ENDBRANCH   6   7
ENDBRANCH   2   5
BRANCH   1  17
HETATM   17  C   UNL     1      26.136  45.352  52.330  1.00  0.00     0.280 C 
BRANCH  17  18
HETATM   18  O   UNL     1      26.181  45.141  53.739  1.00  0.00    -0.342 OA
BRANCH  18  19
HETATM   19  C   UNL     1      27.390  44.675  54.202  1.00  0.00     0.075 A 
HETATM   20  C   UNL     1      28.152  45.555  54.986  1.00  0.00    -0.028 A 
HETATM   21  C   UNL     1      29.382  45.119  55.508  1.00  0.00     0.016 A 
HETATM   22  C   UNL     1      27.647  46.928  55.329  1.00  0.00     0.051 C 
HETATM   23  C   UNL     1      29.875  43.838  55.226  1.00  0.00    -0.061 A 
HETATM   24  C   UNL     1      31.169  43.362  55.815  1.00  0.00     0.048 C 
HETATM   25  C   UNL     1      29.115  42.983  54.423  1.00  0.00     0.009 A 
HETATM   26  C   UNL     1      27.886  43.402  53.907  1.00  0.00     0.038 A 
ENDBRANCH  18  19
ENDBRANCH  17  18
ENDBRANCH   1  17
TORSDOF 5
ENDMDL
MODEL 5
REMARK VINA RESULT:      -8.7      1.936      2.744
REMARK  5 active torsions:
REMARK  status: ('A' for Active; 'I' for Inactive)
REMARK    1  A    between atoms: C_6  and  O_7 
REMARK    2  A    between atoms: O_7  and  C_8 
REMARK    3  A    between atoms: C_8  and  C_9 
REMARK       I    between atoms: C_9  and  N_10 
REMARK    4  A    between atoms: N_10  and  N_11 
REMARK    5  A    between atoms: C_12  and  C_13 
ROOT
HETATM    1  C   UNL     1      25.685  44.838  51.964  1.00  0.00     0.261 C 
HETATM    2  N   UNL     1      25.781  45.411  50.704  1.00  0.00    -0.246 N 
HETATM    3  O   UNL     1      24.634  44.576  52.548  1.00  0.00    -0.269 OA
HETATM    4  H   UNL     1      26.696  45.618  50.314  1.00  0.00     0.192 HD
ENDROOT
BRANCH   2   5
HETATM    5  N   UNL     1      24.639  45.720  50.025  1.00  0.00    -0.184 NA
HETATM    6  C   UNL     1      24.397  46.973  49.827  1.00  0.00     0.152 C 
BRANCH   6   7
HETATM    7  C   UNL     1      23.199  47.344  49.097  1.00  0.00     0.011 A 
HETATM    8  C   UNL     1      22.669  48.657  48.878  1.00  0.00     0.004 A 
HETATM    9  C   UNL     1      21.510  48.514  48.110  1.00  0.00     0.043 A 
HETATM   10  C   UNL     1      23.066  49.960  49.246  1.00  0.00     0.014 A 
HETATM   11  C   UNL     1      20.731  49.602  47.696  1.00  0.00     0.030 A 
HETATM   12  N   UNL     1      21.338  47.170  47.877  1.00  0.00    -0.364 N 
HETATM   13  C   UNL     1      21.149  50.880  48.075  1.00  0.00     0.002 A 
HETATM   14  C   UNL     1      22.300  51.059  48.838  1.00  0.00     0.001 A 
HETATM   15  H   UNL     1      20.578  46.770  47.344  1.00  0.00     0.165 HD
HETATM   16  C   UNL     1      22.347  46.459  48.461  1.00  0.00     0.102 A 
ENDBRANCH   6   7
ENDBRANCH   2   5
BRANCH   1  17
HETATM   17  C   UNL     1      27.033  44.442  52.557  1.00  0.00     0.280 C 
BRANCH  17  18
HETATM   18  O   UNL     1      27.372  45.224  53.700  1.00  0.00    -0.342 OA
BRANCH  18  19
HETATM   19  C   UNL     1      28.453  44.751  54.407  1.00  0.00     0.075 A 
HETATM   20  C   UNL     1      28.870  45.511  55.512  1.00  0.00    -0.028 A 
HETATM   21  C   UNL     1      29.953  45.057  56.286  1.00  0.00     0.016 A 
HETATM   22  C   UNL     1      28.141  46.760  55.917  1.00  0.00     0.051 C 
HETATM   23  C   UNL     1      30.642  43.886  55.950  1.00  0.00    -0.061 A 
HETATM   24  C   UNL     1      31.772  43.385  56.800  1.00  0.00     0.048 C 
HETATM   25  C   UNL     1      30.230  43.155  54.833  1.00  0.00     0.009 A 
HETATM   26  C   UNL     1      29.150  43.590  54.061  1.00  0.00     0.038 A 
ENDBRANCH  18  19
ENDBRANCH  17  18
ENDBRANCH   1  17
TORSDOF 5
ENDMDL
MODEL 6
REMARK VINA RESULT:      -8.7      5.532      7.658
REMARK  5 active torsions:
REMARK  status: ('A' for Active; 'I' for Inactive)
REMARK    1  A    between atoms: C_6  and  O_7 
REMARK    2  A    between atoms: O_7  and  C_8 
REMARK    3  A    between atoms: C_8  and  C_9 
REMARK       I    between atoms: C_9  and  N_10 
REMARK    4  A    between atoms: N_10  and  N_11 
REMARK    5  A    between atoms: C_12  and  C_13 
ROOT
HETATM    1  C   UNL     1      26.879  42.891  51.992  1.00  0.00     0.261 C 
HETATM    2  N   UNL     1      27.198  41.552  52.163  1.00  0.00    -0.246 N 
HETATM    3  O   UNL     1      26.573  43.418  50.922  1.00  0.00    -0.269 OA
HETATM    4  H   UNL     1      27.467  41.213  53.082  1.00  0.00     0.192 HD
ENDROOT
BRANCH   2   5
HETATM    5  N   UNL     1      27.182  40.720  51.082  1.00  0.00    -0.184 NA
HETATM    6  C   UNL     1      28.307  40.188  50.736  1.00  0.00     0.152 C 
BRANCH   6   7
HETATM    7  C   UNL     1      28.330  39.286  49.600  1.00  0.00     0.011 A 
HETATM    8  C   UNL     1      28.211  39.613  48.210  1.00  0.00     0.004 A 
HETATM    9  C   UNL     1      28.303  38.417  47.492  1.00  0.00     0.043 A 
HETATM   10  C   UNL     1      28.047  40.813  47.486  1.00  0.00     0.014 A 
HETATM   11  C   UNL     1      28.237  38.361  46.094  1.00  0.00     0.030 A 
HETATM   12  N   UNL     1      28.464  37.403  48.408  1.00  0.00    -0.364 N 
HETATM   13  C   UNL     1      28.075  39.563  45.404  1.00  0.00     0.002 A 
HETATM   14  C   UNL     1      27.982  40.774  46.087  1.00  0.00     0.001 A 
HETATM   15  H   UNL     1      28.560  36.425  48.173  1.00  0.00     0.165 HD
HETATM   16  C   UNL     1      28.485  37.913  49.674  1.00  0.00     0.102 A 
ENDBRANCH   6   7
ENDBRANCH   2   5
BRANCH   1  17
HETATM   17  C   UNL     1      26.826  43.677  53.297  1.00  0.00     0.280 C 
BRANCH  17  18
HETATM   18  O   UNL     1      27.844  44.673  53.370  1.00  0.00    -0.342 OA
BRANCH  18  19
HETATM   19  C   UNL     1      28.849  44.388  54.266  1.00  0.00     0.075 A 
HETATM   20  C   UNL     1      29.102  45.345  55.261  1.00  0.00    -0.028 A 
HETATM   21  C   UNL     1      30.099  45.090  56.220  1.00  0.00     0.016 A 
HETATM   22  C   UNL     1      28.284  46.601  55.359  1.00  0.00     0.051 C 
HETATM   23  C   UNL     1      30.867  43.920  56.172  1.00  0.00    -0.061 A 
HETATM   24  C   UNL     1      31.903  43.634  57.217  1.00  0.00     0.048 C 
HETATM   25  C   UNL     1      30.619  42.990  55.159  1.00  0.00     0.009 A 
HETATM   26  C   UNL     1      29.625  43.226  54.207  1.00  0.00     0.038 A 
ENDBRANCH  18  19
ENDBRANCH  17  18
ENDBRANCH   1  17
TORSDOF 5
ENDMDL
MODEL 7
REMARK VINA RESULT:      -8.4      2.955      9.961
REMARK  5 active torsions:
REMARK  status: ('A' for Active; 'I' for Inactive)
REMARK    1  A    between atoms: C_6  and  O_7 
REMARK    2  A    between atoms: O_7  and  C_8 
REMARK    3  A    between atoms: C_8  and  C_9 
REMARK       I    between atoms: C_9  and  N_10 
REMARK    4  A    between atoms: N_10  and  N_11 
REMARK    5  A    between atoms: C_12  and  C_13 
ROOT
HETATM    1  C   UNL     1      23.703  48.282  49.384  1.00  0.00     0.261 C 
HETATM    2  N   UNL     1      23.742  47.021  49.961  1.00  0.00    -0.246 N 
HETATM    3  O   UNL     1      24.570  49.147  49.507  1.00  0.00    -0.269 OA
HETATM    4  H   UNL     1      22.964  46.382  49.827  1.00  0.00     0.192 HD
ENDROOT
BRANCH   2   5
HETATM    5  N   UNL     1      24.813  46.675  50.732  1.00  0.00    -0.184 NA
HETATM    6  C   UNL     1      24.726  45.568  51.392  1.00  0.00     0.152 C 
BRANCH   6   7
HETATM    7  C   UNL     1      25.849  45.157  52.213  1.00  0.00     0.011 A 
HETATM    8  C   UNL     1      26.524  45.910  53.229  1.00  0.00     0.004 A 
HETATM    9  C   UNL     1      27.532  45.095  53.751  1.00  0.00     0.043 A 
HETATM   10  C   UNL     1      26.370  47.205  53.768  1.00  0.00     0.014 A 
HETATM   11  C   UNL     1      28.390  45.507  54.778  1.00  0.00     0.030 A 
HETATM   12  N   UNL     1      27.478  43.897  53.076  1.00  0.00    -0.364 N 
HETATM   13  C   UNL     1      28.214  46.793  55.292  1.00  0.00     0.002 A 
HETATM   14  C   UNL     1      27.218  47.632  54.798  1.00  0.00     0.001 A 
HETATM   15  H   UNL     1      28.092  43.112  53.246  1.00  0.00     0.165 HD
HETATM   16  C   UNL     1      26.471  43.923  52.155  1.00  0.00     0.102 A 
ENDBRANCH   6   7
ENDBRANCH   2   5
BRANCH   1  17
HETATM   17  C   UNL     1      22.509  48.492  48.460  1.00  0.00     0.280 C 
BRANCH  17  18
HETATM   18  O   UNL     1      21.265  48.326  49.137  1.00  0.00    -0.342 OA
BRANCH  18  19
HETATM   19  C   UNL     1      20.470  49.449  49.141  1.00  0.00     0.075 A 
HETATM   20  C   UNL     1      19.210  49.333  49.748  1.00  0.00    -0.028 A 
HETATM   21  C   UNL     1      18.369  50.458  49.805  1.00  0.00     0.016 A 
HETATM   22  C   UNL     1      18.772  48.048  50.393  1.00  0.00     0.051 C 
HETATM   23  C   UNL     1      18.753  51.678  49.232  1.00  0.00    -0.061 A 
HETATM   24  C   UNL     1      17.871  52.886  49.327  1.00  0.00     0.048 C 
HETATM   25  C   UNL     1      20.000  51.769  48.609  1.00  0.00     0.009 A 
HETATM   26  C   UNL     1      20.849  50.661  48.555  1.00  0.00     0.038 A 
ENDBRANCH  18  19
ENDBRANCH  17  18
ENDBRANCH   1  17
TORSDOF 5
ENDMDL
MODEL 8
REMARK VINA RESULT:      -8.3      1.690      2.205
REMARK  5 active torsions:
REMARK  status: ('A' for Active; 'I' for Inactive)
REMARK    1  A    between atoms: C_6  and  O_7 
REMARK    2  A    between atoms: O_7  and  C_8 
REMARK    3  A    between atoms: C_8  and  C_9 
REMARK       I    between atoms: C_9  and  N_10 
REMARK    4  A    between atoms: N_10  and  N_11 
REMARK    5  A    between atoms: C_12  and  C_13 
ROOT
HETATM    1  C   UNL     1      26.150  47.014  53.416  1.00  0.00     0.261 C 
HETATM    2  N   UNL     1      26.052  46.241  52.268  1.00  0.00    -0.246 N 
HETATM    3  O   UNL     1      25.437  47.981  53.685  1.00  0.00    -0.269 OA
HETATM    4  H   UNL     1      26.706  45.478  52.119  1.00  0.00     0.192 HD
ENDROOT
BRANCH   2   5
HETATM    5  N   UNL     1      25.100  46.545  51.340  1.00  0.00    -0.184 NA
HETATM    6  C   UNL     1      24.750  45.602  50.529  1.00  0.00     0.152 C 
BRANCH   6   7
HETATM    7  C   UNL     1      23.730  45.881  49.536  1.00  0.00     0.011 A 
HETATM    8  C   UNL     1      23.221  47.157  49.126  1.00  0.00     0.004 A 
HETATM    9  C   UNL     1      22.262  46.923  48.137  1.00  0.00     0.043 A 
HETATM   10  C   UNL     1      23.489  48.493  49.491  1.00  0.00     0.014 A 
HETATM   11  C   UNL     1      21.560  47.953  47.498  1.00  0.00     0.030 A 
HETATM   12  N   UNL     1      22.186  45.562  47.956  1.00  0.00    -0.364 N 
HETATM   13  C   UNL     1      21.847  49.266  47.879  1.00  0.00     0.002 A 
HETATM   14  C   UNL     1      22.798  49.536  48.860  1.00  0.00     0.001 A 
HETATM   15  H   UNL     1      21.573  45.102  47.297  1.00  0.00     0.165 HD
HETATM   16  C   UNL     1      23.064  44.928  48.787  1.00  0.00     0.102 A 
ENDBRANCH   6   7
ENDBRANCH   2   5
BRANCH   1  17
HETATM   17  C   UNL     1      27.178  46.494  54.415  1.00  0.00     0.280 C 
BRANCH  17  18
HETATM   18  O   UNL     1      27.867  45.342  53.932  1.00  0.00    -0.342 OA
BRANCH  18  19
HETATM   19  C   UNL     1      28.870  44.896  54.760  1.00  0.00     0.075 A 
HETATM   20  C   UNL     1      29.478  43.677  54.421  1.00  0.00    -0.028 A 
HETATM   21  C   UNL     1      30.528  43.188  55.218  1.00  0.00     0.016 A 
HETATM   22  C   UNL     1      29.071  42.920  53.188  1.00  0.00     0.051 C 
HETATM   23  C   UNL     1      30.949  43.878  56.362  1.00  0.00    -0.061 A 
HETATM   24  C   UNL     1      32.094  43.374  57.189  1.00  0.00     0.048 C 
HETATM   25  C   UNL     1      30.315  45.076  56.700  1.00  0.00     0.009 A 
HETATM   26  C   UNL     1      29.277  45.577  55.911  1.00  0.00     0.038 A 
ENDBRANCH  18  19
ENDBRANCH  17  18
ENDBRANCH   1  17
TORSDOF 5
ENDMDL
MODEL 9
REMARK VINA RESULT:      -8.3      3.114      9.848
REMARK  5 active torsions:
REMARK  status: ('A' for Active; 'I' for Inactive)
REMARK    1  A    between atoms: C_6  and  O_7 
REMARK    2  A    between atoms: O_7  and  C_8 
REMARK    3  A    between atoms: C_8  and  C_9 
REMARK       I    between atoms: C_9  and  N_10 
REMARK    4  A    between atoms: N_10  and  N_11 
REMARK    5  A    between atoms: C_12  and  C_13 
ROOT
HETATM    1  C   UNL     1      22.998  45.772  48.629  1.00  0.00     0.261 C 
HETATM    2  N   UNL     1      23.675  46.415  49.655  1.00  0.00    -0.246 N 
HETATM    3  O   UNL     1      23.148  44.594  48.307  1.00  0.00    -0.269 OA
HETATM    4  H   UNL     1      23.506  47.401  49.828  1.00  0.00     0.192 HD
ENDROOT
BRANCH   2   5
HETATM    5  N   UNL     1      24.586  45.717  50.391  1.00  0.00    -0.184 NA
HETATM    6  C   UNL     1      24.896  46.198  51.549  1.00  0.00     0.152 C 
BRANCH   6   7
HETATM    7  C   UNL     1      25.851  45.477  52.369  1.00  0.00     0.011 A 
HETATM    8  C   UNL     1      26.686  45.993  53.414  1.00  0.00     0.004 A 
HETATM    9  C   UNL     1      27.426  44.922  53.922  1.00  0.00     0.043 A 
HETATM   10  C   UNL     1      26.877  47.267  53.990  1.00  0.00     0.014 A 
HETATM   11  C   UNL     1      28.345  45.060  54.970  1.00  0.00     0.030 A 
HETATM   12  N   UNL     1      27.062  43.802  53.212  1.00  0.00    -0.364 N 
HETATM   13  C   UNL     1      28.514  46.332  55.521  1.00  0.00     0.002 A 
HETATM   14  C   UNL     1      27.791  47.421  55.041  1.00  0.00     0.001 A 
HETATM   15  H   UNL     1      27.437  42.876  53.365  1.00  0.00     0.165 HD
HETATM   16  C   UNL     1      26.116  44.122  52.281  1.00  0.00     0.102 A 
ENDBRANCH   6   7
ENDBRANCH   2   5
BRANCH   1  17
HETATM   17  C   UNL     1      21.932  46.638  47.966  1.00  0.00     0.280 C 
BRANCH  17  18
HETATM   18  O   UNL     1      22.446  47.898  47.540  1.00  0.00    -0.342 OA
BRANCH  18  19
HETATM   19  C   UNL     1      21.607  48.960  47.781  1.00  0.00     0.075 A 
HETATM   20  C   UNL     1      22.211  50.181  48.122  1.00  0.00    -0.028 A 
HETATM   21  C   UNL     1      21.401  51.307  48.351  1.00  0.00     0.016 A 
HETATM   22  C   UNL     1      23.706  50.320  48.183  1.00  0.00     0.051 C 
HETATM   23  C   UNL     1      20.005  51.220  48.282  1.00  0.00    -0.061 A 
HETATM   24  C   UNL     1      19.145  52.431  48.489  1.00  0.00     0.048 C 
HETATM   25  C   UNL     1      19.419  49.992  47.967  1.00  0.00     0.009 A 
HETATM   26  C   UNL     1      20.213  48.868  47.727  1.00  0.00     0.038 A 
ENDBRANCH  18  19
ENDBRANCH  17  18
ENDBRANCH   1  17
TORSDOF 5
ENDMDL
MODEL 10
REMARK VINA RESULT:      -7.9      3.088     10.085
REMARK  5 active torsions:
REMARK  status: ('A' for Active; 'I' for Inactive)
REMARK    1  A    between atoms: C_6  and  O_7 
REMARK    2  A    between atoms: O_7  and  C_8 
REMARK    3  A    between atoms: C_8  and  C_9 
REMARK       I    between atoms: C_9  and  N_10 
REMARK    4  A    between atoms: N_10  and  N_11 
REMARK    5  A    between atoms: C_12  and  C_13 
ROOT
HETATM    1  C   UNL     1      23.090  46.037  48.847  1.00  0.00     0.261 C 
HETATM    2  N   UNL     1      23.912  46.158  49.959  1.00  0.00    -0.246 N 
HETATM    3  O   UNL     1      22.743  44.974  48.332  1.00  0.00    -0.269 OA
HETATM    4  H   UNL     1      24.169  47.081  50.296  1.00  0.00     0.192 HD
ENDROOT
BRANCH   2   5
HETATM    5  N   UNL     1      24.392  45.030  50.557  1.00  0.00    -0.184 NA
HETATM    6  C   UNL     1      25.675  44.895  50.608  1.00  0.00     0.152 C 
BRANCH   6   7
HETATM    7  C   UNL     1      26.226  43.716  51.249  1.00  0.00     0.011 A 
HETATM    8  C   UNL     1      27.176  43.654  52.321  1.00  0.00     0.004 A 
HETATM    9  C   UNL     1      27.393  42.304  52.608  1.00  0.00     0.043 A 
HETATM   10  C   UNL     1      27.867  44.617  53.087  1.00  0.00     0.014 A 
HETATM   11  C   UNL     1      28.262  41.869  53.616  1.00  0.00     0.030 A 
HETATM   12  N   UNL     1      26.612  41.573  51.743  1.00  0.00    -0.364 N 
HETATM   13  C   UNL     1      28.932  42.843  54.358  1.00  0.00     0.002 A 
HETATM   14  C   UNL     1      28.739  44.199  54.101  1.00  0.00     0.001 A 
HETATM   15  H   UNL     1      26.565  40.564  51.722  1.00  0.00     0.165 HD
HETATM   16  C   UNL     1      25.906  42.409  50.927  1.00  0.00     0.102 A 
ENDBRANCH   6   7
ENDBRANCH   2   5
BRANCH   1  17
HETATM   17  C   UNL     1      22.537  47.368  48.351  1.00  0.00     0.280 C 
BRANCH  17  18
HETATM   18  O   UNL     1      22.538  48.367  49.369  1.00  0.00    -0.342 OA
BRANCH  18  19
HETATM   19  C   UNL     1      21.559  49.322  49.223  1.00  0.00     0.075 A 
HETATM   20  C   UNL     1      21.963  50.575  48.734  1.00  0.00    -0.028 A 
HETATM   21  C   UNL     1      20.998  51.579  48.539  1.00  0.00     0.016 A 
HETATM   22  C   UNL     1      23.393  50.840  48.357  1.00  0.00     0.051 C 
HETATM   23  C   UNL     1      19.652  51.361  48.859  1.00  0.00    -0.061 A 
HETATM   24  C   UNL     1      18.619  52.420  48.614  1.00  0.00     0.048 C 
HETATM   25  C   UNL     1      19.271  50.117  49.368  1.00  0.00     0.009 A 
HETATM   26  C   UNL     1      20.219  49.108  49.558  1.00  0.00     0.038 A 
ENDBRANCH  18  19
ENDBRANCH  17  18
ENDBRANCH   1  17
TORSDOF 5
ENDMDL
