MODEL 1
REMARK VINA RESULT:      -9.2      0.000      0.000
REMARK  6 active torsions:
REMARK  status: ('A' for Active; 'I' for Inactive)
REMARK    1  A    between atoms: C_3  and  C_4 
REMARK    2  A    between atoms: C_4  and  O_5 
REMARK    3  A    between atoms: O_5  and  C_6 
REMARK    4  A    between atoms: C_9  and  C_10 
REMARK       I    between atoms: C_10  and  N_11 
REMARK    5  A    between atoms: N_11  and  N_12 
REMARK       I    between atoms: N_12  and  C_13 
REMARK    6  A    between atoms: C_13  and  C_14 
ROOT
HETATM    1  C   UNL     1      31.714  43.728  57.719  1.00  0.00     0.001 A 
HETATM    2  C   UNL     1      31.389  43.355  56.414  1.00  0.00     0.011 A 
HETATM    3  C   UNL     1      30.489  44.116  55.645  1.00  0.00    -0.013 A 
HETATM    4  C   UNL     1      29.953  45.291  56.210  1.00  0.00     0.053 A 
HETATM    5  C   UNL     1      29.070  46.147  55.470  1.00  0.00     0.100 C 
HETATM    6  N   UNL     1      28.364  46.832  54.853  1.00  0.00    -0.191 NA
HETATM    7  C   UNL     1      30.282  45.656  57.525  1.00  0.00     0.023 A 
HETATM    8  C   UNL     1      31.158  44.875  58.278  1.00  0.00     0.002 A 
ENDROOT
BRANCH   3   9
HETATM    9  C   UNL     1      30.162  43.704  54.220  1.00  0.00     0.216 C 
BRANCH   9  10
HETATM   10  O   UNL     1      28.976  42.903  54.195  1.00  0.00    -0.347 OA
BRANCH  10  11
HETATM   11  C   UNL     1      27.941  43.389  53.445  1.00  0.00     0.069 A 
HETATM   12  C   UNL     1      27.979  43.618  52.070  1.00  0.00     0.038 A 
HETATM   13  C   UNL     1      26.862  44.154  51.420  1.00  0.00     0.020 A 
HETATM   14  C   UNL     1      25.692  44.450  52.134  1.00  0.00     0.033 A 
HETATM   15  C   UNL     1      25.649  44.196  53.510  1.00  0.00     0.020 A 
HETATM   16  C   UNL     1      26.768  43.658  54.154  1.00  0.00     0.038 A 
BRANCH  14  17
HETATM   17  C   UNL     1      24.559  45.072  51.393  1.00  0.00     0.270 C 
HETATM   18  N   UNL     1      24.737  46.360  50.934  1.00  0.00    -0.263 N 
HETATM   19  H   UNL     1      25.528  46.960  51.150  1.00  0.00     0.190 HD
HETATM   20  O   UNL     1      23.513  44.452  51.213  1.00  0.00    -0.266 OA
BRANCH  18  21
HETATM   21  N   UNL     1      23.689  46.947  50.219  1.00  0.00    -0.262 N 
HETATM   22  C   UNL     1      23.899  48.148  49.577  1.00  0.00     0.286 C 
HETATM   23  O   UNL     1      24.968  48.753  49.668  1.00  0.00    -0.264 OA
HETATM   24  H   UNL     1      22.828  46.411  50.153  1.00  0.00     0.190 HD
BRANCH  22  25
HETATM   25  C   UNL     1      22.786  48.640  48.797  1.00  0.00     0.102 A 
HETATM   26  N   UNL     1      21.969  47.782  48.089  1.00  0.00    -0.361 N 
HETATM   27  H   UNL     1      22.095  46.776  48.069  1.00  0.00     0.165 HD
HETATM   28  C   UNL     1      20.991  48.483  47.439  1.00  0.00     0.088 A 
HETATM   29  C   UNL     1      21.166  49.816  47.727  1.00  0.00     0.019 A 
HETATM   30  C   UNL     1      22.293  49.917  48.579  1.00  0.00     0.036 A 
ENDBRANCH  22  25
ENDBRANCH  18  21
ENDBRANCH  14  17
ENDBRANCH  10  11
ENDBRANCH   9  10
ENDBRANCH   3   9
TORSDOF 6
ENDMDL
MODEL 2
REMARK VINA RESULT:      -9.1      1.963      2.980
REMARK  6 active torsions:
REMARK  status: ('A' for Active; 'I' for Inactive)
REMARK    1  A    between atoms: C_3  and  C_4 
REMARK    2  A    between atoms: C_4  and  O_5 
REMARK    3  A    between atoms: O_5  and  C_6 
REMARK    4  A    between atoms: C_9  and  C_10 
REMARK       I    between atoms: C_10  and  N_11 
REMARK    5  A    between atoms: N_11  and  N_12 
REMARK       I    between atoms: N_12  and  C_13 
REMARK    6  A    between atoms: C_13  and  C_14 
ROOT
HETATM    1  C   UNL     1      30.705  43.314  55.177  1.00  0.00     0.001 A 
HETATM    2  C   UNL     1      29.511  43.239  54.458  1.00  0.00     0.011 A 
HETATM    3  C   UNL     1      28.544  44.257  54.549  1.00  0.00    -0.013 A 
HETATM    4  C   UNL     1      28.828  45.380  55.354  1.00  0.00     0.053 A 
HETATM    5  C   UNL     1      27.916  46.483  55.455  1.00  0.00     0.100 C 
HETATM    6  N   UNL     1      27.169  47.370  55.518  1.00  0.00    -0.191 NA
HETATM    7  C   UNL     1      30.030  45.445  56.076  1.00  0.00     0.023 A 
HETATM    8  C   UNL     1      30.963  44.414  55.990  1.00  0.00     0.002 A 
ENDROOT
BRANCH   3   9
HETATM    9  C   UNL     1      27.258  44.166  53.745  1.00  0.00     0.216 C 
BRANCH   9  10
HETATM   10  O   UNL     1      27.538  44.289  52.347  1.00  0.00    -0.347 OA
BRANCH  10  11
HETATM   11  C   UNL     1      26.752  45.169  51.654  1.00  0.00     0.069 A 
HETATM   12  C   UNL     1      26.546  45.153  50.275  1.00  0.00     0.038 A 
HETATM   13  C   UNL     1      25.745  46.132  49.678  1.00  0.00     0.020 A 
HETATM   14  C   UNL     1      25.130  47.125  50.454  1.00  0.00     0.033 A 
HETATM   15  C   UNL     1      25.319  47.123  51.841  1.00  0.00     0.020 A 
HETATM   16  C   UNL     1      26.120  46.140  52.433  1.00  0.00     0.038 A 
BRANCH  14  17
HETATM   17  C   UNL     1      24.337  48.171  49.750  1.00  0.00     0.270 C 
HETATM   18  N   UNL     1      22.990  48.243  50.040  1.00  0.00    -0.263 N 
HETATM   19  H   UNL     1      22.472  47.577  50.606  1.00  0.00     0.190 HD
HETATM   20  O   UNL     1      24.874  48.928  48.944  1.00  0.00    -0.266 OA
BRANCH  18  21
HETATM   21  N   UNL     1      22.239  49.235  49.402  1.00  0.00    -0.262 N 
HETATM   22  C   UNL     1      20.911  49.000  49.123  1.00  0.00     0.286 C 
HETATM   23  O   UNL     1      20.380  47.915  49.362  1.00  0.00    -0.264 OA
HETATM   24  H   UNL     1      22.707  50.121  49.235  1.00  0.00     0.190 HD
BRANCH  22  25
HETATM   25  C   UNL     1      20.192  50.109  48.536  1.00  0.00     0.102 A 
HETATM   26  N   UNL     1      19.221  49.909  47.577  1.00  0.00    -0.361 N 
HETATM   27  H   UNL     1      18.957  48.995  47.227  1.00  0.00     0.165 HD
HETATM   28  C   UNL     1      18.687  51.106  47.182  1.00  0.00     0.088 A 
HETATM   29  C   UNL     1      19.313  52.101  47.895  1.00  0.00     0.019 A 
HETATM   30  C   UNL     1      20.259  51.478  48.746  1.00  0.00     0.036 A 
ENDBRANCH  22  25
ENDBRANCH  18  21
ENDBRANCH  14  17
ENDBRANCH  10  11
ENDBRANCH   9  10
ENDBRANCH   3   9
TORSDOF 6
ENDMDL
MODEL 3
REMARK VINA RESULT:      -8.5      1.416      1.841
REMARK  6 active torsions:
REMARK  status: ('A' for Active; 'I' for Inactive)
REMARK    1  A    between atoms: C_3  and  C_4 
REMARK    2  A    between atoms: C_4  and  O_5 
REMARK    3  A    between atoms: O_5  and  C_6 
REMARK    4  A    between atoms: C_9  and  C_10 
REMARK       I    between atoms: C_10  and  N_11 
REMARK    5  A    between atoms: N_11  and  N_12 
REMARK       I    between atoms: N_12  and  C_13 
REMARK    6  A    between atoms: C_13  and  C_14 
ROOT
HETATM    1  C   UNL     1      31.590  43.390  57.182  1.00  0.00     0.001 A 
HETATM    2  C   UNL     1      30.962  43.163  55.956  1.00  0.00     0.011 A 
HETATM    3  C   UNL     1      30.025  44.078  55.441  1.00  0.00    -0.013 A 
HETATM    4  C   UNL     1      29.766  45.255  56.173  1.00  0.00     0.053 A 
HETATM    5  C   UNL     1      28.864  46.261  55.688  1.00  0.00     0.100 C 
HETATM    6  N   UNL     1      28.138  47.067  55.275  1.00  0.00    -0.191 NA
HETATM    7  C   UNL     1      30.399  45.472  57.407  1.00  0.00     0.023 A 
HETATM    8  C   UNL     1      31.306  44.541  57.910  1.00  0.00     0.002 A 
ENDROOT
BRANCH   3   9
HETATM    9  C   UNL     1      29.365  43.823  54.096  1.00  0.00     0.216 C 
BRANCH   9  10
HETATM   10  O   UNL     1      28.130  43.123  54.275  1.00  0.00    -0.347 OA
BRANCH  10  11
HETATM   11  C   UNL     1      27.129  43.441  53.397  1.00  0.00     0.069 A 
HETATM   12  C   UNL     1      26.164  44.427  53.599  1.00  0.00     0.038 A 
HETATM   13  C   UNL     1      25.168  44.634  52.638  1.00  0.00     0.020 A 
HETATM   14  C   UNL     1      25.137  43.872  51.462  1.00  0.00     0.033 A 
HETATM   15  C   UNL     1      26.123  42.900  51.252  1.00  0.00     0.020 A 
HETATM   16  C   UNL     1      27.118  42.698  52.215  1.00  0.00     0.038 A 
BRANCH  14  17
HETATM   17  C   UNL     1      24.017  44.103  50.507  1.00  0.00     0.270 C 
HETATM   18  N   UNL     1      23.625  45.408  50.300  1.00  0.00    -0.263 N 
HETATM   19  H   UNL     1      23.957  46.215  50.821  1.00  0.00     0.190 HD
HETATM   20  O   UNL     1      23.473  43.158  49.940  1.00  0.00    -0.266 OA
BRANCH  18  21
HETATM   21  N   UNL     1      22.590  45.640  49.390  1.00  0.00    -0.262 N 
HETATM   22  C   UNL     1      22.610  46.784  48.622  1.00  0.00     0.286 C 
HETATM   23  O   UNL     1      23.483  47.642  48.759  1.00  0.00    -0.264 OA
HETATM   24  H   UNL     1      21.896  44.904  49.294  1.00  0.00     0.190 HD
BRANCH  22  25
HETATM   25  C   UNL     1      21.544  46.902  47.653  1.00  0.00     0.102 A 
HETATM   26  N   UNL     1      20.509  47.799  47.828  1.00  0.00    -0.361 N 
HETATM   27  H   UNL     1      20.430  48.415  48.629  1.00  0.00     0.165 HD
HETATM   28  C   UNL     1      19.632  47.726  46.780  1.00  0.00     0.088 A 
HETATM   29  C   UNL     1      20.100  46.773  45.906  1.00  0.00     0.019 A 
HETATM   30  C   UNL     1      21.299  46.254  46.452  1.00  0.00     0.036 A 
ENDBRANCH  22  25
ENDBRANCH  18  21
ENDBRANCH  14  17
ENDBRANCH  10  11
ENDBRANCH   9  10
ENDBRANCH   3   9
TORSDOF 6
ENDMDL
MODEL 4
REMARK VINA RESULT:      -8.4      2.427      3.292
REMARK  6 active torsions:
REMARK  status: ('A' for Active; 'I' for Inactive)
REMARK    1  A    between atoms: C_3  and  C_4 
REMARK    2  A    between atoms: C_4  and  O_5 
REMARK    3  A    between atoms: O_5  and  C_6 
REMARK    4  A    between atoms: C_9  and  C_10 
REMARK       I    between atoms: C_10  and  N_11 
REMARK    5  A    between atoms: N_11  and  N_12 
REMARK       I    between atoms: N_12  and  C_13 
REMARK    6  A    between atoms: C_13  and  C_14 
ROOT
HETATM    1  C   UNL     1      30.995  44.854  58.017  1.00  0.00     0.001 A 
HETATM    2  C   UNL     1      30.110  45.647  57.286  1.00  0.00     0.011 A 
HETATM    3  C   UNL     1      29.723  45.289  55.982  1.00  0.00    -0.013 A 
HETATM    4  C   UNL     1      30.218  44.083  55.444  1.00  0.00     0.053 A 
HETATM    5  C   UNL     1      29.827  43.623  54.141  1.00  0.00     0.100 C 
HETATM    6  N   UNL     1      29.492  43.263  53.090  1.00  0.00    -0.191 NA
HETATM    7  C   UNL     1      31.111  43.293  56.185  1.00  0.00     0.023 A 
HETATM    8  C   UNL     1      31.500  43.680  57.466  1.00  0.00     0.002 A 
ENDROOT
BRANCH   3   9
HETATM    9  C   UNL     1      28.744  46.156  55.208  1.00  0.00     0.216 C 
BRANCH   9  10
HETATM   10  O   UNL     1      27.420  45.621  55.309  1.00  0.00    -0.347 OA
BRANCH  10  11
HETATM   11  C   UNL     1      26.672  45.654  54.164  1.00  0.00     0.069 A 
HETATM   12  C   UNL     1      26.096  44.546  53.545  1.00  0.00     0.038 A 
HETATM   13  C   UNL     1      25.380  44.706  52.354  1.00  0.00     0.020 A 
HETATM   14  C   UNL     1      25.219  45.975  51.780  1.00  0.00     0.033 A 
HETATM   15  C   UNL     1      25.777  47.089  52.418  1.00  0.00     0.020 A 
HETATM   16  C   UNL     1      26.491  46.923  53.611  1.00  0.00     0.038 A 
BRANCH  14  17
HETATM   17  C   UNL     1      24.495  46.070  50.481  1.00  0.00     0.270 C 
HETATM   18  N   UNL     1      24.285  44.895  49.790  1.00  0.00    -0.263 N 
HETATM   19  H   UNL     1      24.675  43.989  50.033  1.00  0.00     0.190 HD
HETATM   20  O   UNL     1      24.113  47.157  50.055  1.00  0.00    -0.266 OA
BRANCH  18  21
HETATM   21  N   UNL     1      23.588  44.968  48.580  1.00  0.00    -0.262 N 
HETATM   22  C   UNL     1      22.274  44.555  48.533  1.00  0.00     0.286 C 
HETATM   23  O   UNL     1      21.713  44.065  49.513  1.00  0.00    -0.264 OA
HETATM   24  H   UNL     1      24.078  45.392  47.798  1.00  0.00     0.190 HD
BRANCH  22  25
HETATM   25  C   UNL     1      21.609  44.741  47.262  1.00  0.00     0.102 A 
HETATM   26  N   UNL     1      22.200  45.455  46.239  1.00  0.00    -0.361 N 
HETATM   27  H   UNL     1      23.114  45.887  46.312  1.00  0.00     0.165 HD
HETATM   28  C   UNL     1      21.380  45.486  45.145  1.00  0.00     0.088 A 
HETATM   29  C   UNL     1      20.240  44.780  45.452  1.00  0.00     0.019 A 
HETATM   30  C   UNL     1      20.381  44.312  46.782  1.00  0.00     0.036 A 
ENDBRANCH  22  25
ENDBRANCH  18  21
ENDBRANCH  14  17
ENDBRANCH  10  11
ENDBRANCH   9  10
ENDBRANCH   3   9
TORSDOF 6
ENDMDL
MODEL 5
REMARK VINA RESULT:      -8.2      2.612     10.690
REMARK  6 active torsions:
REMARK  status: ('A' for Active; 'I' for Inactive)
REMARK    1  A    between atoms: C_3  and  C_4 
REMARK    2  A    between atoms: C_4  and  O_5 
REMARK    3  A    between atoms: O_5  and  C_6 
REMARK    4  A    between atoms: C_9  and  C_10 
REMARK       I    between atoms: C_10  and  N_11 
REMARK    5  A    between atoms: N_11  and  N_12 
REMARK       I    between atoms: N_12  and  C_13 
REMARK    6  A    between atoms: C_13  and  C_14 
ROOT
HETATM    1  C   UNL     1      18.741  52.189  47.785  1.00  0.00     0.001 A 
HETATM    2  C   UNL     1      19.102  50.868  47.516  1.00  0.00     0.011 A 
HETATM    3  C   UNL     1      19.087  49.892  48.529  1.00  0.00    -0.013 A 
HETATM    4  C   UNL     1      18.657  50.270  49.818  1.00  0.00     0.053 A 
HETATM    5  C   UNL     1      18.564  49.320  50.890  1.00  0.00     0.100 C 
HETATM    6  N   UNL     1      18.487  48.536  51.742  1.00  0.00    -0.191 NA
HETATM    7  C   UNL     1      18.299  51.602  50.080  1.00  0.00     0.023 A 
HETATM    8  C   UNL     1      18.344  52.559  49.067  1.00  0.00     0.002 A 
ENDROOT
BRANCH   3   9
HETATM    9  C   UNL     1      19.466  48.455  48.213  1.00  0.00     0.216 C 
BRANCH   9  10
HETATM   10  O   UNL     1      20.716  48.413  47.516  1.00  0.00    -0.347 OA
BRANCH  10  11
HETATM   11  C   UNL     1      21.787  47.960  48.235  1.00  0.00     0.069 A 
HETATM   12  C   UNL     1      22.653  48.759  48.981  1.00  0.00     0.038 A 
HETATM   13  C   UNL     1      23.738  48.178  49.647  1.00  0.00     0.020 A 
HETATM   14  C   UNL     1      23.957  46.795  49.589  1.00  0.00     0.033 A 
HETATM   15  C   UNL     1      23.071  45.993  48.860  1.00  0.00     0.020 A 
HETATM   16  C   UNL     1      21.987  46.578  48.197  1.00  0.00     0.038 A 
BRANCH  14  17
HETATM   17  C   UNL     1      25.163  46.248  50.273  1.00  0.00     0.270 C 
HETATM   18  N   UNL     1      25.159  46.247  51.652  1.00  0.00    -0.263 N 
HETATM   19  H   UNL     1      24.456  46.685  52.241  1.00  0.00     0.190 HD
HETATM   20  O   UNL     1      26.114  45.824  49.621  1.00  0.00    -0.266 OA
BRANCH  18  21
HETATM   21  N   UNL     1      26.275  45.716  52.306  1.00  0.00    -0.262 N 
HETATM   22  C   UNL     1      26.130  44.584  53.077  1.00  0.00     0.286 C 
HETATM   23  O   UNL     1      25.031  44.059  53.259  1.00  0.00    -0.264 OA
HETATM   24  H   UNL     1      27.166  46.166  52.120  1.00  0.00     0.190 HD
BRANCH  22  25
HETATM   25  C   UNL     1      27.350  44.061  53.650  1.00  0.00     0.102 A 
HETATM   26  N   UNL     1      28.275  44.890  54.252  1.00  0.00    -0.361 N 
HETATM   27  H   UNL     1      28.162  45.894  54.327  1.00  0.00     0.165 HD
HETATM   28  C   UNL     1      29.336  44.162  54.718  1.00  0.00     0.088 A 
HETATM   29  C   UNL     1      29.102  42.840  54.420  1.00  0.00     0.019 A 
HETATM   30  C   UNL     1      27.856  42.774  53.749  1.00  0.00     0.036 A 
ENDBRANCH  22  25
ENDBRANCH  18  21
ENDBRANCH  14  17
ENDBRANCH  10  11
ENDBRANCH   9  10
ENDBRANCH   3   9
TORSDOF 6
ENDMDL
MODEL 6
REMARK VINA RESULT:      -7.9     13.097     16.264
REMARK  6 active torsions:
REMARK  status: ('A' for Active; 'I' for Inactive)
REMARK    1  A    between atoms: C_3  and  C_4 
REMARK    2  A    between atoms: C_4  and  O_5 
REMARK    3  A    between atoms: O_5  and  C_6 
REMARK    4  A    between atoms: C_9  and  C_10 
REMARK       I    between atoms: C_10  and  N_11 
REMARK    5  A    between atoms: N_11  and  N_12 
REMARK       I    between atoms: N_12  and  C_13 
REMARK    6  A    between atoms: C_13  and  C_14 
ROOT
HETATM    1  C   UNL     1      27.640  50.639  39.983  1.00  0.00     0.001 A 
HETATM    2  C   UNL     1      28.496  49.546  39.845  1.00  0.00     0.011 A 
HETATM    3  C   UNL     1      29.776  49.695  39.279  1.00  0.00    -0.013 A 
HETATM    4  C   UNL     1      30.192  50.986  38.893  1.00  0.00     0.053 A 
HETATM    5  C   UNL     1      31.502  51.226  38.359  1.00  0.00     0.100 C 
HETATM    6  N   UNL     1      32.569  51.403  37.936  1.00  0.00    -0.191 NA
HETATM    7  C   UNL     1      29.322  52.079  39.033  1.00  0.00     0.023 A 
HETATM    8  C   UNL     1      28.049  51.905  39.574  1.00  0.00     0.002 A 
ENDROOT
BRANCH   3   9
HETATM    9  C   UNL     1      30.701  48.496  39.153  1.00  0.00     0.216 C 
BRANCH   9  10
HETATM   10  O   UNL     1      31.026  47.982  40.449  1.00  0.00    -0.347 OA
BRANCH  10  11
HETATM   11  C   UNL     1      31.665  48.849  41.294  1.00  0.00     0.069 A 
HETATM   12  C   UNL     1      31.096  49.441  42.421  1.00  0.00     0.038 A 
HETATM   13  C   UNL     1      31.845  50.342  43.187  1.00  0.00     0.020 A 
HETATM   14  C   UNL     1      33.170  50.645  42.845  1.00  0.00     0.033 A 
HETATM   15  C   UNL     1      33.745  50.028  41.728  1.00  0.00     0.020 A 
HETATM   16  C   UNL     1      32.993  49.127  40.966  1.00  0.00     0.038 A 
BRANCH  14  17
HETATM   17  C   UNL     1      33.892  51.654  43.669  1.00  0.00     0.270 C 
HETATM   18  N   UNL     1      35.208  51.909  43.345  1.00  0.00    -0.263 N 
HETATM   19  H   UNL     1      35.759  51.391  42.666  1.00  0.00     0.190 HD
HETATM   20  O   UNL     1      33.326  52.224  44.600  1.00  0.00    -0.266 OA
BRANCH  18  21
HETATM   21  N   UNL     1      35.890  52.869  44.096  1.00  0.00    -0.262 N 
HETATM   22  C   UNL     1      37.134  52.569  44.607  1.00  0.00     0.286 C 
HETATM   23  O   UNL     1      37.637  51.453  44.473  1.00  0.00    -0.264 OA
HETATM   24  H   UNL     1      35.451  53.782  44.172  1.00  0.00     0.190 HD
BRANCH  22  25
HETATM   25  C   UNL     1      37.799  53.648  45.302  1.00  0.00     0.102 A 
HETATM   26  N   UNL     1      38.130  53.546  46.638  1.00  0.00    -0.361 N 
HETATM   27  H   UNL     1      37.931  52.729  47.205  1.00  0.00     0.165 HD
HETATM   28  C   UNL     1      38.752  54.688  47.064  1.00  0.00     0.088 A 
HETATM   29  C   UNL     1      38.832  55.547  45.993  1.00  0.00     0.019 A 
HETATM   30  C   UNL     1      38.234  54.897  44.886  1.00  0.00     0.036 A 
ENDBRANCH  22  25
ENDBRANCH  18  21
ENDBRANCH  14  17
ENDBRANCH  10  11
ENDBRANCH   9  10
ENDBRANCH   3   9
TORSDOF 6
ENDMDL
MODEL 7
REMARK VINA RESULT:      -7.8      4.522     10.161
REMARK  6 active torsions:
REMARK  status: ('A' for Active; 'I' for Inactive)
REMARK    1  A    between atoms: C_3  and  C_4 
REMARK    2  A    between atoms: C_4  and  O_5 
REMARK    3  A    between atoms: O_5  and  C_6 
REMARK    4  A    between atoms: C_9  and  C_10 
REMARK       I    between atoms: C_10  and  N_11 
REMARK    5  A    between atoms: N_11  and  N_12 
REMARK       I    between atoms: N_12  and  C_13 
REMARK    6  A    between atoms: C_13  and  C_14 
ROOT
HETATM    1  C   UNL     1      19.268  50.241  49.889  1.00  0.00     0.001 A 
HETATM    2  C   UNL     1      20.093  49.117  49.827  1.00  0.00     0.011 A 
HETATM    3  C   UNL     1      21.320  49.155  49.141  1.00  0.00    -0.013 A 
HETATM    4  C   UNL     1      21.720  50.372  48.550  1.00  0.00     0.053 A 
HETATM    5  C   UNL     1      22.982  50.505  47.879  1.00  0.00     0.100 C 
HETATM    6  N   UNL     1      24.010  50.595  47.348  1.00  0.00    -0.191 NA
HETATM    7  C   UNL     1      20.882  51.497  48.615  1.00  0.00     0.023 A 
HETATM    8  C   UNL     1      19.659  51.430  49.279  1.00  0.00     0.002 A 
ENDROOT
BRANCH   3   9
HETATM    9  C   UNL     1      22.213  47.927  49.100  1.00  0.00     0.216 C 
BRANCH   9  10
HETATM   10  O   UNL     1      23.402  48.151  49.865  1.00  0.00    -0.347 OA
BRANCH  10  11
HETATM   11  C   UNL     1      24.243  47.080  49.992  1.00  0.00     0.069 A 
HETATM   12  C   UNL     1      24.317  46.005  49.107  1.00  0.00     0.038 A 
HETATM   13  C   UNL     1      25.198  44.949  49.366  1.00  0.00     0.020 A 
HETATM   14  C   UNL     1      26.023  44.965  50.499  1.00  0.00     0.033 A 
HETATM   15  C   UNL     1      25.963  46.058  51.371  1.00  0.00     0.020 A 
HETATM   16  C   UNL     1      25.083  47.113  51.107  1.00  0.00     0.038 A 
BRANCH  14  17
HETATM   17  C   UNL     1      26.896  43.783  50.747  1.00  0.00     0.270 C 
HETATM   18  N   UNL     1      26.443  42.560  50.299  1.00  0.00    -0.263 N 
HETATM   19  H   UNL     1      25.520  42.377  49.915  1.00  0.00     0.190 HD
HETATM   20  O   UNL     1      27.969  43.909  51.332  1.00  0.00    -0.266 OA
BRANCH  18  21
HETATM   21  N   UNL     1      27.262  41.447  50.506  1.00  0.00    -0.262 N 
HETATM   22  C   UNL     1      27.726  40.739  49.419  1.00  0.00     0.286 C 
HETATM   23  O   UNL     1      27.388  41.021  48.269  1.00  0.00    -0.264 OA
HETATM   24  H   UNL     1      27.532  41.254  51.466  1.00  0.00     0.190 HD
BRANCH  22  25
HETATM   25  C   UNL     1      28.631  39.653  49.723  1.00  0.00     0.102 A 
HETATM   26  N   UNL     1      28.954  39.330  51.026  1.00  0.00    -0.361 N 
HETATM   27  H   UNL     1      28.590  39.823  51.833  1.00  0.00     0.165 HD
HETATM   28  C   UNL     1      29.819  38.271  51.054  1.00  0.00     0.088 A 
HETATM   29  C   UNL     1      30.062  37.892  49.755  1.00  0.00     0.019 A 
HETATM   30  C   UNL     1      29.318  38.759  48.917  1.00  0.00     0.036 A 
ENDBRANCH  22  25
ENDBRANCH  18  21
ENDBRANCH  14  17
ENDBRANCH  10  11
ENDBRANCH   9  10
ENDBRANCH   3   9
TORSDOF 6
ENDMDL
MODEL 8
REMARK VINA RESULT:      -7.8      2.749     11.285
REMARK  6 active torsions:
REMARK  status: ('A' for Active; 'I' for Inactive)
REMARK    1  A    between atoms: C_3  and  C_4 
REMARK    2  A    between atoms: C_4  and  O_5 
REMARK    3  A    between atoms: O_5  and  C_6 
REMARK    4  A    between atoms: C_9  and  C_10 
REMARK       I    between atoms: C_10  and  N_11 
REMARK    5  A    between atoms: N_11  and  N_12 
REMARK       I    between atoms: N_12  and  C_13 
REMARK    6  A    between atoms: C_13  and  C_14 
ROOT
HETATM    1  C   UNL     1      17.927  52.539  49.523  1.00  0.00     0.001 A 
HETATM    2  C   UNL     1      18.998  52.015  48.797  1.00  0.00     0.011 A 
HETATM    3  C   UNL     1      18.867  50.813  48.078  1.00  0.00    -0.013 A 
HETATM    4  C   UNL     1      17.613  50.169  48.073  1.00  0.00     0.053 A 
HETATM    5  C   UNL     1      17.387  48.968  47.320  1.00  0.00     0.100 C 
HETATM    6  N   UNL     1      17.221  48.002  46.698  1.00  0.00    -0.191 NA
HETATM    7  C   UNL     1      16.543  50.701  48.809  1.00  0.00     0.023 A 
HETATM    8  C   UNL     1      16.701  51.881  49.534  1.00  0.00     0.002 A 
ENDROOT
BRANCH   3   9
HETATM    9  C   UNL     1      20.039  50.268  47.280  1.00  0.00     0.216 C 
BRANCH   9  10
HETATM   10  O   UNL     1      21.253  50.917  47.674  1.00  0.00    -0.347 OA
BRANCH  10  11
HETATM   11  C   UNL     1      22.228  50.103  48.182  1.00  0.00     0.069 A 
HETATM   12  C   UNL     1      22.007  48.890  48.833  1.00  0.00     0.038 A 
HETATM   13  C   UNL     1      23.090  48.164  49.342  1.00  0.00     0.020 A 
HETATM   14  C   UNL     1      24.402  48.634  49.190  1.00  0.00     0.033 A 
HETATM   15  C   UNL     1      24.622  49.840  48.514  1.00  0.00     0.020 A 
HETATM   16  C   UNL     1      23.536  50.561  48.006  1.00  0.00     0.038 A 
BRANCH  14  17
HETATM   17  C   UNL     1      25.505  47.843  49.804  1.00  0.00     0.270 C 
HETATM   18  N   UNL     1      25.156  46.911  50.759  1.00  0.00    -0.263 N 
HETATM   19  H   UNL     1      24.229  46.793  51.158  1.00  0.00     0.190 HD
HETATM   20  O   UNL     1      26.672  48.029  49.468  1.00  0.00    -0.266 OA
BRANCH  18  21
HETATM   21  N   UNL     1      26.179  46.146  51.327  1.00  0.00    -0.262 N 
HETATM   22  C   UNL     1      25.854  45.064  52.115  1.00  0.00     0.286 C 
HETATM   23  O   UNL     1      24.686  44.786  52.386  1.00  0.00    -0.264 OA
HETATM   24  H   UNL     1      27.129  46.396  51.069  1.00  0.00     0.190 HD
BRANCH  22  25
HETATM   25  C   UNL     1      26.974  44.285  52.595  1.00  0.00     0.102 A 
HETATM   26  N   UNL     1      27.103  43.958  53.929  1.00  0.00    -0.361 N 
HETATM   27  H   UNL     1      26.439  44.239  54.643  1.00  0.00     0.165 HD
HETATM   28  C   UNL     1      28.236  43.218  54.132  1.00  0.00     0.088 A 
HETATM   29  C   UNL     1      28.854  43.054  52.914  1.00  0.00     0.019 A 
HETATM   30  C   UNL     1      28.065  43.724  51.948  1.00  0.00     0.036 A 
ENDBRANCH  22  25
ENDBRANCH  18  21
ENDBRANCH  14  17
ENDBRANCH  10  11
ENDBRANCH   9  10
ENDBRANCH   3   9
TORSDOF 6
ENDMDL
MODEL 9
REMARK VINA RESULT:      -7.7      5.039     13.025
REMARK  6 active torsions:
REMARK  status: ('A' for Active; 'I' for Inactive)
REMARK    1  A    between atoms: C_3  and  C_4 
REMARK    2  A    between atoms: C_4  and  O_5 
REMARK    3  A    between atoms: O_5  and  C_6 
REMARK    4  A    between atoms: C_9  and  C_10 
REMARK       I    between atoms: C_10  and  N_11 
REMARK    5  A    between atoms: N_11  and  N_12 
REMARK       I    between atoms: N_12  and  C_13 
REMARK    6  A    between atoms: C_13  and  C_14 
ROOT
HETATM    1  C   UNL     1      15.194  52.308  46.170  1.00  0.00     0.001 A 
HETATM    2  C   UNL     1      15.878  51.943  47.330  1.00  0.00     0.011 A 
HETATM    3  C   UNL     1      15.704  52.655  48.530  1.00  0.00    -0.013 A 
HETATM    4  C   UNL     1      14.786  53.726  48.546  1.00  0.00     0.053 A 
HETATM    5  C   UNL     1      14.513  54.467  49.745  1.00  0.00     0.100 C 
HETATM    6  N   UNL     1      14.300  55.049  50.727  1.00  0.00    -0.191 NA
HETATM    7  C   UNL     1      14.104  54.088  47.374  1.00  0.00     0.023 A 
HETATM    8  C   UNL     1      14.310  53.383  46.189  1.00  0.00     0.002 A 
ENDROOT
BRANCH   3   9
HETATM    9  C   UNL     1      16.444  52.231  49.787  1.00  0.00     0.216 C 
BRANCH   9  10
HETATM   10  O   UNL     1      17.787  52.727  49.763  1.00  0.00    -0.347 OA
BRANCH  10  11
HETATM   11  C   UNL     1      18.760  51.806  49.483  1.00  0.00     0.069 A 
HETATM   12  C   UNL     1      19.746  51.947  48.507  1.00  0.00     0.038 A 
HETATM   13  C   UNL     1      20.666  50.915  48.292  1.00  0.00     0.020 A 
HETATM   14  C   UNL     1      20.620  49.743  49.059  1.00  0.00     0.033 A 
HETATM   15  C   UNL     1      19.644  49.616  50.055  1.00  0.00     0.020 A 
HETATM   16  C   UNL     1      18.728  50.652  50.268  1.00  0.00     0.038 A 
BRANCH  14  17
HETATM   17  C   UNL     1      21.592  48.660  48.741  1.00  0.00     0.270 C 
HETATM   18  N   UNL     1      22.454  48.271  49.745  1.00  0.00    -0.263 N 
HETATM   19  H   UNL     1      22.558  48.732  50.645  1.00  0.00     0.190 HD
HETATM   20  O   UNL     1      21.616  48.148  47.624  1.00  0.00    -0.266 OA
BRANCH  18  21
HETATM   21  N   UNL     1      23.356  47.241  49.466  1.00  0.00    -0.262 N 
HETATM   22  C   UNL     1      24.450  47.061  50.284  1.00  0.00     0.286 C 
HETATM   23  O   UNL     1      24.691  47.824  51.221  1.00  0.00    -0.264 OA
HETATM   24  H   UNL     1      23.117  46.623  48.696  1.00  0.00     0.190 HD
BRANCH  22  25
HETATM   25  C   UNL     1      25.285  45.924  49.968  1.00  0.00     0.102 A 
HETATM   26  N   UNL     1      24.747  44.753  49.474  1.00  0.00    -0.361 N 
HETATM   27  H   UNL     1      23.756  44.617  49.308  1.00  0.00     0.165 HD
HETATM   28  C   UNL     1      25.733  43.832  49.250  1.00  0.00     0.088 A 
HETATM   29  C   UNL     1      26.933  44.407  49.598  1.00  0.00     0.019 A 
HETATM   30  C   UNL     1      26.654  45.721  50.050  1.00  0.00     0.036 A 
ENDBRANCH  22  25
ENDBRANCH  18  21
ENDBRANCH  14  17
ENDBRANCH  10  11
ENDBRANCH   9  10
ENDBRANCH   3   9
TORSDOF 6
ENDMDL
MODEL 10
REMARK VINA RESULT:      -7.7     13.563     16.867
REMARK  6 active torsions:
REMARK  status: ('A' for Active; 'I' for Inactive)
REMARK    1  A    between atoms: C_3  and  C_4 
REMARK    2  A    between atoms: C_4  and  O_5 
REMARK    3  A    between atoms: O_5  and  C_6 
REMARK    4  A    between atoms: C_9  and  C_10 
REMARK       I    between atoms: C_10  and  N_11 
REMARK    5  A    between atoms: N_11  and  N_12 
REMARK       I    between atoms: N_12  and  C_13 
REMARK    6  A    between atoms: C_13  and  C_14 
ROOT
HETATM    1  C   UNL     1      28.283  52.149  41.323  1.00  0.00     0.001 A 
HETATM    2  C   UNL     1      28.960  50.929  41.368  1.00  0.00     0.011 A 
HETATM    3  C   UNL     1      30.099  50.702  40.575  1.00  0.00    -0.013 A 
HETATM    4  C   UNL     1      30.570  51.754  39.762  1.00  0.00     0.053 A 
HETATM    5  C   UNL     1      31.756  51.617  38.965  1.00  0.00     0.100 C 
HETATM    6  N   UNL     1      32.722  51.490  38.335  1.00  0.00    -0.191 NA
HETATM    7  C   UNL     1      29.881  52.976  39.720  1.00  0.00     0.023 A 
HETATM    8  C   UNL     1      28.740  53.172  40.496  1.00  0.00     0.002 A 
ENDROOT
BRANCH   3   9
HETATM    9  C   UNL     1      30.833  49.374  40.652  1.00  0.00     0.216 C 
BRANCH   9  10
HETATM   10  O   UNL     1      31.397  49.193  41.955  1.00  0.00    -0.347 OA
BRANCH  10  11
HETATM   11  C   UNL     1      32.517  49.929  42.230  1.00  0.00     0.069 A 
HETATM   12  C   UNL     1      33.738  49.817  41.566  1.00  0.00     0.038 A 
HETATM   13  C   UNL     1      34.823  50.605  41.966  1.00  0.00     0.020 A 
HETATM   14  C   UNL     1      34.694  51.521  43.019  1.00  0.00     0.033 A 
HETATM   15  C   UNL     1      33.460  51.648  43.666  1.00  0.00     0.020 A 
HETATM   16  C   UNL     1      32.377  50.860  43.262  1.00  0.00     0.038 A 
BRANCH  14  17
HETATM   17  C   UNL     1      35.904  52.287  43.432  1.00  0.00     0.270 C 
HETATM   18  N   UNL     1      36.443  51.997  44.667  1.00  0.00    -0.263 N 
HETATM   19  H   UNL     1      36.025  51.387  45.365  1.00  0.00     0.190 HD
HETATM   20  O   UNL     1      36.385  53.143  42.693  1.00  0.00    -0.266 OA
BRANCH  18  21
HETATM   21  N   UNL     1      37.590  52.694  45.057  1.00  0.00    -0.262 N 
HETATM   22  C   UNL     1      38.809  52.053  45.032  1.00  0.00     0.286 C 
HETATM   23  O   UNL     1      38.911  50.863  44.735  1.00  0.00    -0.264 OA
HETATM   24  H   UNL     1      37.470  53.677  45.281  1.00  0.00     0.190 HD
BRANCH  22  25
HETATM   25  C   UNL     1      39.950  52.873  45.375  1.00  0.00     0.102 A 
HETATM   26  N   UNL     1      39.879  54.251  45.346  1.00  0.00    -0.361 N 
HETATM   27  H   UNL     1      39.045  54.765  45.086  1.00  0.00     0.165 HD
HETATM   28  C   UNL     1      41.079  54.798  45.712  1.00  0.00     0.088 A 
HETATM   29  C   UNL     1      41.945  53.766  45.988  1.00  0.00     0.019 A 
HETATM   30  C   UNL     1      41.239  52.556  45.776  1.00  0.00     0.036 A 
ENDBRANCH  22  25
ENDBRANCH  18  21
ENDBRANCH  14  17
ENDBRANCH  10  11
ENDBRANCH   9  10
ENDBRANCH   3   9
TORSDOF 6
ENDMDL
