MODEL 1
REMARK VINA RESULT:      -8.4      0.000      0.000
REMARK  6 active torsions:
REMARK  status: ('A' for Active; 'I' for Inactive)
REMARK    1  A    between atoms: N_2  and  C_4 
REMARK    2  A    between atoms: C_4  and  C_5 
REMARK    3  A    between atoms: C_5  and  C_6 
REMARK    4  A    between atoms: C_6  and  N_7 
REMARK    5  A    between atoms: C_17  and  C_18 
REMARK    6  A    between atoms: C_26  and  O_27 
ROOT
HETATM    1  N   UNL     1      26.951  40.848  51.051  1.00  0.00    -0.327 N 
HETATM    2  C   UNL     1      26.441  41.960  51.600  1.00  0.00     0.113 C 
HETATM    3  N   UNL     1      25.207  42.388  51.397  1.00  0.00    -0.385 N 
HETATM    4  H   UNL     1      24.862  43.250  51.806  1.00  0.00     0.157 HD
HETATM    5  H   UNL     1      24.555  41.969  50.752  1.00  0.00     0.157 HD
HETATM    6  C   UNL     1      27.337  42.751  52.507  1.00  0.00     0.052 C 
HETATM    7  C   UNL     1      28.600  42.322  52.686  1.00  0.00     0.182 C 
HETATM    8  O   UNL     1      29.505  42.963  53.519  1.00  0.00    -0.291 OA
HETATM    9  C   UNL     1      29.080  43.978  54.337  1.00  0.00     0.087 A 
HETATM   10  C   UNL     1      27.799  44.523  54.241  1.00  0.00    -0.011 A 
HETATM   11  C   UNL     1      26.847  44.018  53.182  1.00  0.00     0.095 C 
HETATM   12  C   UNL     1      29.998  44.448  55.278  1.00  0.00     0.074 A 
HETATM   13  C   UNL     1      29.618  45.467  56.143  1.00  0.00     0.068 A 
HETATM   14  C   UNL     1      28.343  46.015  56.080  1.00  0.00     0.037 A 
HETATM   15  C   UNL     1      27.433  45.547  55.131  1.00  0.00     0.014 A 
HETATM   16  N   UNL     1      29.119  41.255  52.012  1.00  0.00    -0.219 NA
HETATM   17  C   UNL     1      28.357  40.596  51.224  1.00  0.00     0.214 C 
ENDROOT
BRANCH   1  18
HETATM   18  C   UNL     1      26.169  39.980  50.131  1.00  0.00     0.133 C 
BRANCH  18  19
HETATM   19  C   UNL     1      26.959  39.297  48.999  1.00  0.00     0.048 C 
BRANCH  19  20
HETATM   20  C   UNL     1      27.121  37.784  49.166  1.00  0.00     0.235 C 
BRANCH  20  21
HETATM   21  N   UNL     1      28.425  37.298  48.557  1.00  0.00    -0.079 N 
HETATM   22  C   UNL     1      29.660  38.017  49.059  1.00  0.00     0.269 C 
HETATM   23  H   UNL     1      28.560  36.302  48.782  1.00  0.00     0.278 HD
HETATM   24  C   UNL     1      28.386  37.353  47.040  1.00  0.00     0.269 C 
ENDBRANCH  20  21
ENDBRANCH  19  20
ENDBRANCH  18  19
ENDBRANCH   1  18
BRANCH  11  25
HETATM   25  C   UNL     1      26.520  45.109  52.159  1.00  0.00    -0.045 A 
HETATM   26  C   UNL     1      25.530  46.076  52.414  1.00  0.00     0.010 A 
HETATM   27  C   UNL     1      25.253  47.076  51.480  1.00  0.00     0.024 A 
HETATM   28  C   UNL     1      25.949  47.112  50.274  1.00  0.00     0.034 A 
HETATM   29 CL   UNL     1      25.619  48.352  49.133  1.00  0.00    -0.084 Cl
HETATM   30  C   UNL     1      26.910  46.145  49.989  1.00  0.00     0.024 A 
HETATM   31  C   UNL     1      27.191  45.143  50.922  1.00  0.00     0.010 A 
ENDBRANCH  11  25
BRANCH  13  32
HETATM   32  O   UNL     1      30.470  45.966  57.081  1.00  0.00    -0.361 OA
HETATM   33  H   UNL     1      30.027  46.663  57.592  1.00  0.00     0.217 HD
ENDBRANCH  13  32
TORSDOF 6
ENDMDL
MODEL 2
REMARK VINA RESULT:      -8.1      3.051      4.465
REMARK  6 active torsions:
REMARK  status: ('A' for Active; 'I' for Inactive)
REMARK    1  A    between atoms: N_2  and  C_4 
REMARK    2  A    between atoms: C_4  and  C_5 
REMARK    3  A    between atoms: C_5  and  C_6 
REMARK    4  A    between atoms: C_6  and  N_7 
REMARK    5  A    between atoms: C_17  and  C_18 
REMARK    6  A    between atoms: C_26  and  O_27 
ROOT
HETATM    1  N   UNL     1      24.090  42.774  49.930  1.00  0.00    -0.327 N 
HETATM    2  C   UNL     1      24.013  44.034  50.385  1.00  0.00     0.113 C 
HETATM    3  N   UNL     1      23.080  44.898  50.024  1.00  0.00    -0.385 N 
HETATM    4  H   UNL     1      23.070  45.852  50.367  1.00  0.00     0.157 HD
HETATM    5  H   UNL     1      22.383  44.724  49.316  1.00  0.00     0.157 HD
HETATM    6  C   UNL     1      25.056  44.471  51.372  1.00  0.00     0.052 C 
HETATM    7  C   UNL     1      26.018  43.593  51.713  1.00  0.00     0.182 C 
HETATM    8  O   UNL     1      27.014  43.884  52.632  1.00  0.00    -0.291 OA
HETATM    9  C   UNL     1      26.950  45.040  53.367  1.00  0.00     0.087 A 
HETATM   10  C   UNL     1      26.010  46.037  53.104  1.00  0.00    -0.011 A 
HETATM   11  C   UNL     1      25.047  45.873  51.952  1.00  0.00     0.095 C 
HETATM   12  C   UNL     1      27.880  45.176  54.399  1.00  0.00     0.074 A 
HETATM   13  C   UNL     1      27.854  46.321  55.186  1.00  0.00     0.068 A 
HETATM   14  C   UNL     1      26.917  47.321  54.956  1.00  0.00     0.037 A 
HETATM   15  C   UNL     1      25.996  47.183  53.917  1.00  0.00     0.014 A 
HETATM   16  N   UNL     1      26.131  42.363  51.134  1.00  0.00    -0.219 NA
HETATM   17  C   UNL     1      25.253  42.003  50.277  1.00  0.00     0.214 C 
ENDROOT
BRANCH   1  18
HETATM   18  C   UNL     1      23.123  42.221  48.945  1.00  0.00     0.133 C 
BRANCH  18  19
HETATM   19  C   UNL     1      23.594  42.170  47.479  1.00  0.00     0.048 C 
BRANCH  19  20
HETATM   20  C   UNL     1      23.304  43.441  46.678  1.00  0.00     0.235 C 
BRANCH  20  21
HETATM   21  N   UNL     1      21.866  43.894  46.863  1.00  0.00    -0.079 N 
HETATM   22  C   UNL     1      20.849  43.094  46.077  1.00  0.00     0.269 C 
HETATM   23  H   UNL     1      21.601  43.803  47.855  1.00  0.00     0.278 HD
HETATM   24  C   UNL     1      21.703  45.371  46.551  1.00  0.00     0.269 C 
ENDBRANCH  20  21
ENDBRANCH  19  20
ENDBRANCH  18  19
ENDBRANCH   1  18
BRANCH  11  25
HETATM   25  C   UNL     1      25.287  46.929  50.869  1.00  0.00    -0.045 A 
HETATM   26  C   UNL     1      24.223  47.669  50.321  1.00  0.00     0.010 A 
HETATM   27  C   UNL     1      24.457  48.641  49.347  1.00  0.00     0.024 A 
HETATM   28  C   UNL     1      25.754  48.872  48.896  1.00  0.00     0.034 A 
HETATM   29 CL   UNL     1      26.043  50.080  47.709  1.00  0.00    -0.084 Cl
HETATM   30  C   UNL     1      26.817  48.128  49.401  1.00  0.00     0.024 A 
HETATM   31  C   UNL     1      26.586  47.155  50.378  1.00  0.00     0.010 A 
ENDBRANCH  11  25
BRANCH  13  32
HETATM   32  O   UNL     1      28.735  46.510  56.207  1.00  0.00    -0.361 OA
HETATM   33  H   UNL     1      28.307  47.002  56.927  1.00  0.00     0.217 HD
ENDBRANCH  13  32
TORSDOF 6
ENDMDL
MODEL 3
REMARK VINA RESULT:      -8.1      1.538      1.772
REMARK  6 active torsions:
REMARK  status: ('A' for Active; 'I' for Inactive)
REMARK    1  A    between atoms: N_2  and  C_4 
REMARK    2  A    between atoms: C_4  and  C_5 
REMARK    3  A    between atoms: C_5  and  C_6 
REMARK    4  A    between atoms: C_6  and  N_7 
REMARK    5  A    between atoms: C_17  and  C_18 
REMARK    6  A    between atoms: C_26  and  O_27 
ROOT
HETATM    1  N   UNL     1      26.079  40.945  49.755  1.00  0.00    -0.327 N 
HETATM    2  C   UNL     1      25.821  42.023  50.511  1.00  0.00     0.113 C 
HETATM    3  N   UNL     1      24.676  42.683  50.495  1.00  0.00    -0.385 N 
HETATM    4  H   UNL     1      24.526  43.512  51.060  1.00  0.00     0.157 HD
HETATM    5  H   UNL     1      23.916  42.494  49.860  1.00  0.00     0.157 HD
HETATM    6  C   UNL     1      26.908  42.488  51.435  1.00  0.00     0.052 C 
HETATM    7  C   UNL     1      28.080  41.826  51.424  1.00  0.00     0.182 C 
HETATM    8  O   UNL     1      29.142  42.155  52.252  1.00  0.00    -0.291 OA
HETATM    9  C   UNL     1      28.969  43.079  53.251  1.00  0.00     0.087 A 
HETATM   10  C   UNL     1      27.807  43.844  53.363  1.00  0.00    -0.011 A 
HETATM   11  C   UNL     1      26.708  43.691  52.337  1.00  0.00     0.095 C 
HETATM   12  C   UNL     1      30.020  43.224  54.158  1.00  0.00     0.074 A 
HETATM   13  C   UNL     1      29.895  44.135  55.199  1.00  0.00     0.068 A 
HETATM   14  C   UNL     1      28.741  44.897  55.342  1.00  0.00     0.037 A 
HETATM   15  C   UNL     1      27.698  44.754  54.427  1.00  0.00     0.014 A 
HETATM   16  N   UNL     1      28.345  40.811  50.551  1.00  0.00    -0.219 NA
HETATM   17  C   UNL     1      27.422  40.431  49.751  1.00  0.00     0.214 C 
ENDROOT
BRANCH   1  18
HETATM   18  C   UNL     1      25.089  40.388  48.795  1.00  0.00     0.133 C 
BRANCH  18  19
HETATM   19  C   UNL     1      25.391  40.601  47.300  1.00  0.00     0.048 C 
BRANCH  19  20
HETATM   20  C   UNL     1      25.731  39.319  46.536  1.00  0.00     0.235 C 
BRANCH  20  21
HETATM   21  N   UNL     1      27.145  39.366  45.981  1.00  0.00    -0.079 N 
HETATM   22  C   UNL     1      28.093  38.354  46.589  1.00  0.00     0.269 C 
HETATM   23  H   UNL     1      27.125  39.171  44.969  1.00  0.00     0.278 HD
HETATM   24  C   UNL     1      27.743  40.757  46.098  1.00  0.00     0.269 C 
ENDBRANCH  20  21
ENDBRANCH  19  20
ENDBRANCH  18  19
ENDBRANCH   1  18
BRANCH  11  25
HETATM   25  C   UNL     1      26.519  44.976  51.526  1.00  0.00    -0.045 A 
HETATM   26  C   UNL     1      25.592  45.959  51.920  1.00  0.00     0.010 A 
HETATM   27  C   UNL     1      25.441  47.134  51.181  1.00  0.00     0.024 A 
HETATM   28  C   UNL     1      26.200  47.332  50.031  1.00  0.00     0.034 A 
HETATM   29 CL   UNL     1      26.026  48.785  49.132  1.00  0.00    -0.084 Cl
HETATM   30  C   UNL     1      27.099  46.358  49.605  1.00  0.00     0.024 A 
HETATM   31  C   UNL     1      27.254  45.181  50.344  1.00  0.00     0.010 A 
ENDBRANCH  11  25
BRANCH  13  32
HETATM   32  O   UNL     1      30.886  44.319  56.114  1.00  0.00    -0.361 OA
HETATM   33  H   UNL     1      30.565  44.876  56.843  1.00  0.00     0.217 HD
ENDBRANCH  13  32
TORSDOF 6
ENDMDL
MODEL 4
REMARK VINA RESULT:      -8.1      7.129     10.336
REMARK  6 active torsions:
REMARK  status: ('A' for Active; 'I' for Inactive)
REMARK    1  A    between atoms: N_2  and  C_4 
REMARK    2  A    between atoms: C_4  and  C_5 
REMARK    3  A    between atoms: C_5  and  C_6 
REMARK    4  A    between atoms: C_6  and  N_7 
REMARK    5  A    between atoms: C_17  and  C_18 
REMARK    6  A    between atoms: C_26  and  O_27 
ROOT
HETATM    1  N   UNL     1      24.426  48.661  48.968  1.00  0.00    -0.327 N 
HETATM    2  C   UNL     1      23.177  48.242  49.221  1.00  0.00     0.113 C 
HETATM    3  N   UNL     1      22.875  47.029  49.650  1.00  0.00    -0.385 N 
HETATM    4  H   UNL     1      21.915  46.737  49.804  1.00  0.00     0.157 HD
HETATM    5  H   UNL     1      23.538  46.277  49.752  1.00  0.00     0.157 HD
HETATM    6  C   UNL     1      22.067  49.229  49.009  1.00  0.00     0.052 C 
HETATM    7  C   UNL     1      22.382  50.453  48.547  1.00  0.00     0.182 C 
HETATM    8  O   UNL     1      21.439  51.447  48.338  1.00  0.00    -0.291 OA
HETATM    9  C   UNL     1      20.149  51.267  48.767  1.00  0.00     0.087 A 
HETATM   10  C   UNL     1      19.691  50.042  49.252  1.00  0.00    -0.011 A 
HETATM   11  C   UNL     1      20.622  48.852  49.279  1.00  0.00     0.095 C 
HETATM   12  C   UNL     1      19.304  52.377  48.692  1.00  0.00     0.074 A 
HETATM   13  C   UNL     1      17.990  52.257  49.125  1.00  0.00     0.068 A 
HETATM   14  C   UNL     1      17.514  51.052  49.628  1.00  0.00     0.037 A 
HETATM   15  C   UNL     1      18.361  49.945  49.693  1.00  0.00     0.014 A 
HETATM   16  N   UNL     1      23.651  50.800  48.184  1.00  0.00    -0.219 NA
HETATM   17  C   UNL     1      24.591  49.948  48.347  1.00  0.00     0.214 C 
ENDROOT
BRANCH   1  18
HETATM   18  C   UNL     1      25.612  47.780  49.131  1.00  0.00     0.133 C 
BRANCH  18  19
HETATM   19  C   UNL     1      26.396  47.925  50.449  1.00  0.00     0.048 C 
BRANCH  19  20
HETATM   20  C   UNL     1      26.013  46.908  51.526  1.00  0.00     0.235 C 
BRANCH  20  21
HETATM   21  N   UNL     1      25.746  45.539  50.923  1.00  0.00    -0.079 N 
HETATM   22  C   UNL     1      24.733  44.705  51.678  1.00  0.00     0.269 C 
HETATM   23  H   UNL     1      25.374  45.650  49.968  1.00  0.00     0.278 HD
HETATM   24  C   UNL     1      27.030  44.747  50.750  1.00  0.00     0.269 C 
ENDBRANCH  20  21
ENDBRANCH  19  20
ENDBRANCH  18  19
ENDBRANCH   1  18
BRANCH  11  25
HETATM   25  C   UNL     1      20.144  47.748  48.331  1.00  0.00    -0.045 A 
HETATM   26  C   UNL     1      20.238  47.893  46.935  1.00  0.00     0.010 A 
HETATM   27  C   UNL     1      19.814  46.872  46.082  1.00  0.00     0.024 A 
HETATM   28  C   UNL     1      19.275  45.703  46.613  1.00  0.00     0.034 A 
HETATM   29 CL   UNL     1      18.769  44.441  45.564  1.00  0.00    -0.084 Cl
HETATM   30  C   UNL     1      19.143  45.554  47.991  1.00  0.00     0.024 A 
HETATM   31  C   UNL     1      19.568  46.573  48.848  1.00  0.00     0.010 A 
ENDBRANCH  11  25
BRANCH  13  32
HETATM   32  O   UNL     1      17.120  53.303  49.076  1.00  0.00    -0.361 OA
HETATM   33  H   UNL     1      16.217  52.992  49.254  1.00  0.00     0.217 HD
ENDBRANCH  13  32
TORSDOF 6
ENDMDL
MODEL 5
REMARK VINA RESULT:      -8.1      2.405      3.115
REMARK  6 active torsions:
REMARK  status: ('A' for Active; 'I' for Inactive)
REMARK    1  A    between atoms: N_2  and  C_4 
REMARK    2  A    between atoms: C_4  and  C_5 
REMARK    3  A    between atoms: C_5  and  C_6 
REMARK    4  A    between atoms: C_6  and  N_7 
REMARK    5  A    between atoms: C_17  and  C_18 
REMARK    6  A    between atoms: C_26  and  O_27 
ROOT
HETATM    1  N   UNL     1      25.998  40.958  49.645  1.00  0.00    -0.327 N 
HETATM    2  C   UNL     1      25.759  42.012  50.439  1.00  0.00     0.113 C 
HETATM    3  N   UNL     1      24.611  42.667  50.477  1.00  0.00    -0.385 N 
HETATM    4  H   UNL     1      24.475  43.479  51.070  1.00  0.00     0.157 HD
HETATM    5  H   UNL     1      23.832  42.492  49.861  1.00  0.00     0.157 HD
HETATM    6  C   UNL     1      26.872  42.457  51.342  1.00  0.00     0.052 C 
HETATM    7  C   UNL     1      28.046  41.801  51.277  1.00  0.00     0.182 C 
HETATM    8  O   UNL     1      29.131  42.113  52.081  1.00  0.00    -0.291 OA
HETATM    9  C   UNL     1      28.985  43.007  53.110  1.00  0.00     0.087 A 
HETATM   10  C   UNL     1      27.824  43.763  53.279  1.00  0.00    -0.011 A 
HETATM   11  C   UNL     1      26.694  43.633  52.284  1.00  0.00     0.095 C 
HETATM   12  C   UNL     1      30.063  43.132  53.988  1.00  0.00     0.074 A 
HETATM   13  C   UNL     1      29.966  44.013  55.058  1.00  0.00     0.068 A 
HETATM   14  C   UNL     1      28.814  44.764  55.258  1.00  0.00     0.037 A 
HETATM   15  C   UNL     1      27.743  44.642  54.372  1.00  0.00     0.014 A 
HETATM   16  N   UNL     1      28.288  40.813  50.368  1.00  0.00    -0.219 NA
HETATM   17  C   UNL     1      27.343  40.451  49.585  1.00  0.00     0.214 C 
ENDROOT
BRANCH   1  18
HETATM   18  C   UNL     1      24.982  40.423  48.701  1.00  0.00     0.133 C 
BRANCH  18  19
HETATM   19  C   UNL     1      24.995  41.010  47.277  1.00  0.00     0.048 C 
BRANCH  19  20
HETATM   20  C   UNL     1      23.840  41.968  46.978  1.00  0.00     0.235 C 
BRANCH  20  21
HETATM   21  N   UNL     1      24.118  42.797  45.736  1.00  0.00    -0.079 N 
HETATM   22  C   UNL     1      23.191  43.979  45.548  1.00  0.00     0.269 C 
HETATM   23  H   UNL     1      25.072  43.185  45.787  1.00  0.00     0.278 HD
HETATM   24  C   UNL     1      24.112  41.941  44.482  1.00  0.00     0.269 C 
ENDBRANCH  20  21
ENDBRANCH  19  20
ENDBRANCH  18  19
ENDBRANCH   1  18
BRANCH  11  25
HETATM   25  C   UNL     1      26.474  44.939  51.515  1.00  0.00    -0.045 A 
HETATM   26  C   UNL     1      25.536  45.894  51.950  1.00  0.00     0.010 A 
HETATM   27  C   UNL     1      25.357  47.088  51.250  1.00  0.00     0.024 A 
HETATM   28  C   UNL     1      26.100  47.335  50.099  1.00  0.00     0.034 A 
HETATM   29 CL   UNL     1      25.891  48.812  49.248  1.00  0.00    -0.084 Cl
HETATM   30  C   UNL     1      27.010  46.390  49.633  1.00  0.00     0.024 A 
HETATM   31  C   UNL     1      27.193  45.193  50.332  1.00  0.00     0.010 A 
ENDBRANCH  11  25
BRANCH  13  32
HETATM   32  O   UNL     1      30.984  44.177  55.947  1.00  0.00    -0.361 OA
HETATM   33  H   UNL     1      30.627  44.420  56.817  1.00  0.00     0.217 HD
ENDBRANCH  13  32
TORSDOF 6
ENDMDL
MODEL 6
REMARK VINA RESULT:      -7.9      4.026      7.787
REMARK  6 active torsions:
REMARK  status: ('A' for Active; 'I' for Inactive)
REMARK    1  A    between atoms: N_2  and  C_4 
REMARK    2  A    between atoms: C_4  and  C_5 
REMARK    3  A    between atoms: C_5  and  C_6 
REMARK    4  A    between atoms: C_6  and  N_7 
REMARK    5  A    between atoms: C_17  and  C_18 
REMARK    6  A    between atoms: C_26  and  O_27 
ROOT
HETATM    1  N   UNL     1      26.420  45.675  53.920  1.00  0.00    -0.327 N 
HETATM    2  C   UNL     1      25.718  44.823  53.159  1.00  0.00     0.113 C 
HETATM    3  N   UNL     1      25.529  43.548  53.454  1.00  0.00    -0.385 N 
HETATM    4  H   UNL     1      25.015  42.925  52.840  1.00  0.00     0.157 HD
HETATM    5  H   UNL     1      25.956  43.072  54.233  1.00  0.00     0.157 HD
HETATM    6  C   UNL     1      25.107  45.369  51.902  1.00  0.00     0.052 C 
HETATM    7  C   UNL     1      25.327  46.661  51.596  1.00  0.00     0.182 C 
HETATM    8  O   UNL     1      24.793  47.274  50.474  1.00  0.00    -0.291 OA
HETATM    9  C   UNL     1      23.862  46.615  49.714  1.00  0.00     0.087 A 
HETATM   10  C   UNL     1      23.554  45.269  49.917  1.00  0.00    -0.011 A 
HETATM   11  C   UNL     1      24.287  44.486  50.982  1.00  0.00     0.095 C 
HETATM   12  C   UNL     1      23.232  47.357  48.713  1.00  0.00     0.074 A 
HETATM   13  C   UNL     1      22.270  46.745  47.920  1.00  0.00     0.068 A 
HETATM   14  C   UNL     1      21.932  45.411  48.114  1.00  0.00     0.037 A 
HETATM   15  C   UNL     1      22.571  44.671  49.110  1.00  0.00     0.014 A 
HETATM   16  N   UNL     1      26.150  47.463  52.333  1.00  0.00    -0.219 NA
HETATM   17  C   UNL     1      26.686  46.986  53.393  1.00  0.00     0.214 C 
ENDROOT
BRANCH   1  18
HETATM   18  C   UNL     1      27.081  45.258  55.185  1.00  0.00     0.133 C 
BRANCH  18  19
HETATM   19  C   UNL     1      28.604  45.039  55.123  1.00  0.00     0.048 C 
BRANCH  19  20
HETATM   20  C   UNL     1      29.414  45.978  56.020  1.00  0.00     0.235 C 
BRANCH  20  21
HETATM   21  N   UNL     1      30.634  45.277  56.593  1.00  0.00    -0.079 N 
HETATM   22  C   UNL     1      30.873  43.885  56.048  1.00  0.00     0.269 C 
HETATM   23  H   UNL     1      31.480  45.822  56.371  1.00  0.00     0.278 HD
HETATM   24  C   UNL     1      30.587  45.229  58.110  1.00  0.00     0.269 C 
ENDBRANCH  20  21
ENDBRANCH  19  20
ENDBRANCH  18  19
ENDBRANCH   1  18
BRANCH  11  25
HETATM   25  C   UNL     1      25.138  43.371  50.367  1.00  0.00    -0.045 A 
HETATM   26  C   UNL     1      24.708  42.031  50.381  1.00  0.00     0.010 A 
HETATM   27  C   UNL     1      25.486  41.027  49.802  1.00  0.00     0.024 A 
HETATM   28  C   UNL     1      26.710  41.346  49.220  1.00  0.00     0.034 A 
HETATM   29 CL   UNL     1      27.658  40.112  48.493  1.00  0.00    -0.084 Cl
HETATM   30  C   UNL     1      27.169  42.661  49.224  1.00  0.00     0.024 A 
HETATM   31  C   UNL     1      26.392  43.669  49.801  1.00  0.00     0.010 A 
ENDBRANCH  11  25
BRANCH  13  32
HETATM   32  O   UNL     1      21.622  47.418  46.929  1.00  0.00    -0.361 OA
HETATM   33  H   UNL     1      22.266  47.777  46.297  1.00  0.00     0.217 HD
ENDBRANCH  13  32
TORSDOF 6
ENDMDL
MODEL 7
REMARK VINA RESULT:      -7.9     15.983     19.294
REMARK  6 active torsions:
REMARK  status: ('A' for Active; 'I' for Inactive)
REMARK    1  A    between atoms: N_2  and  C_4 
REMARK    2  A    between atoms: C_4  and  C_5 
REMARK    3  A    between atoms: C_5  and  C_6 
REMARK    4  A    between atoms: C_6  and  N_7 
REMARK    5  A    between atoms: C_17  and  C_18 
REMARK    6  A    between atoms: C_26  and  O_27 
ROOT
HETATM    1  N   UNL     1      37.504  46.610  65.266  1.00  0.00    -0.327 N 
HETATM    2  C   UNL     1      38.515  45.825  65.665  1.00  0.00     0.113 C 
HETATM    3  N   UNL     1      39.280  46.077  66.713  1.00  0.00    -0.385 N 
HETATM    4  H   UNL     1      40.056  45.476  66.970  1.00  0.00     0.157 HD
HETATM    5  H   UNL     1      39.233  46.920  67.266  1.00  0.00     0.157 HD
HETATM    6  C   UNL     1      38.773  44.581  64.868  1.00  0.00     0.052 C 
HETATM    7  C   UNL     1      38.007  44.345  63.787  1.00  0.00     0.182 C 
HETATM    8  O   UNL     1      38.144  43.217  62.994  1.00  0.00    -0.291 OA
HETATM    9  C   UNL     1      38.969  42.197  63.393  1.00  0.00     0.087 A 
HETATM   10  C   UNL     1      39.826  42.320  64.488  1.00  0.00    -0.011 A 
HETATM   11  C   UNL     1      39.888  43.624  65.248  1.00  0.00     0.095 C 
HETATM   12  C   UNL     1      38.916  41.020  62.645  1.00  0.00     0.074 A 
HETATM   13  C   UNL     1      39.720  39.948  63.011  1.00  0.00     0.068 A 
HETATM   14  C   UNL     1      40.570  40.039  64.107  1.00  0.00     0.037 A 
HETATM   15  C   UNL     1      40.625  41.221  64.846  1.00  0.00     0.014 A 
HETATM   16  N   UNL     1      37.069  45.232  63.342  1.00  0.00    -0.219 NA
HETATM   17  C   UNL     1      36.866  46.302  64.014  1.00  0.00     0.214 C 
ENDROOT
BRANCH   1  18
HETATM   18  C   UNL     1      37.149  47.873  65.965  1.00  0.00     0.133 C 
BRANCH  18  19
HETATM   19  C   UNL     1      37.489  49.182  65.229  1.00  0.00     0.048 C 
BRANCH  19  20
HETATM   20  C   UNL     1      38.921  49.676  65.448  1.00  0.00     0.235 C 
BRANCH  20  21
HETATM   21  N   UNL     1      38.963  50.815  66.453  1.00  0.00    -0.079 N 
HETATM   22  C   UNL     1      39.088  50.375  67.897  1.00  0.00     0.269 C 
HETATM   23  H   UNL     1      39.782  51.412  66.262  1.00  0.00     0.278 HD
HETATM   24  C   UNL     1      37.765  51.736  66.303  1.00  0.00     0.269 C 
ENDBRANCH  20  21
ENDBRANCH  19  20
ENDBRANCH  18  19
ENDBRANCH   1  18
BRANCH  11  25
HETATM   25  C   UNL     1      41.264  44.284  65.113  1.00  0.00    -0.045 A 
HETATM   26  C   UNL     1      42.164  44.324  66.194  1.00  0.00     0.010 A 
HETATM   27  C   UNL     1      43.422  44.913  66.054  1.00  0.00     0.024 A 
HETATM   28  C   UNL     1      43.788  45.484  64.838  1.00  0.00     0.034 A 
HETATM   29 CL   UNL     1      45.342  46.194  64.661  1.00  0.00    -0.084 Cl
HETATM   30  C   UNL     1      42.900  45.484  63.765  1.00  0.00     0.024 A 
HETATM   31  C   UNL     1      41.640  44.893  63.902  1.00  0.00     0.010 A 
ENDBRANCH  11  25
BRANCH  13  32
HETATM   32  O   UNL     1      39.711  38.775  62.320  1.00  0.00    -0.361 OA
HETATM   33  H   UNL     1      40.403  38.787  61.639  1.00  0.00     0.217 HD
ENDBRANCH  13  32
TORSDOF 6
ENDMDL
MODEL 8
REMARK VINA RESULT:      -7.8      3.867      7.827
REMARK  6 active torsions:
REMARK  status: ('A' for Active; 'I' for Inactive)
REMARK    1  A    between atoms: N_2  and  C_4 
REMARK    2  A    between atoms: C_4  and  C_5 
REMARK    3  A    between atoms: C_5  and  C_6 
REMARK    4  A    between atoms: C_6  and  N_7 
REMARK    5  A    between atoms: C_17  and  C_18 
REMARK    6  A    between atoms: C_26  and  O_27 
ROOT
HETATM    1  N   UNL     1      28.007  42.956  53.156  1.00  0.00    -0.327 N 
HETATM    2  C   UNL     1      27.330  42.030  52.459  1.00  0.00     0.113 C 
HETATM    3  N   UNL     1      27.341  40.738  52.737  1.00  0.00    -0.385 N 
HETATM    4  H   UNL     1      26.840  40.062  52.171  1.00  0.00     0.157 HD
HETATM    5  H   UNL     1      27.918  40.310  53.446  1.00  0.00     0.157 HD
HETATM    6  C   UNL     1      26.507  42.510  51.301  1.00  0.00     0.052 C 
HETATM    7  C   UNL     1      26.523  43.824  51.008  1.00  0.00     0.182 C 
HETATM    8  O   UNL     1      25.782  44.378  49.976  1.00  0.00    -0.291 OA
HETATM    9  C   UNL     1      24.856  43.614  49.313  1.00  0.00     0.087 A 
HETATM   10  C   UNL     1      24.748  42.237  49.513  1.00  0.00    -0.011 A 
HETATM   11  C   UNL     1      25.698  41.541  50.459  1.00  0.00     0.095 C 
HETATM   12  C   UNL     1      24.020  44.283  48.417  1.00  0.00     0.074 A 
HETATM   13  C   UNL     1      23.054  43.562  47.726  1.00  0.00     0.068 A 
HETATM   14  C   UNL     1      22.914  42.193  47.921  1.00  0.00     0.037 A 
HETATM   15  C   UNL     1      23.758  41.529  48.811  1.00  0.00     0.014 A 
HETATM   16  N   UNL     1      27.321  44.715  51.665  1.00  0.00    -0.219 NA
HETATM   17  C   UNL     1      28.038  44.297  52.639  1.00  0.00     0.214 C 
ENDROOT
BRANCH   1  18
HETATM   18  C   UNL     1      28.864  42.610  54.320  1.00  0.00     0.133 C 
BRANCH  18  19
HETATM   19  C   UNL     1      30.086  43.515  54.564  1.00  0.00     0.048 C 
BRANCH  19  20
HETATM   20  C   UNL     1      29.861  44.612  55.606  1.00  0.00     0.235 C 
BRANCH  20  21
HETATM   21  N   UNL     1      30.960  44.611  56.655  1.00  0.00    -0.079 N 
HETATM   22  C   UNL     1      31.466  43.235  57.033  1.00  0.00     0.269 C 
HETATM   23  H   UNL     1      31.776  45.130  56.300  1.00  0.00     0.278 HD
HETATM   24  C   UNL     1      30.537  45.359  57.907  1.00  0.00     0.269 C 
ENDBRANCH  20  21
ENDBRANCH  19  20
ENDBRANCH  18  19
ENDBRANCH   1  18
BRANCH  11  25
HETATM   25  C   UNL     1      26.602  40.554  49.715  1.00  0.00    -0.045 A 
HETATM   26  C   UNL     1      26.426  39.164  49.841  1.00  0.00     0.010 A 
HETATM   27  C   UNL     1      27.246  38.274  49.144  1.00  0.00     0.024 A 
HETATM   28  C   UNL     1      28.263  38.763  48.329  1.00  0.00     0.034 A 
HETATM   29 CL   UNL     1      29.261  37.668  47.459  1.00  0.00    -0.084 Cl
HETATM   30  C   UNL     1      28.476  40.134  48.216  1.00  0.00     0.024 A 
HETATM   31  C   UNL     1      27.656  41.027  48.911  1.00  0.00     0.010 A 
ENDBRANCH  11  25
BRANCH  13  32
HETATM   32  O   UNL     1      22.210  44.159  46.841  1.00  0.00    -0.361 OA
HETATM   33  H   UNL     1      21.408  43.621  46.732  1.00  0.00     0.217 HD
ENDBRANCH  13  32
TORSDOF 6
ENDMDL
MODEL 9
REMARK VINA RESULT:      -7.8      2.514      3.437
REMARK  6 active torsions:
REMARK  status: ('A' for Active; 'I' for Inactive)
REMARK    1  A    between atoms: N_2  and  C_4 
REMARK    2  A    between atoms: C_4  and  C_5 
REMARK    3  A    between atoms: C_5  and  C_6 
REMARK    4  A    between atoms: C_6  and  N_7 
REMARK    5  A    between atoms: C_17  and  C_18 
REMARK    6  A    between atoms: C_26  and  O_27 
ROOT
HETATM    1  N   UNL     1      24.130  42.839  49.781  1.00  0.00    -0.327 N 
HETATM    2  C   UNL     1      24.038  44.091  50.254  1.00  0.00     0.113 C 
HETATM    3  N   UNL     1      23.107  44.955  49.888  1.00  0.00    -0.385 N 
HETATM    4  H   UNL     1      23.085  45.905  50.245  1.00  0.00     0.157 HD
HETATM    5  H   UNL     1      22.425  44.789  49.164  1.00  0.00     0.157 HD
HETATM    6  C   UNL     1      25.059  44.517  51.268  1.00  0.00     0.052 C 
HETATM    7  C   UNL     1      26.019  43.640  51.613  1.00  0.00     0.182 C 
HETATM    8  O   UNL     1      26.996  43.920  52.556  1.00  0.00    -0.291 OA
HETATM    9  C   UNL     1      26.911  45.064  53.307  1.00  0.00     0.087 A 
HETATM   10  C   UNL     1      25.972  46.061  53.042  1.00  0.00    -0.011 A 
HETATM   11  C   UNL     1      25.032  45.910  51.868  1.00  0.00     0.095 C 
HETATM   12  C   UNL     1      27.821  45.190  54.359  1.00  0.00     0.074 A 
HETATM   13  C   UNL     1      27.774  46.322  55.163  1.00  0.00     0.068 A 
HETATM   14  C   UNL     1      26.836  47.320  54.930  1.00  0.00     0.037 A 
HETATM   15  C   UNL     1      25.935  47.193  53.872  1.00  0.00     0.014 A 
HETATM   16  N   UNL     1      26.150  42.419  51.018  1.00  0.00    -0.219 NA
HETATM   17  C   UNL     1      25.290  42.068  50.138  1.00  0.00     0.214 C 
ENDROOT
BRANCH   1  18
HETATM   18  C   UNL     1      23.185  42.296  48.769  1.00  0.00     0.133 C 
BRANCH  18  19
HETATM   19  C   UNL     1      23.617  42.418  47.295  1.00  0.00     0.048 C 
BRANCH  19  20
HETATM   20  C   UNL     1      23.950  41.084  46.623  1.00  0.00     0.235 C 
BRANCH  20  21
HETATM   21  N   UNL     1      25.451  40.849  46.578  1.00  0.00    -0.079 N 
HETATM   22  C   UNL     1      26.025  40.721  45.183  1.00  0.00     0.269 C 
HETATM   23  H   UNL     1      25.937  41.643  47.019  1.00  0.00     0.278 HD
HETATM   24  C   UNL     1      25.850  39.640  47.405  1.00  0.00     0.269 C 
ENDBRANCH  20  21
ENDBRANCH  19  20
ENDBRANCH  18  19
ENDBRANCH   1  18
BRANCH  11  25
HETATM   25  C   UNL     1      25.287  46.984  50.807  1.00  0.00    -0.045 A 
HETATM   26  C   UNL     1      26.590  47.278  50.364  1.00  0.00     0.010 A 
HETATM   27  C   UNL     1      26.808  48.247  49.383  1.00  0.00     0.024 A 
HETATM   28  C   UNL     1      25.730  48.947  48.848  1.00  0.00     0.034 A 
HETATM   29 CL   UNL     1      25.998  50.128  47.630  1.00  0.00    -0.084 Cl
HETATM   30  C   UNL     1      24.436  48.695  49.296  1.00  0.00     0.024 A 
HETATM   31  C   UNL     1      24.214  47.724  50.277  1.00  0.00     0.010 A 
ENDBRANCH  11  25
BRANCH  13  32
HETATM   32  O   UNL     1      28.634  46.499  56.203  1.00  0.00    -0.361 OA
HETATM   33  H   UNL     1      29.537  46.269  55.929  1.00  0.00     0.217 HD
ENDBRANCH  13  32
TORSDOF 6
ENDMDL
MODEL 10
REMARK VINA RESULT:      -7.5     13.540     15.881
REMARK  6 active torsions:
REMARK  status: ('A' for Active; 'I' for Inactive)
REMARK    1  A    between atoms: N_2  and  C_4 
REMARK    2  A    between atoms: C_4  and  C_5 
REMARK    3  A    between atoms: C_5  and  C_6 
REMARK    4  A    between atoms: C_6  and  N_7 
REMARK    5  A    between atoms: C_17  and  C_18 
REMARK    6  A    between atoms: C_26  and  O_27 
ROOT
HETATM    1  N   UNL     1      30.653  50.726  38.736  1.00  0.00    -0.327 N 
HETATM    2  C   UNL     1      30.064  49.648  39.276  1.00  0.00     0.113 C 
HETATM    3  N   UNL     1      30.710  48.703  39.936  1.00  0.00    -0.385 N 
HETATM    4  H   UNL     1      30.236  47.886  40.307  1.00  0.00     0.157 HD
HETATM    5  H   UNL     1      31.713  48.655  40.031  1.00  0.00     0.157 HD
HETATM    6  C   UNL     1      28.576  49.529  39.120  1.00  0.00     0.052 C 
HETATM    7  C   UNL     1      27.931  50.483  38.423  1.00  0.00     0.182 C 
HETATM    8  O   UNL     1      26.557  50.483  38.237  1.00  0.00    -0.291 OA
HETATM    9  C   UNL     1      25.775  49.586  38.918  1.00  0.00     0.087 A 
HETATM   10  C   UNL     1      26.320  48.540  39.663  1.00  0.00    -0.011 A 
HETATM   11  C   UNL     1      27.819  48.352  39.704  1.00  0.00     0.095 C 
HETATM   12  C   UNL     1      24.393  49.765  38.826  1.00  0.00     0.074 A 
HETATM   13  C   UNL     1      23.551  48.894  39.506  1.00  0.00     0.068 A 
HETATM   14  C   UNL     1      24.070  47.855  40.269  1.00  0.00     0.037 A 
HETATM   15  C   UNL     1      25.451  47.675  40.350  1.00  0.00     0.014 A 
HETATM   16  N   UNL     1      28.582  51.497  37.784  1.00  0.00    -0.219 NA
HETATM   17  C   UNL     1      29.853  51.583  37.903  1.00  0.00     0.214 C 
ENDROOT
BRANCH   1  18
HETATM   18  C   UNL     1      32.119  50.958  38.815  1.00  0.00     0.133 C 
BRANCH  18  19
HETATM   19  C   UNL     1      32.579  52.145  39.683  1.00  0.00     0.048 C 
BRANCH  19  20
HETATM   20  C   UNL     1      32.317  51.970  41.181  1.00  0.00     0.235 C 
BRANCH  20  21
HETATM   21  N   UNL     1      31.241  52.926  41.668  1.00  0.00    -0.079 N 
HETATM   22  C   UNL     1      29.932  52.262  42.038  1.00  0.00     0.269 C 
HETATM   23  H   UNL     1      31.570  53.409  42.517  1.00  0.00     0.278 HD
HETATM   24  C   UNL     1      30.985  54.034  40.663  1.00  0.00     0.269 C 
ENDBRANCH  20  21
ENDBRANCH  19  20
ENDBRANCH  18  19
ENDBRANCH   1  18
BRANCH  11  25
HETATM   25  C   UNL     1      28.234  47.034  39.044  1.00  0.00    -0.045 A 
HETATM   26  C   UNL     1      28.150  46.857  37.651  1.00  0.00     0.010 A 
HETATM   27  C   UNL     1      28.548  45.656  37.059  1.00  0.00     0.024 A 
HETATM   28  C   UNL     1      29.016  44.613  37.854  1.00  0.00     0.034 A 
HETATM   29 CL   UNL     1      29.520  43.142  37.124  1.00  0.00    -0.084 Cl
HETATM   30  C   UNL     1      29.075  44.756  39.238  1.00  0.00     0.024 A 
HETATM   31  C   UNL     1      28.680  45.958  39.833  1.00  0.00     0.010 A 
ENDBRANCH  11  25
BRANCH  13  32
HETATM   32  O   UNL     1      22.197  49.019  39.455  1.00  0.00    -0.361 OA
HETATM   33  H   UNL     1      21.948  49.631  38.743  1.00  0.00     0.217 HD
ENDBRANCH  13  32
TORSDOF 6
ENDMDL
