MODEL 1
REMARK VINA RESULT:      -9.4      0.000      0.000
REMARK  8 active torsions:
REMARK  status: ('A' for Active; 'I' for Inactive)
REMARK    1  A    between atoms: C_10  and  C_11 
REMARK    2  A    between atoms: C_11  and  C_12 
REMARK       I    between atoms: C_12  and  N_13 
REMARK    3  A    between atoms: N_13  and  N_14 
REMARK       I    between atoms: N_14  and  C_15 
REMARK    4  A    between atoms: C_15  and  C_16 
REMARK    5  A    between atoms: C_16  and  C_17 
REMARK    6  A    between atoms: C_17  and  C_18 
REMARK       I    between atoms: C_18  and  N_19 
REMARK    7  A    between atoms: N_19  and  C_20 
REMARK    8  A    between atoms: C_20  and  C_21 
ROOT
HETATM    1  C   UNL     1      25.496  45.778  52.074  1.00  0.00     0.240 C 
HETATM    2  N   UNL     1      24.285  45.219  51.704  1.00  0.00    -0.267 N 
HETATM    3  O   UNL     1      26.376  46.026  51.248  1.00  0.00    -0.272 OA
HETATM    4  H   UNL     1      23.487  45.167  52.337  1.00  0.00     0.190 HD
ENDROOT
BRANCH   2   5
HETATM    5  N   UNL     1      23.998  45.152  50.332  1.00  0.00    -0.268 N 
HETATM    6  C   UNL     1      23.172  44.137  49.896  1.00  0.00     0.236 C 
HETATM    7  O   UNL     1      22.819  43.204  50.616  1.00  0.00    -0.272 OA
HETATM    8  H   UNL     1      24.086  46.035  49.825  1.00  0.00     0.190 HD
BRANCH   6   9
HETATM    9  C   UNL     1      22.714  44.311  48.463  1.00  0.00     0.114 C 
BRANCH   9  10
HETATM   10  C   UNL     1      21.463  45.173  48.364  1.00  0.00     0.112 C 
BRANCH  10  11
HETATM   11  C   UNL     1      21.764  46.521  47.746  1.00  0.00     0.218 C 
HETATM   12  N   UNL     1      21.834  47.552  48.648  1.00  0.00    -0.355 N 
HETATM   13  H   UNL     1      21.995  47.314  49.628  1.00  0.00     0.162 HD
HETATM   14  O   UNL     1      21.939  46.657  46.540  1.00  0.00    -0.274 OA
BRANCH  12  15
HETATM   15  C   UNL     1      22.198  48.882  48.222  1.00  0.00     0.187 C 
BRANCH  15  16
HETATM   16  C   UNL     1      23.656  49.058  48.415  1.00  0.00     0.070 A 
HETATM   17  O   UNL     1      24.289  49.928  47.575  1.00  0.00    -0.325 OA
HETATM   18  C   UNL     1      25.602  49.929  47.920  1.00  0.00     0.142 A 
HETATM   19  C   UNL     1      25.825  49.070  48.971  1.00  0.00     0.027 A 
HETATM   20  C   UNL     1      24.567  48.505  49.292  1.00  0.00     0.036 A 
ENDBRANCH  15  16
ENDBRANCH  12  15
ENDBRANCH  10  11
ENDBRANCH   9  10
ENDBRANCH   6   9
ENDBRANCH   2   5
BRANCH   1  21
HETATM   21  C   UNL     1      25.620  46.085  53.547  1.00  0.00     0.146 C 
BRANCH  21  22
HETATM   22  C   UNL     1      26.952  45.822  54.187  1.00  0.00    -0.015 A 
HETATM   23  C   UNL     1      27.776  44.639  54.187  1.00  0.00     0.000 A 
HETATM   24  C   UNL     1      27.678  43.356  53.606  1.00  0.00     0.021 A 
HETATM   25  C   UNL     1      28.911  44.916  54.957  1.00  0.00     0.049 A 
HETATM   26  C   UNL     1      28.683  42.397  53.815  1.00  0.00    -0.061 A 
HETATM   27  C   UNL     1      28.593  41.046  53.166  1.00  0.00     0.048 C 
HETATM   28  C   UNL     1      29.798  42.725  54.587  1.00  0.00     0.015 A 
HETATM   29  C   UNL     1      29.945  43.988  55.186  1.00  0.00    -0.034 A 
HETATM   30  C   UNL     1      31.178  44.272  55.995  1.00  0.00     0.050 C 
HETATM   31  N   UNL     1      28.788  46.214  55.395  1.00  0.00    -0.358 N 
HETATM   32  H   UNL     1      29.473  46.684  55.967  1.00  0.00     0.166 HD
HETATM   33  C   UNL     1      27.621  46.771  54.952  1.00  0.00     0.013 A 
HETATM   34  C   UNL     1      27.255  48.171  55.297  1.00  0.00     0.068 C 
ENDBRANCH  21  22
ENDBRANCH   1  21
TORSDOF 8
ENDMDL
MODEL 2
REMARK VINA RESULT:      -9.2      1.565      2.334
REMARK  8 active torsions:
REMARK  status: ('A' for Active; 'I' for Inactive)
REMARK    1  A    between atoms: C_10  and  C_11 
REMARK    2  A    between atoms: C_11  and  C_12 
REMARK       I    between atoms: C_12  and  N_13 
REMARK    3  A    between atoms: N_13  and  N_14 
REMARK       I    between atoms: N_14  and  C_15 
REMARK    4  A    between atoms: C_15  and  C_16 
REMARK    5  A    between atoms: C_16  and  C_17 
REMARK    6  A    between atoms: C_17  and  C_18 
REMARK       I    between atoms: C_18  and  N_19 
REMARK    7  A    between atoms: N_19  and  C_20 
REMARK    8  A    between atoms: C_20  and  C_21 
ROOT
HETATM    1  C   UNL     1      25.452  45.825  52.115  1.00  0.00     0.240 C 
HETATM    2  N   UNL     1      24.304  45.148  51.742  1.00  0.00    -0.267 N 
HETATM    3  O   UNL     1      26.276  46.211  51.286  1.00  0.00    -0.272 OA
HETATM    4  H   UNL     1      23.533  44.975  52.387  1.00  0.00     0.190 HD
ENDROOT
BRANCH   2   5
HETATM    5  N   UNL     1      23.992  45.113  50.374  1.00  0.00    -0.268 N 
HETATM    6  C   UNL     1      23.120  44.137  49.937  1.00  0.00     0.236 C 
HETATM    7  O   UNL     1      22.742  43.209  50.649  1.00  0.00    -0.272 OA
HETATM    8  H   UNL     1      24.107  45.999  49.878  1.00  0.00     0.190 HD
BRANCH   6   9
HETATM    9  C   UNL     1      22.646  44.351  48.515  1.00  0.00     0.114 C 
BRANCH   9  10
HETATM   10  C   UNL     1      21.403  45.226  48.452  1.00  0.00     0.112 C 
BRANCH  10  11
HETATM   11  C   UNL     1      21.745  46.653  48.083  1.00  0.00     0.218 C 
HETATM   12  N   UNL     1      21.521  47.564  49.082  1.00  0.00    -0.355 N 
HETATM   13  H   UNL     1      21.459  47.212  50.039  1.00  0.00     0.162 HD
HETATM   14  O   UNL     1      22.195  46.948  46.980  1.00  0.00    -0.274 OA
BRANCH  12  15
HETATM   15  C   UNL     1      21.880  48.952  48.912  1.00  0.00     0.187 C 
BRANCH  15  16
HETATM   16  C   UNL     1      20.763  49.793  49.398  1.00  0.00     0.070 A 
HETATM   17  O   UNL     1      19.732  49.150  50.021  1.00  0.00    -0.325 OA
HETATM   18  C   UNL     1      18.828  50.099  50.373  1.00  0.00     0.142 A 
HETATM   19  C   UNL     1      19.260  51.345  49.985  1.00  0.00     0.027 A 
HETATM   20  C   UNL     1      20.511  51.150  49.353  1.00  0.00     0.036 A 
ENDBRANCH  15  16
ENDBRANCH  12  15
ENDBRANCH  10  11
ENDBRANCH   9  10
ENDBRANCH   6   9
ENDBRANCH   2   5
BRANCH   1  21
HETATM   21  C   UNL     1      25.575  46.075  53.599  1.00  0.00     0.146 C 
BRANCH  21  22
HETATM   22  C   UNL     1      26.916  45.817  54.223  1.00  0.00    -0.015 A 
HETATM   23  C   UNL     1      27.738  44.632  54.226  1.00  0.00     0.000 A 
HETATM   24  C   UNL     1      27.628  43.341  53.663  1.00  0.00     0.021 A 
HETATM   25  C   UNL     1      28.884  44.916  54.976  1.00  0.00     0.049 A 
HETATM   26  C   UNL     1      28.632  42.383  53.869  1.00  0.00    -0.061 A 
HETATM   27  C   UNL     1      28.529  41.024  53.240  1.00  0.00     0.048 C 
HETATM   28  C   UNL     1      29.760  42.718  54.621  1.00  0.00     0.015 A 
HETATM   29  C   UNL     1      29.919  43.987  55.201  1.00  0.00    -0.034 A 
HETATM   30  C   UNL     1      31.164  44.278  55.988  1.00  0.00     0.050 C 
HETATM   31  N   UNL     1      28.771  46.219  55.398  1.00  0.00    -0.358 N 
HETATM   32  H   UNL     1      29.466  46.694  55.955  1.00  0.00     0.166 HD
HETATM   33  C   UNL     1      27.599  46.774  54.965  1.00  0.00     0.013 A 
HETATM   34  C   UNL     1      27.242  48.179  55.298  1.00  0.00     0.068 C 
ENDBRANCH  21  22
ENDBRANCH   1  21
TORSDOF 8
ENDMDL
MODEL 3
REMARK VINA RESULT:      -9.1      2.093      4.146
REMARK  8 active torsions:
REMARK  status: ('A' for Active; 'I' for Inactive)
REMARK    1  A    between atoms: C_10  and  C_11 
REMARK    2  A    between atoms: C_11  and  C_12 
REMARK       I    between atoms: C_12  and  N_13 
REMARK    3  A    between atoms: N_13  and  N_14 
REMARK       I    between atoms: N_14  and  C_15 
REMARK    4  A    between atoms: C_15  and  C_16 
REMARK    5  A    between atoms: C_16  and  C_17 
REMARK    6  A    between atoms: C_17  and  C_18 
REMARK       I    between atoms: C_18  and  N_19 
REMARK    7  A    between atoms: N_19  and  C_20 
REMARK    8  A    between atoms: C_20  and  C_21 
ROOT
HETATM    1  C   UNL     1      26.515  43.939  50.609  1.00  0.00     0.240 C 
HETATM    2  N   UNL     1      25.799  45.113  50.764  1.00  0.00    -0.267 N 
HETATM    3  O   UNL     1      27.139  43.691  49.576  1.00  0.00    -0.272 OA
HETATM    4  H   UNL     1      25.424  45.414  51.663  1.00  0.00     0.190 HD
ENDROOT
BRANCH   2   5
HETATM    5  N   UNL     1      25.988  46.116  49.800  1.00  0.00    -0.268 N 
HETATM    6  C   UNL     1      25.884  47.430  50.210  1.00  0.00     0.236 C 
HETATM    7  O   UNL     1      25.473  47.754  51.322  1.00  0.00    -0.272 OA
HETATM    8  H   UNL     1      26.549  45.843  48.992  1.00  0.00     0.190 HD
BRANCH   6   9
HETATM    9  C   UNL     1      26.365  48.420  49.170  1.00  0.00     0.114 C 
BRANCH   9  10
HETATM   10  C   UNL     1      25.500  49.672  49.132  1.00  0.00     0.112 C 
BRANCH  10  11
HETATM   11  C   UNL     1      24.188  49.420  48.422  1.00  0.00     0.218 C 
HETATM   12  N   UNL     1      23.229  48.826  49.203  1.00  0.00    -0.355 N 
HETATM   13  H   UNL     1      23.337  48.890  50.216  1.00  0.00     0.162 HD
HETATM   14  O   UNL     1      24.012  49.736  47.250  1.00  0.00    -0.274 OA
BRANCH  12  15
HETATM   15  C   UNL     1      21.898  48.600  48.694  1.00  0.00     0.187 C 
BRANCH  15  16
HETATM   16  C   UNL     1      21.114  49.847  48.849  1.00  0.00     0.070 A 
HETATM   17  O   UNL     1      20.563  50.080  50.076  1.00  0.00    -0.325 OA
HETATM   18  C   UNL     1      19.892  51.257  49.992  1.00  0.00     0.142 A 
HETATM   19  C   UNL     1      20.000  51.786  48.727  1.00  0.00     0.027 A 
HETATM   20  C   UNL     1      20.790  50.874  47.986  1.00  0.00     0.036 A 
ENDBRANCH  15  16
ENDBRANCH  12  15
ENDBRANCH  10  11
ENDBRANCH   9  10
ENDBRANCH   6   9
ENDBRANCH   2   5
BRANCH   1  21
HETATM   21  C   UNL     1      26.494  43.029  51.814  1.00  0.00     0.146 C 
BRANCH  21  22
HETATM   22  C   UNL     1      27.570  43.236  52.840  1.00  0.00    -0.015 A 
HETATM   23  C   UNL     1      27.845  44.361  53.699  1.00  0.00     0.000 A 
HETATM   24  C   UNL     1      27.242  45.619  53.919  1.00  0.00     0.021 A 
HETATM   25  C   UNL     1      28.982  44.048  54.453  1.00  0.00     0.049 A 
HETATM   26  C   UNL     1      27.781  46.518  54.851  1.00  0.00    -0.061 A 
HETATM   27  C   UNL     1      27.116  47.839  55.108  1.00  0.00     0.048 C 
HETATM   28  C   UNL     1      28.914  46.156  55.583  1.00  0.00     0.015 A 
HETATM   29  C   UNL     1      29.552  44.917  55.403  1.00  0.00    -0.034 A 
HETATM   30  C   UNL     1      30.761  44.592  56.233  1.00  0.00     0.050 C 
HETATM   31  N   UNL     1      29.372  42.784  54.078  1.00  0.00    -0.358 N 
HETATM   32  H   UNL     1      30.165  42.298  54.471  1.00  0.00     0.166 HD
HETATM   33  C   UNL     1      28.546  42.283  53.111  1.00  0.00     0.013 A 
HETATM   34  C   UNL     1      28.763  40.928  52.537  1.00  0.00     0.068 C 
ENDBRANCH  21  22
ENDBRANCH   1  21
TORSDOF 8
ENDMDL
MODEL 4
REMARK VINA RESULT:      -8.8      2.611      4.579
REMARK  8 active torsions:
REMARK  status: ('A' for Active; 'I' for Inactive)
REMARK    1  A    between atoms: C_10  and  C_11 
REMARK    2  A    between atoms: C_11  and  C_12 
REMARK       I    between atoms: C_12  and  N_13 
REMARK    3  A    between atoms: N_13  and  N_14 
REMARK       I    between atoms: N_14  and  C_15 
REMARK    4  A    between atoms: C_15  and  C_16 
REMARK    5  A    between atoms: C_16  and  C_17 
REMARK    6  A    between atoms: C_17  and  C_18 
REMARK       I    between atoms: C_18  and  N_19 
REMARK    7  A    between atoms: N_19  and  C_20 
REMARK    8  A    between atoms: C_20  and  C_21 
ROOT
HETATM    1  C   UNL     1      25.474  47.142  51.283  1.00  0.00     0.240 C 
HETATM    2  N   UNL     1      24.278  47.354  50.620  1.00  0.00    -0.267 N 
HETATM    3  O   UNL     1      26.543  47.566  50.844  1.00  0.00    -0.272 OA
HETATM    4  H   UNL     1      23.371  47.166  51.047  1.00  0.00     0.190 HD
ENDROOT
BRANCH   2   5
HETATM    5  N   UNL     1      24.287  48.261  49.548  1.00  0.00    -0.268 N 
HETATM    6  C   UNL     1      23.126  48.403  48.816  1.00  0.00     0.236 C 
HETATM    7  O   UNL     1      22.154  47.662  48.950  1.00  0.00    -0.272 OA
HETATM    8  H   UNL     1      24.980  49.007  49.616  1.00  0.00     0.190 HD
BRANCH   6   9
HETATM    9  C   UNL     1      23.157  49.584  47.869  1.00  0.00     0.114 C 
BRANCH   9  10
HETATM   10  C   UNL     1      23.222  50.911  48.612  1.00  0.00     0.112 C 
BRANCH  10  11
HETATM   11  C   UNL     1      22.042  51.085  49.542  1.00  0.00     0.218 C 
HETATM   12  N   UNL     1      20.844  51.282  48.904  1.00  0.00    -0.355 N 
HETATM   13  H   UNL     1      20.775  50.992  47.927  1.00  0.00     0.162 HD
HETATM   14  O   UNL     1      22.165  51.040  50.762  1.00  0.00    -0.274 OA
BRANCH  12  15
HETATM   15  C   UNL     1      19.615  51.379  49.653  1.00  0.00     0.187 C 
BRANCH  15  16
HETATM   16  C   UNL     1      18.854  50.120  49.478  1.00  0.00     0.070 A 
HETATM   17  O   UNL     1      19.360  49.005  50.080  1.00  0.00    -0.325 OA
HETATM   18  C   UNL     1      18.519  47.980  49.787  1.00  0.00     0.142 A 
HETATM   19  C   UNL     1      17.478  48.419  49.002  1.00  0.00     0.027 A 
HETATM   20  C   UNL     1      17.693  49.803  48.800  1.00  0.00     0.036 A 
ENDBRANCH  15  16
ENDBRANCH  12  15
ENDBRANCH  10  11
ENDBRANCH   9  10
ENDBRANCH   6   9
ENDBRANCH   2   5
BRANCH   1  21
HETATM   21  C   UNL     1      25.341  46.394  52.588  1.00  0.00     0.146 C 
BRANCH  21  22
HETATM   22  C   UNL     1      25.982  45.039  52.662  1.00  0.00    -0.015 A 
HETATM   23  C   UNL     1      27.131  44.582  53.404  1.00  0.00     0.000 A 
HETATM   24  C   UNL     1      28.033  45.180  54.312  1.00  0.00     0.021 A 
HETATM   25  C   UNL     1      27.320  43.230  53.100  1.00  0.00     0.049 A 
HETATM   26  C   UNL     1      29.086  44.437  54.869  1.00  0.00    -0.061 A 
HETATM   27  C   UNL     1      30.021  45.066  55.860  1.00  0.00     0.048 C 
HETATM   28  C   UNL     1      29.228  43.089  54.537  1.00  0.00     0.015 A 
HETATM   29  C   UNL     1      28.357  42.446  53.641  1.00  0.00    -0.034 A 
HETATM   30  C   UNL     1      28.567  40.990  53.339  1.00  0.00     0.050 C 
HETATM   31  N   UNL     1      26.323  42.876  52.222  1.00  0.00    -0.358 N 
HETATM   32  H   UNL     1      26.210  41.949  51.841  1.00  0.00     0.166 HD
HETATM   33  C   UNL     1      25.516  43.944  51.942  1.00  0.00     0.013 A 
HETATM   34  C   UNL     1      24.363  43.816  51.011  1.00  0.00     0.068 C 
ENDBRANCH  21  22
ENDBRANCH   1  21
TORSDOF 8
ENDMDL
MODEL 5
REMARK VINA RESULT:      -8.6      2.530      4.281
REMARK  8 active torsions:
REMARK  status: ('A' for Active; 'I' for Inactive)
REMARK    1  A    between atoms: C_10  and  C_11 
REMARK    2  A    between atoms: C_11  and  C_12 
REMARK       I    between atoms: C_12  and  N_13 
REMARK    3  A    between atoms: N_13  and  N_14 
REMARK       I    between atoms: N_14  and  C_15 
REMARK    4  A    between atoms: C_15  and  C_16 
REMARK    5  A    between atoms: C_16  and  C_17 
REMARK    6  A    between atoms: C_17  and  C_18 
REMARK       I    between atoms: C_18  and  N_19 
REMARK    7  A    between atoms: N_19  and  C_20 
REMARK    8  A    between atoms: C_20  and  C_21 
ROOT
HETATM    1  C   UNL     1      25.017  44.380  51.313  1.00  0.00     0.240 C 
HETATM    2  N   UNL     1      25.256  45.342  50.348  1.00  0.00    -0.267 N 
HETATM    3  O   UNL     1      23.941  44.310  51.907  1.00  0.00    -0.272 OA
HETATM    4  H   UNL     1      26.066  45.310  49.728  1.00  0.00     0.190 HD
ENDROOT
BRANCH   2   5
HETATM    5  N   UNL     1      24.158  46.093  49.901  1.00  0.00    -0.268 N 
HETATM    6  C   UNL     1      24.193  47.460  50.090  1.00  0.00     0.236 C 
HETATM    7  O   UNL     1      25.049  48.019  50.773  1.00  0.00    -0.272 OA
HETATM    8  H   UNL     1      23.613  45.664  49.151  1.00  0.00     0.190 HD
BRANCH   6   9
HETATM    9  C   UNL     1      23.102  48.196  49.342  1.00  0.00     0.114 C 
BRANCH   9  10
HETATM   10  C   UNL     1      22.363  47.288  48.370  1.00  0.00     0.112 C 
BRANCH  10  11
HETATM   11  C   UNL     1      20.867  47.506  48.433  1.00  0.00     0.218 C 
HETATM   12  N   UNL     1      20.464  48.372  49.418  1.00  0.00    -0.355 N 
HETATM   13  H   UNL     1      21.161  49.017  49.796  1.00  0.00     0.162 HD
HETATM   14  O   UNL     1      20.097  46.954  47.655  1.00  0.00    -0.274 OA
BRANCH  12  15
HETATM   15  C   UNL     1      19.077  48.749  49.548  1.00  0.00     0.187 C 
BRANCH  15  16
HETATM   16  C   UNL     1      18.959  50.207  49.316  1.00  0.00     0.070 A 
HETATM   17  O   UNL     1      18.157  50.904  50.173  1.00  0.00    -0.325 OA
HETATM   18  C   UNL     1      18.188  52.202  49.776  1.00  0.00     0.142 A 
HETATM   19  C   UNL     1      18.997  52.351  48.675  1.00  0.00     0.027 A 
HETATM   20  C   UNL     1      19.496  51.061  48.375  1.00  0.00     0.036 A 
ENDBRANCH  15  16
ENDBRANCH  12  15
ENDBRANCH  10  11
ENDBRANCH   9  10
ENDBRANCH   6   9
ENDBRANCH   2   5
BRANCH   1  21
HETATM   21  C   UNL     1      26.162  43.421  51.537  1.00  0.00     0.146 C 
BRANCH  21  22
HETATM   22  C   UNL     1      27.127  43.759  52.636  1.00  0.00    -0.015 A 
HETATM   23  C   UNL     1      27.221  44.925  53.478  1.00  0.00     0.000 A 
HETATM   24  C   UNL     1      26.479  46.120  53.612  1.00  0.00     0.021 A 
HETATM   25  C   UNL     1      28.319  44.747  54.326  1.00  0.00     0.049 A 
HETATM   26  C   UNL     1      26.852  47.092  54.554  1.00  0.00    -0.061 A 
HETATM   27  C   UNL     1      26.040  48.344  54.718  1.00  0.00     0.048 C 
HETATM   28  C   UNL     1      27.953  46.863  55.381  1.00  0.00     0.015 A 
HETATM   29  C   UNL     1      28.723  45.691  55.290  1.00  0.00    -0.034 A 
HETATM   30  C   UNL     1      29.888  45.510  56.220  1.00  0.00     0.050 C 
HETATM   31  N   UNL     1      28.861  43.521  54.022  1.00  0.00    -0.358 N 
HETATM   32  H   UNL     1      29.664  43.127  54.489  1.00  0.00     0.166 HD
HETATM   33  C   UNL     1      28.168  42.916  53.010  1.00  0.00     0.013 A 
HETATM   34  C   UNL     1      28.564  41.578  52.497  1.00  0.00     0.068 C 
ENDBRANCH  21  22
ENDBRANCH   1  21
TORSDOF 8
ENDMDL
MODEL 6
REMARK VINA RESULT:      -8.6      2.475      3.850
REMARK  8 active torsions:
REMARK  status: ('A' for Active; 'I' for Inactive)
REMARK    1  A    between atoms: C_10  and  C_11 
REMARK    2  A    between atoms: C_11  and  C_12 
REMARK       I    between atoms: C_12  and  N_13 
REMARK    3  A    between atoms: N_13  and  N_14 
REMARK       I    between atoms: N_14  and  C_15 
REMARK    4  A    between atoms: C_15  and  C_16 
REMARK    5  A    between atoms: C_16  and  C_17 
REMARK    6  A    between atoms: C_17  and  C_18 
REMARK       I    between atoms: C_18  and  N_19 
REMARK    7  A    between atoms: N_19  and  C_20 
REMARK    8  A    between atoms: C_20  and  C_21 
ROOT
HETATM    1  C   UNL     1      25.213  46.198  50.992  1.00  0.00     0.240 C 
HETATM    2  N   UNL     1      24.130  47.053  50.884  1.00  0.00    -0.267 N 
HETATM    3  O   UNL     1      26.148  46.230  50.192  1.00  0.00    -0.272 OA
HETATM    4  H   UNL     1      23.438  47.161  51.625  1.00  0.00     0.190 HD
ENDROOT
BRANCH   2   5
HETATM    5  N   UNL     1      24.235  48.113  49.969  1.00  0.00    -0.268 N 
HETATM    6  C   UNL     1      23.379  48.116  48.887  1.00  0.00     0.236 C 
HETATM    7  O   UNL     1      22.658  47.162  48.600  1.00  0.00    -0.272 OA
HETATM    8  H   UNL     1      24.638  48.973  50.344  1.00  0.00     0.190 HD
BRANCH   6   9
HETATM    9  C   UNL     1      23.390  49.421  48.119  1.00  0.00     0.114 C 
BRANCH   9  10
HETATM   10  C   UNL     1      23.085  50.613  49.016  1.00  0.00     0.112 C 
BRANCH  10  11
HETATM   11  C   UNL     1      21.595  50.855  49.130  1.00  0.00     0.218 C 
HETATM   12  N   UNL     1      20.997  50.208  50.181  1.00  0.00    -0.355 N 
HETATM   13  H   UNL     1      21.595  49.899  50.950  1.00  0.00     0.162 HD
HETATM   14  O   UNL     1      20.993  51.581  48.346  1.00  0.00    -0.274 OA
BRANCH  12  15
HETATM   15  C   UNL     1      19.598  50.408  50.473  1.00  0.00     0.187 C 
BRANCH  15  16
HETATM   16  C   UNL     1      18.817  49.350  49.793  1.00  0.00     0.070 A 
HETATM   17  O   UNL     1      17.694  49.746  49.124  1.00  0.00    -0.325 OA
HETATM   18  C   UNL     1      17.136  48.630  48.589  1.00  0.00     0.142 A 
HETATM   19  C   UNL     1      17.883  47.519  48.906  1.00  0.00     0.027 A 
HETATM   20  C   UNL     1      18.970  47.983  49.685  1.00  0.00     0.036 A 
ENDBRANCH  15  16
ENDBRANCH  12  15
ENDBRANCH  10  11
ENDBRANCH   9  10
ENDBRANCH   6   9
ENDBRANCH   2   5
BRANCH   1  21
HETATM   21  C   UNL     1      25.159  45.269  52.181  1.00  0.00     0.146 C 
BRANCH  21  22
HETATM   22  C   UNL     1      26.360  45.245  53.081  1.00  0.00    -0.015 A 
HETATM   23  C   UNL     1      27.365  44.230  53.279  1.00  0.00     0.000 A 
HETATM   24  C   UNL     1      27.616  42.954  52.728  1.00  0.00     0.021 A 
HETATM   25  C   UNL     1      28.255  44.702  54.251  1.00  0.00     0.049 A 
HETATM   26  C   UNL     1      28.712  42.191  53.160  1.00  0.00    -0.061 A 
HETATM   27  C   UNL     1      28.996  40.850  52.547  1.00  0.00     0.048 C 
HETATM   28  C   UNL     1      29.573  42.709  54.128  1.00  0.00     0.015 A 
HETATM   29  C   UNL     1      29.370  43.973  54.708  1.00  0.00    -0.034 A 
HETATM   30  C   UNL     1      30.345  44.469  55.737  1.00  0.00     0.050 C 
HETATM   31  N   UNL     1      27.817  45.952  54.617  1.00  0.00    -0.358 N 
HETATM   32  H   UNL     1      28.279  46.534  55.301  1.00  0.00     0.166 HD
HETATM   33  C   UNL     1      26.683  46.294  53.935  1.00  0.00     0.013 A 
HETATM   34  C   UNL     1      26.012  47.602  54.159  1.00  0.00     0.068 C 
ENDBRANCH  21  22
ENDBRANCH   1  21
TORSDOF 8
ENDMDL
MODEL 7
REMARK VINA RESULT:      -8.4      2.856      5.522
REMARK  8 active torsions:
REMARK  status: ('A' for Active; 'I' for Inactive)
REMARK    1  A    between atoms: C_10  and  C_11 
REMARK    2  A    between atoms: C_11  and  C_12 
REMARK       I    between atoms: C_12  and  N_13 
REMARK    3  A    between atoms: N_13  and  N_14 
REMARK       I    between atoms: N_14  and  C_15 
REMARK    4  A    between atoms: C_15  and  C_16 
REMARK    5  A    between atoms: C_16  and  C_17 
REMARK    6  A    between atoms: C_17  and  C_18 
REMARK       I    between atoms: C_18  and  N_19 
REMARK    7  A    between atoms: N_19  and  C_20 
REMARK    8  A    between atoms: C_20  and  C_21 
ROOT
HETATM    1  C   UNL     1      25.023  45.402  52.703  1.00  0.00     0.240 C 
HETATM    2  N   UNL     1      24.432  45.471  51.454  1.00  0.00    -0.267 N 
HETATM    3  O   UNL     1      24.798  44.472  53.478  1.00  0.00    -0.272 OA
HETATM    4  H   UNL     1      24.734  46.131  50.737  1.00  0.00     0.190 HD
ENDROOT
BRANCH   2   5
HETATM    5  N   UNL     1      23.743  44.333  51.003  1.00  0.00    -0.268 N 
HETATM    6  C   UNL     1      23.580  44.177  49.642  1.00  0.00     0.236 C 
HETATM    7  O   UNL     1      23.855  45.058  48.829  1.00  0.00    -0.272 OA
HETATM    8  H   UNL     1      23.752  43.537  51.642  1.00  0.00     0.190 HD
BRANCH   6   9
HETATM    9  C   UNL     1      23.070  42.805  49.253  1.00  0.00     0.114 C 
BRANCH   9  10
HETATM   10  C   UNL     1      24.079  42.039  48.409  1.00  0.00     0.112 C 
BRANCH  10  11
HETATM   11  C   UNL     1      25.386  41.844  49.147  1.00  0.00     0.218 C 
HETATM   12  N   UNL     1      25.423  40.727  49.942  1.00  0.00    -0.355 N 
HETATM   13  H   UNL     1      24.751  39.984  49.747  1.00  0.00     0.162 HD
HETATM   14  O   UNL     1      26.324  42.624  49.022  1.00  0.00    -0.274 OA
BRANCH  12  15
HETATM   15  C   UNL     1      26.631  40.359  50.642  1.00  0.00     0.187 C 
BRANCH  15  16
HETATM   16  C   UNL     1      27.371  39.373  49.820  1.00  0.00     0.070 A 
HETATM   17  O   UNL     1      28.707  39.594  49.648  1.00  0.00    -0.325 OA
HETATM   18  C   UNL     1      29.178  38.587  48.868  1.00  0.00     0.142 A 
HETATM   19  C   UNL     1      28.164  37.721  48.533  1.00  0.00     0.027 A 
HETATM   20  C   UNL     1      26.994  38.228  49.148  1.00  0.00     0.036 A 
ENDBRANCH  15  16
ENDBRANCH  12  15
ENDBRANCH  10  11
ENDBRANCH   9  10
ENDBRANCH   6   9
ENDBRANCH   2   5
BRANCH   1  21
HETATM   21  C   UNL     1      25.981  46.530  53.004  1.00  0.00     0.146 C 
BRANCH  21  22
HETATM   22  C   UNL     1      27.070  46.250  53.998  1.00  0.00    -0.015 A 
HETATM   23  C   UNL     1      28.025  45.172  54.066  1.00  0.00     0.000 A 
HETATM   24  C   UNL     1      28.312  44.043  53.268  1.00  0.00     0.021 A 
HETATM   25  C   UNL     1      28.806  45.371  55.210  1.00  0.00     0.049 A 
HETATM   26  C   UNL     1      29.336  43.153  53.629  1.00  0.00    -0.061 A 
HETATM   27  C   UNL     1      29.663  41.974  52.758  1.00  0.00     0.048 C 
HETATM   28  C   UNL     1      30.091  43.400  54.777  1.00  0.00     0.015 A 
HETATM   29  C   UNL     1      29.847  44.509  55.605  1.00  0.00    -0.034 A 
HETATM   30  C   UNL     1      30.706  44.715  56.819  1.00  0.00     0.050 C 
HETATM   31  N   UNL     1      28.354  46.526  55.804  1.00  0.00    -0.358 N 
HETATM   32  H   UNL     1      28.745  46.917  56.648  1.00  0.00     0.166 HD
HETATM   33  C   UNL     1      27.313  47.064  55.100  1.00  0.00     0.013 A 
HETATM   34  C   UNL     1      26.646  48.317  55.544  1.00  0.00     0.068 C 
ENDBRANCH  21  22
ENDBRANCH   1  21
TORSDOF 8
ENDMDL
MODEL 8
REMARK VINA RESULT:      -8.3      4.406      6.793
REMARK  8 active torsions:
REMARK  status: ('A' for Active; 'I' for Inactive)
REMARK    1  A    between atoms: C_10  and  C_11 
REMARK    2  A    between atoms: C_11  and  C_12 
REMARK       I    between atoms: C_12  and  N_13 
REMARK    3  A    between atoms: N_13  and  N_14 
REMARK       I    between atoms: N_14  and  C_15 
REMARK    4  A    between atoms: C_15  and  C_16 
REMARK    5  A    between atoms: C_16  and  C_17 
REMARK    6  A    between atoms: C_17  and  C_18 
REMARK       I    between atoms: C_18  and  N_19 
REMARK    7  A    between atoms: N_19  and  C_20 
REMARK    8  A    between atoms: C_20  and  C_21 
ROOT
HETATM    1  C   UNL     1      28.399  40.992  51.558  1.00  0.00     0.240 C 
HETATM    2  N   UNL     1      29.046  39.779  51.395  1.00  0.00    -0.267 N 
HETATM    3  O   UNL     1      28.266  41.787  50.628  1.00  0.00    -0.272 OA
HETATM    4  H   UNL     1      29.015  39.040  52.097  1.00  0.00     0.190 HD
ENDROOT
BRANCH   2   5
HETATM    5  N   UNL     1      29.347  39.381  50.084  1.00  0.00    -0.268 N 
HETATM    6  C   UNL     1      29.412  38.028  49.821  1.00  0.00     0.236 C 
HETATM    7  O   UNL     1      29.386  37.171  50.703  1.00  0.00    -0.272 OA
HETATM    8  H   UNL     1      29.122  40.063  49.358  1.00  0.00     0.190 HD
BRANCH   6   9
HETATM    9  C   UNL     1      29.475  37.708  48.342  1.00  0.00     0.114 C 
BRANCH   9  10
HETATM   10  C   UNL     1      28.090  37.579  47.726  1.00  0.00     0.112 C 
BRANCH  10  11
HETATM   11  C   UNL     1      27.679  38.849  47.012  1.00  0.00     0.218 C 
HETATM   12  N   UNL     1      26.760  39.607  47.692  1.00  0.00    -0.355 N 
HETATM   13  H   UNL     1      26.669  39.451  48.697  1.00  0.00     0.162 HD
HETATM   14  O   UNL     1      28.149  39.162  45.923  1.00  0.00    -0.274 OA
BRANCH  12  15
HETATM   15  C   UNL     1      26.336  40.888  47.180  1.00  0.00     0.187 C 
BRANCH  15  16
HETATM   16  C   UNL     1      25.038  41.239  47.801  1.00  0.00     0.070 A 
HETATM   17  O   UNL     1      23.940  40.559  47.361  1.00  0.00    -0.325 OA
HETATM   18  C   UNL     1      22.873  41.039  48.050  1.00  0.00     0.142 A 
HETATM   19  C   UNL     1      23.268  42.021  48.928  1.00  0.00     0.027 A 
HETATM   20  C   UNL     1      24.669  42.152  48.768  1.00  0.00     0.036 A 
ENDBRANCH  15  16
ENDBRANCH  12  15
ENDBRANCH  10  11
ENDBRANCH   9  10
ENDBRANCH   6   9
ENDBRANCH   2   5
BRANCH   1  21
HETATM   21  C   UNL     1      27.848  41.225  52.945  1.00  0.00     0.146 C 
BRANCH  21  22
HETATM   22  C   UNL     1      27.825  42.642  53.438  1.00  0.00    -0.015 A 
HETATM   23  C   UNL     1      28.710  43.337  54.340  1.00  0.00     0.000 A 
HETATM   24  C   UNL     1      29.881  42.993  55.050  1.00  0.00     0.021 A 
HETATM   25  C   UNL     1      28.225  44.642  54.484  1.00  0.00     0.049 A 
HETATM   26  C   UNL     1      30.517  43.931  55.879  1.00  0.00    -0.061 A 
HETATM   27  C   UNL     1      31.781  43.572  56.604  1.00  0.00     0.048 C 
HETATM   28  C   UNL     1      29.997  45.222  55.984  1.00  0.00     0.015 A 
HETATM   29  C   UNL     1      28.835  45.616  55.298  1.00  0.00    -0.034 A 
HETATM   30  C   UNL     1      28.340  47.025  55.452  1.00  0.00     0.050 C 
HETATM   31  N   UNL     1      27.104  44.740  53.694  1.00  0.00    -0.358 N 
HETATM   32  H   UNL     1      26.553  45.580  53.598  1.00  0.00     0.166 HD
HETATM   33  C   UNL     1      26.843  43.554  53.066  1.00  0.00     0.013 A 
HETATM   34  C   UNL     1      25.676  43.404  52.156  1.00  0.00     0.068 C 
ENDBRANCH  21  22
ENDBRANCH   1  21
TORSDOF 8
ENDMDL
MODEL 9
REMARK VINA RESULT:      -8.3      3.468      5.356
REMARK  8 active torsions:
REMARK  status: ('A' for Active; 'I' for Inactive)
REMARK    1  A    between atoms: C_10  and  C_11 
REMARK    2  A    between atoms: C_11  and  C_12 
REMARK       I    between atoms: C_12  and  N_13 
REMARK    3  A    between atoms: N_13  and  N_14 
REMARK       I    between atoms: N_14  and  C_15 
REMARK    4  A    between atoms: C_15  and  C_16 
REMARK    5  A    between atoms: C_16  and  C_17 
REMARK    6  A    between atoms: C_17  and  C_18 
REMARK       I    between atoms: C_18  and  N_19 
REMARK    7  A    between atoms: N_19  and  C_20 
REMARK    8  A    between atoms: C_20  and  C_21 
ROOT
HETATM    1  C   UNL     1      24.578  46.467  50.273  1.00  0.00     0.240 C 
HETATM    2  N   UNL     1      23.388  47.133  50.039  1.00  0.00    -0.267 N 
HETATM    3  O   UNL     1      25.662  46.928  49.914  1.00  0.00    -0.272 OA
HETATM    4  H   UNL     1      22.508  46.858  50.475  1.00  0.00     0.190 HD
ENDROOT
BRANCH   2   5
HETATM    5  N   UNL     1      23.470  48.458  49.582  1.00  0.00    -0.268 N 
HETATM    6  C   UNL     1      22.905  48.753  48.358  1.00  0.00     0.236 C 
HETATM    7  O   UNL     1      22.490  47.890  47.586  1.00  0.00    -0.272 OA
HETATM    8  H   UNL     1      23.582  49.164  50.311  1.00  0.00     0.190 HD
BRANCH   6   9
HETATM    9  C   UNL     1      22.810  50.239  48.085  1.00  0.00     0.114 C 
BRANCH   9  10
HETATM   10  C   UNL     1      21.620  50.875  48.790  1.00  0.00     0.112 C 
BRANCH  10  11
HETATM   11  C   UNL     1      20.313  50.476  48.141  1.00  0.00     0.218 C 
HETATM   12  N   UNL     1      19.327  50.123  49.027  1.00  0.00    -0.355 N 
HETATM   13  H   UNL     1      19.422  50.443  49.993  1.00  0.00     0.162 HD
HETATM   14  O   UNL     1      20.163  50.485  46.924  1.00  0.00    -0.274 OA
BRANCH  12  15
HETATM   15  C   UNL     1      17.999  49.802  48.565  1.00  0.00     0.187 C 
BRANCH  15  16
HETATM   16  C   UNL     1      17.079  50.889  48.974  1.00  0.00     0.070 A 
HETATM   17  O   UNL     1      17.601  51.873  49.763  1.00  0.00    -0.325 OA
HETATM   18  C   UNL     1      16.597  52.750  50.020  1.00  0.00     0.142 A 
HETATM   19  C   UNL     1      15.433  52.343  49.409  1.00  0.00     0.027 A 
HETATM   20  C   UNL     1      15.744  51.139  48.732  1.00  0.00     0.036 A 
ENDBRANCH  15  16
ENDBRANCH  12  15
ENDBRANCH  10  11
ENDBRANCH   9  10
ENDBRANCH   6   9
ENDBRANCH   2   5
BRANCH   1  21
HETATM   21  C   UNL     1      24.429  45.168  51.029  1.00  0.00     0.146 C 
BRANCH  21  22
HETATM   22  C   UNL     1      25.600  44.727  51.859  1.00  0.00    -0.015 A 
HETATM   23  C   UNL     1      26.287  45.387  52.941  1.00  0.00     0.000 A 
HETATM   24  C   UNL     1      26.128  46.615  53.620  1.00  0.00     0.021 A 
HETATM   25  C   UNL     1      27.329  44.550  53.353  1.00  0.00     0.049 A 
HETATM   26  C   UNL     1      27.001  46.977  54.659  1.00  0.00    -0.061 A 
HETATM   27  C   UNL     1      26.807  48.266  55.403  1.00  0.00     0.048 C 
HETATM   28  C   UNL     1      28.022  46.102  55.036  1.00  0.00     0.015 A 
HETATM   29  C   UNL     1      28.223  44.869  54.394  1.00  0.00    -0.034 A 
HETATM   30  C   UNL     1      29.336  43.976  54.861  1.00  0.00     0.050 C 
HETATM   31  N   UNL     1      27.271  43.425  52.565  1.00  0.00    -0.358 N 
HETATM   32  H   UNL     1      27.903  42.642  52.650  1.00  0.00     0.166 HD
HETATM   33  C   UNL     1      26.249  43.513  51.661  1.00  0.00     0.013 A 
HETATM   34  C   UNL     1      25.981  42.418  50.690  1.00  0.00     0.068 C 
ENDBRANCH  21  22
ENDBRANCH   1  21
TORSDOF 8
ENDMDL
MODEL 10
REMARK VINA RESULT:      -8.1      3.532      5.687
REMARK  8 active torsions:
REMARK  status: ('A' for Active; 'I' for Inactive)
REMARK    1  A    between atoms: C_10  and  C_11 
REMARK    2  A    between atoms: C_11  and  C_12 
REMARK       I    between atoms: C_12  and  N_13 
REMARK    3  A    between atoms: N_13  and  N_14 
REMARK       I    between atoms: N_14  and  C_15 
REMARK    4  A    between atoms: C_15  and  C_16 
REMARK    5  A    between atoms: C_16  and  C_17 
REMARK    6  A    between atoms: C_17  and  C_18 
REMARK       I    between atoms: C_18  and  N_19 
REMARK    7  A    between atoms: N_19  and  C_20 
REMARK    8  A    between atoms: C_20  and  C_21 
ROOT
HETATM    1  C   UNL     1      25.256  45.223  52.778  1.00  0.00     0.240 C 
HETATM    2  N   UNL     1      25.128  45.041  51.412  1.00  0.00    -0.267 N 
HETATM    3  O   UNL     1      24.841  44.391  53.585  1.00  0.00    -0.272 OA
HETATM    4  H   UNL     1      25.613  45.625  50.731  1.00  0.00     0.190 HD
ENDROOT
BRANCH   2   5
HETATM    5  N   UNL     1      24.716  43.775  50.966  1.00  0.00    -0.268 N 
HETATM    6  C   UNL     1      25.677  42.933  50.443  1.00  0.00     0.236 C 
HETATM    7  O   UNL     1      26.825  43.298  50.196  1.00  0.00    -0.272 OA
HETATM    8  H   UNL     1      23.860  43.420  51.394  1.00  0.00     0.190 HD
BRANCH   6   9
HETATM    9  C   UNL     1      25.185  41.515  50.244  1.00  0.00     0.114 C 
BRANCH   9  10
HETATM   10  C   UNL     1      24.949  41.192  48.776  1.00  0.00     0.112 C 
BRANCH  10  11
HETATM   11  C   UNL     1      23.492  41.354  48.399  1.00  0.00     0.218 C 
HETATM   12  N   UNL     1      23.172  40.865  47.159  1.00  0.00    -0.355 N 
HETATM   13  H   UNL     1      23.807  40.182  46.740  1.00  0.00     0.162 HD
HETATM   14  O   UNL     1      22.679  41.873  49.158  1.00  0.00    -0.274 OA
BRANCH  12  15
HETATM   15  C   UNL     1      21.806  40.868  46.693  1.00  0.00     0.187 C 
BRANCH  15  16
HETATM   16  C   UNL     1      21.229  39.521  46.908  1.00  0.00     0.070 A 
HETATM   17  O   UNL     1      19.984  39.465  47.464  1.00  0.00    -0.325 OA
HETATM   18  C   UNL     1      19.658  38.152  47.576  1.00  0.00     0.142 A 
HETATM   19  C   UNL     1      20.677  37.360  47.101  1.00  0.00     0.027 A 
HETATM   20  C   UNL     1      21.695  38.244  46.669  1.00  0.00     0.036 A 
ENDBRANCH  15  16
ENDBRANCH  12  15
ENDBRANCH  10  11
ENDBRANCH   9  10
ENDBRANCH   6   9
ENDBRANCH   2   5
BRANCH   1  21
HETATM   21  C   UNL     1      25.972  46.492  53.175  1.00  0.00     0.146 C 
BRANCH  21  22
HETATM   22  C   UNL     1      27.021  46.375  54.242  1.00  0.00    -0.015 A 
HETATM   23  C   UNL     1      28.079  45.411  54.418  1.00  0.00     0.000 A 
HETATM   24  C   UNL     1      28.534  44.288  53.693  1.00  0.00     0.021 A 
HETATM   25  C   UNL     1      28.761  45.743  55.593  1.00  0.00     0.049 A 
HETATM   26  C   UNL     1      29.623  43.531  54.155  1.00  0.00    -0.061 A 
HETATM   27  C   UNL     1      30.126  42.359  53.364  1.00  0.00     0.048 C 
HETATM   28  C   UNL     1      30.273  43.907  55.331  1.00  0.00     0.015 A 
HETATM   29  C   UNL     1      29.861  45.017  56.089  1.00  0.00    -0.034 A 
HETATM   30  C   UNL     1      30.616  45.366  57.339  1.00  0.00     0.050 C 
HETATM   31  N   UNL     1      28.153  46.865  56.103  1.00  0.00    -0.358 N 
HETATM   32  H   UNL     1      28.447  47.332  56.948  1.00  0.00     0.166 HD
HETATM   33  C   UNL     1      27.106  47.256  55.315  1.00  0.00     0.013 A 
HETATM   34  C   UNL     1      26.284  48.446  55.659  1.00  0.00     0.068 C 
ENDBRANCH  21  22
ENDBRANCH   1  21
TORSDOF 8
ENDMDL
