MODEL 1
REMARK VINA RESULT:      -8.8      0.000      0.000
REMARK  9 active torsions:
REMARK  status: ('A' for Active; 'I' for Inactive)
REMARK    1  A    between atoms: C_2  and  N_3 
REMARK    2  A    between atoms: N_3  and  C_5 
REMARK    3  A    between atoms: N_3  and  C_29 
REMARK    4  A    between atoms: C_5  and  C_6 
REMARK    5  A    between atoms: C_6  and  O_7 
REMARK    6  A    between atoms: O_7  and  C_8 
REMARK    7  A    between atoms: C_9  and  C_10 
REMARK    8  A    between atoms: C_10  and  N_11 
REMARK       I    between atoms: N_11  and  C_12 
REMARK    9  A    between atoms: C_12  and  C_13 
ROOT
HETATM    1  N   UNL     1      26.554  45.816  51.875  1.00  0.00    -0.352 N 
HETATM    2  C   UNL     1      25.521  46.056  50.981  1.00  0.00     0.254 C 
HETATM    3  O   UNL     1      24.532  45.345  50.866  1.00  0.00    -0.268 OA
HETATM    4  H   UNL     1      27.050  46.645  52.171  1.00  0.00     0.163 HD
ENDROOT
BRANCH   1   5
HETATM    5  C   UNL     1      26.446  44.774  52.881  1.00  0.00     0.164 C 
BRANCH   5   6
HETATM    6  C   UNL     1      27.753  44.134  53.282  1.00  0.00    -0.007 A 
HETATM    7  C   UNL     1      28.407  43.161  52.506  1.00  0.00     0.076 A 
HETATM    8  C   UNL     1      29.642  42.653  52.941  1.00  0.00     0.037 A 
HETATM    9  C   UNL     1      30.215  43.087  54.139  1.00  0.00     0.003 A 
HETATM   10  C   UNL     1      29.562  44.030  54.919  1.00  0.00     0.001 A 
HETATM   11  C   UNL     1      28.343  44.550  54.492  1.00  0.00     0.011 A 
BRANCH   7  12
HETATM   12  O   UNL     1      27.793  42.779  51.334  1.00  0.00    -0.349 OA
BRANCH  12  13
HETATM   13  C   UNL     1      27.356  41.419  51.271  1.00  0.00     0.203 C 
BRANCH  13  14
HETATM   14  C   UNL     1      28.126  40.666  50.179  1.00  0.00     0.261 C 
BRANCH  14  15
HETATM   15  N   UNL     1      28.019  39.140  50.256  1.00  0.00    -0.070 N 
HETATM   16  H   UNL     1      27.886  38.934  51.256  1.00  0.00     0.279 HD
BRANCH  15  17
HETATM   17  C   UNL     1      29.269  38.379  49.846  1.00  0.00     0.230 C 
HETATM   18  C   UNL     1      29.998  37.801  51.045  1.00  0.00     0.034 C 
ENDBRANCH  15  17
BRANCH  15  19
HETATM   19  C   UNL     1      26.803  38.544  49.563  1.00  0.00     0.230 C 
HETATM   20  C   UNL     1      26.869  37.029  49.518  1.00  0.00     0.034 C 
ENDBRANCH  15  19
ENDBRANCH  14  15
ENDBRANCH  13  14
ENDBRANCH  12  13
ENDBRANCH   7  12
ENDBRANCH   5   6
ENDBRANCH   1   5
BRANCH   2  21
HETATM   21  C   UNL     1      25.623  47.305  50.185  1.00  0.00     0.064 A 
HETATM   22  C   UNL     1      24.534  47.955  49.635  1.00  0.00     0.077 A 
HETATM   23  C   UNL     1      24.681  49.081  48.820  1.00  0.00     0.065 A 
HETATM   24  N   UNL     1      23.164  47.701  49.756  1.00  0.00    -0.330 N 
HETATM   25  N   UNL     1      23.409  49.492  48.414  1.00  0.00    -0.331 N 
HETATM   26  C   UNL     1      25.908  49.631  48.541  1.00  0.00     0.074 A 
HETATM   27  C   UNL     1      22.464  48.651  49.009  1.00  0.00     0.176 A 
HETATM   28  H   UNL     1      23.199  50.289  47.827  1.00  0.00     0.168 HD
HETATM   29  S   UNL     1      20.823  48.741  48.886  1.00  0.00    -0.041 SA
HETATM   30  C   UNL     1      27.011  49.008  49.125  1.00  0.00     0.119 A 
HETATM   31  F   UNL     1      28.231  49.511  48.904  1.00  0.00    -0.206 F 
HETATM   32  C   UNL     1      26.884  47.865  49.935  1.00  0.00     0.061 A 
HETATM   33  H   UNL     1      22.751  47.020  50.375  1.00  0.00     0.168 HD
ENDBRANCH   2  21
TORSDOF 9
ENDMDL
MODEL 2
REMARK VINA RESULT:      -8.7      3.285      9.278
REMARK  9 active torsions:
REMARK  status: ('A' for Active; 'I' for Inactive)
REMARK    1  A    between atoms: C_2  and  N_3 
REMARK    2  A    between atoms: N_3  and  C_5 
REMARK    3  A    between atoms: N_3  and  C_29 
REMARK    4  A    between atoms: C_5  and  C_6 
REMARK    5  A    between atoms: C_6  and  O_7 
REMARK    6  A    between atoms: O_7  and  C_8 
REMARK    7  A    between atoms: C_9  and  C_10 
REMARK    8  A    between atoms: C_10  and  N_11 
REMARK       I    between atoms: N_11  and  C_12 
REMARK    9  A    between atoms: C_12  and  C_13 
ROOT
HETATM    1  N   UNL     1      26.065  45.918  51.685  1.00  0.00    -0.352 N 
HETATM    2  C   UNL     1      25.950  44.654  52.245  1.00  0.00     0.254 C 
HETATM    3  O   UNL     1      24.911  44.009  52.281  1.00  0.00    -0.268 OA
HETATM    4  H   UNL     1      26.989  46.138  51.340  1.00  0.00     0.163 HD
ENDROOT
BRANCH   1   5
HETATM    5  C   UNL     1      24.973  46.502  50.928  1.00  0.00     0.164 C 
BRANCH   5   6
HETATM    6  C   UNL     1      25.362  47.642  50.018  1.00  0.00    -0.007 A 
HETATM    7  C   UNL     1      24.426  48.433  49.327  1.00  0.00     0.076 A 
HETATM    8  C   UNL     1      24.882  49.500  48.536  1.00  0.00     0.037 A 
HETATM    9  C   UNL     1      26.246  49.770  48.412  1.00  0.00     0.003 A 
HETATM   10  C   UNL     1      27.174  48.978  49.073  1.00  0.00     0.001 A 
HETATM   11  C   UNL     1      26.734  47.925  49.870  1.00  0.00     0.011 A 
BRANCH   7  12
HETATM   12  O   UNL     1      23.096  48.118  49.495  1.00  0.00    -0.349 OA
BRANCH  12  13
HETATM   13  C   UNL     1      22.244  48.382  48.377  1.00  0.00     0.203 C 
BRANCH  13  14
HETATM   14  C   UNL     1      20.777  48.404  48.822  1.00  0.00     0.261 C 
BRANCH  14  15
HETATM   15  N   UNL     1      20.455  49.429  49.914  1.00  0.00    -0.070 N 
HETATM   16  H   UNL     1      20.915  49.067  50.761  1.00  0.00     0.279 HD
BRANCH  15  17
HETATM   17  C   UNL     1      18.983  49.556  50.273  1.00  0.00     0.230 C 
HETATM   18  C   UNL     1      18.608  48.668  51.445  1.00  0.00     0.034 C 
ENDBRANCH  15  17
BRANCH  15  19
HETATM   19  C   UNL     1      21.053  50.810  49.697  1.00  0.00     0.230 C 
HETATM   20  C   UNL     1      20.276  51.603  48.663  1.00  0.00     0.034 C 
ENDBRANCH  15  19
ENDBRANCH  14  15
ENDBRANCH  13  14
ENDBRANCH  12  13
ENDBRANCH   7  12
ENDBRANCH   5   6
ENDBRANCH   1   5
BRANCH   2  21
HETATM   21  C   UNL     1      27.206  44.050  52.757  1.00  0.00     0.064 A 
HETATM   22  C   UNL     1      27.733  42.863  52.286  1.00  0.00     0.077 A 
HETATM   23  C   UNL     1      28.872  42.283  52.854  1.00  0.00     0.065 A 
HETATM   24  N   UNL     1      27.329  42.041  51.229  1.00  0.00    -0.330 N 
HETATM   25  N   UNL     1      29.141  41.096  52.171  1.00  0.00    -0.331 N 
HETATM   26  C   UNL     1      29.555  42.871  53.891  1.00  0.00     0.074 A 
HETATM   27  C   UNL     1      28.199  40.951  51.149  1.00  0.00     0.176 A 
HETATM   28  H   UNL     1      29.912  40.466  52.352  1.00  0.00     0.168 HD
HETATM   29  S   UNL     1      28.107  39.744  50.032  1.00  0.00    -0.041 SA
HETATM   30  C   UNL     1      29.055  44.091  54.346  1.00  0.00     0.119 A 
HETATM   31  F   UNL     1      29.692  44.719  55.343  1.00  0.00    -0.206 F 
HETATM   32  C   UNL     1      27.903  44.681  53.798  1.00  0.00     0.061 A 
HETATM   33  H   UNL     1      26.604  42.263  50.564  1.00  0.00     0.168 HD
ENDBRANCH   2  21
TORSDOF 9
ENDMDL
MODEL 3
REMARK VINA RESULT:      -8.3      3.990      9.332
REMARK  9 active torsions:
REMARK  status: ('A' for Active; 'I' for Inactive)
REMARK    1  A    between atoms: C_2  and  N_3 
REMARK    2  A    between atoms: N_3  and  C_5 
REMARK    3  A    between atoms: N_3  and  C_29 
REMARK    4  A    between atoms: C_5  and  C_6 
REMARK    5  A    between atoms: C_6  and  O_7 
REMARK    6  A    between atoms: O_7  and  C_8 
REMARK    7  A    between atoms: C_9  and  C_10 
REMARK    8  A    between atoms: C_10  and  N_11 
REMARK       I    between atoms: N_11  and  C_12 
REMARK    9  A    between atoms: C_12  and  C_13 
ROOT
HETATM    1  N   UNL     1      26.212  45.838  51.192  1.00  0.00    -0.352 N 
HETATM    2  C   UNL     1      26.514  45.588  52.522  1.00  0.00     0.254 C 
HETATM    3  O   UNL     1      25.973  46.146  53.467  1.00  0.00    -0.268 OA
HETATM    4  H   UNL     1      26.385  45.059  50.571  1.00  0.00     0.163 HD
ENDROOT
BRANCH   1   5
HETATM    5  C   UNL     1      25.083  46.674  50.825  1.00  0.00     0.164 C 
BRANCH   5   6
HETATM    6  C   UNL     1      25.405  47.810  49.885  1.00  0.00    -0.007 A 
HETATM    7  C   UNL     1      24.422  48.578  49.236  1.00  0.00     0.076 A 
HETATM    8  C   UNL     1      24.817  49.644  48.412  1.00  0.00     0.037 A 
HETATM    9  C   UNL     1      26.169  49.935  48.215  1.00  0.00     0.003 A 
HETATM   10  C   UNL     1      27.143  49.166  48.834  1.00  0.00     0.001 A 
HETATM   11  C   UNL     1      26.763  48.114  49.663  1.00  0.00     0.011 A 
BRANCH   7  12
HETATM   12  O   UNL     1      23.108  48.244  49.476  1.00  0.00    -0.349 OA
BRANCH  12  13
HETATM   13  C   UNL     1      22.358  47.798  48.342  1.00  0.00     0.203 C 
BRANCH  13  14
HETATM   14  C   UNL     1      20.870  47.694  48.699  1.00  0.00     0.261 C 
BRANCH  14  15
HETATM   15  N   UNL     1      20.195  49.030  49.026  1.00  0.00    -0.070 N 
HETATM   16  H   UNL     1      20.720  49.403  49.829  1.00  0.00     0.279 HD
BRANCH  15  17
HETATM   17  C   UNL     1      18.752  48.932  49.494  1.00  0.00     0.230 C 
HETATM   18  C   UNL     1      18.658  48.612  50.975  1.00  0.00     0.034 C 
ENDBRANCH  15  17
BRANCH  15  19
HETATM   19  C   UNL     1      20.314  50.093  47.945  1.00  0.00     0.230 C 
HETATM   20  C   UNL     1      20.687  51.444  48.525  1.00  0.00     0.034 C 
ENDBRANCH  15  19
ENDBRANCH  14  15
ENDBRANCH  13  14
ENDBRANCH  12  13
ENDBRANCH   7  12
ENDBRANCH   5   6
ENDBRANCH   1   5
BRANCH   2  21
HETATM   21  C   UNL     1      27.508  44.515  52.776  1.00  0.00     0.064 A 
HETATM   22  C   UNL     1      28.398  44.529  53.832  1.00  0.00     0.077 A 
HETATM   23  C   UNL     1      29.377  43.542  53.987  1.00  0.00     0.065 A 
HETATM   24  N   UNL     1      28.523  45.414  54.908  1.00  0.00    -0.330 N 
HETATM   25  N   UNL     1      30.119  43.842  55.131  1.00  0.00    -0.331 N 
HETATM   26  C   UNL     1      29.494  42.483  53.121  1.00  0.00     0.074 A 
HETATM   27  C   UNL     1      29.581  44.992  55.717  1.00  0.00     0.176 A 
HETATM   28  H   UNL     1      30.888  43.299  55.503  1.00  0.00     0.168 HD
HETATM   29  S   UNL     1      30.066  45.731  57.108  1.00  0.00    -0.041 SA
HETATM   30  C   UNL     1      28.573  42.436  52.075  1.00  0.00     0.119 A 
HETATM   31  F   UNL     1      28.628  41.415  51.210  1.00  0.00    -0.206 F 
HETATM   32  C   UNL     1      27.593  43.428  51.894  1.00  0.00     0.061 A 
HETATM   33  H   UNL     1      27.881  46.161  55.125  1.00  0.00     0.168 HD
ENDBRANCH   2  21
TORSDOF 9
ENDMDL
MODEL 4
REMARK VINA RESULT:      -8.3      2.383      4.885
REMARK  9 active torsions:
REMARK  status: ('A' for Active; 'I' for Inactive)
REMARK    1  A    between atoms: C_2  and  N_3 
REMARK    2  A    between atoms: N_3  and  C_5 
REMARK    3  A    between atoms: N_3  and  C_29 
REMARK    4  A    between atoms: C_5  and  C_6 
REMARK    5  A    between atoms: C_6  and  O_7 
REMARK    6  A    between atoms: O_7  and  C_8 
REMARK    7  A    between atoms: C_9  and  C_10 
REMARK    8  A    between atoms: C_10  and  N_11 
REMARK       I    between atoms: N_11  and  C_12 
REMARK    9  A    between atoms: C_12  and  C_13 
ROOT
HETATM    1  N   UNL     1      25.867  45.592  51.659  1.00  0.00    -0.352 N 
HETATM    2  C   UNL     1      25.012  45.954  50.629  1.00  0.00     0.254 C 
HETATM    3  O   UNL     1      24.031  45.307  50.290  1.00  0.00    -0.268 OA
HETATM    4  H   UNL     1      26.337  46.368  52.103  1.00  0.00     0.163 HD
ENDROOT
BRANCH   1   5
HETATM    5  C   UNL     1      25.549  44.484  52.541  1.00  0.00     0.164 C 
BRANCH   5   6
HETATM    6  C   UNL     1      26.672  43.503  52.769  1.00  0.00    -0.007 A 
HETATM    7  C   UNL     1      27.543  43.568  53.873  1.00  0.00     0.076 A 
HETATM    8  C   UNL     1      28.533  42.584  54.024  1.00  0.00     0.037 A 
HETATM    9  C   UNL     1      28.676  41.559  53.086  1.00  0.00     0.003 A 
HETATM   10  C   UNL     1      27.835  41.504  51.984  1.00  0.00     0.001 A 
HETATM   11  C   UNL     1      26.842  42.467  51.830  1.00  0.00     0.011 A 
BRANCH   7  12
HETATM   12  O   UNL     1      27.346  44.600  54.763  1.00  0.00    -0.349 OA
BRANCH  12  13
HETATM   13  C   UNL     1      28.143  45.769  54.553  1.00  0.00     0.203 C 
BRANCH  13  14
HETATM   14  C   UNL     1      28.701  46.277  55.888  1.00  0.00     0.261 C 
BRANCH  14  15
HETATM   15  N   UNL     1      29.482  45.236  56.694  1.00  0.00    -0.070 N 
HETATM   16  H   UNL     1      28.895  44.390  56.673  1.00  0.00     0.279 HD
BRANCH  15  17
HETATM   17  C   UNL     1      29.674  45.562  58.166  1.00  0.00     0.230 C 
HETATM   18  C   UNL     1      30.963  46.324  58.413  1.00  0.00     0.034 C 
ENDBRANCH  15  17
BRANCH  15  19
HETATM   19  C   UNL     1      30.810  44.813  56.083  1.00  0.00     0.230 C 
HETATM   20  C   UNL     1      31.140  43.367  56.405  1.00  0.00     0.034 C 
ENDBRANCH  15  19
ENDBRANCH  14  15
ENDBRANCH  13  14
ENDBRANCH  12  13
ENDBRANCH   7  12
ENDBRANCH   5   6
ENDBRANCH   1   5
BRANCH   2  21
HETATM   21  C   UNL     1      25.298  47.253  49.969  1.00  0.00     0.064 A 
HETATM   22  C   UNL     1      24.317  48.103  49.494  1.00  0.00     0.077 A 
HETATM   23  C   UNL     1      24.630  49.277  48.802  1.00  0.00     0.065 A 
HETATM   24  N   UNL     1      22.924  48.033  49.591  1.00  0.00    -0.330 N 
HETATM   25  N   UNL     1      23.433  49.903  48.446  1.00  0.00    -0.331 N 
HETATM   26  C   UNL     1      25.925  49.676  48.579  1.00  0.00     0.074 A 
HETATM   27  C   UNL     1      22.372  49.145  48.951  1.00  0.00     0.176 A 
HETATM   28  H   UNL     1      23.344  50.779  47.947  1.00  0.00     0.168 HD
HETATM   29  S   UNL     1      20.762  49.477  48.843  1.00  0.00    -0.041 SA
HETATM   30  C   UNL     1      26.923  48.846  49.092  1.00  0.00     0.119 A 
HETATM   31  F   UNL     1      28.204  49.194  48.921  1.00  0.00    -0.206 F 
HETATM   32  C   UNL     1      26.628  47.654  49.776  1.00  0.00     0.061 A 
HETATM   33  H   UNL     1      22.412  47.356  50.135  1.00  0.00     0.168 HD
ENDBRANCH   2  21
TORSDOF 9
ENDMDL
MODEL 5
REMARK VINA RESULT:      -8.1      1.564      2.191
REMARK  9 active torsions:
REMARK  status: ('A' for Active; 'I' for Inactive)
REMARK    1  A    between atoms: C_2  and  N_3 
REMARK    2  A    between atoms: N_3  and  C_5 
REMARK    3  A    between atoms: N_3  and  C_29 
REMARK    4  A    between atoms: C_5  and  C_6 
REMARK    5  A    between atoms: C_6  and  O_7 
REMARK    6  A    between atoms: O_7  and  C_8 
REMARK    7  A    between atoms: C_9  and  C_10 
REMARK    8  A    between atoms: C_10  and  N_11 
REMARK       I    between atoms: N_11  and  C_12 
REMARK    9  A    between atoms: C_12  and  C_13 
ROOT
HETATM    1  N   UNL     1      25.502  46.871  51.869  1.00  0.00    -0.352 N 
HETATM    2  C   UNL     1      25.322  46.646  50.512  1.00  0.00     0.254 C 
HETATM    3  O   UNL     1      25.302  45.537  49.996  1.00  0.00    -0.268 OA
HETATM    4  H   UNL     1      25.082  47.726  52.208  1.00  0.00     0.163 HD
ENDROOT
BRANCH   1   5
HETATM    5  C   UNL     1      25.503  45.772  52.816  1.00  0.00     0.164 C 
BRANCH   5   6
HETATM    6  C   UNL     1      26.669  45.753  53.775  1.00  0.00    -0.007 A 
HETATM    7  C   UNL     1      27.298  44.570  54.202  1.00  0.00     0.076 A 
HETATM    8  C   UNL     1      28.405  44.654  55.063  1.00  0.00     0.037 A 
HETATM    9  C   UNL     1      28.872  45.891  55.512  1.00  0.00     0.003 A 
HETATM   10  C   UNL     1      28.240  47.060  55.111  1.00  0.00     0.001 A 
HETATM   11  C   UNL     1      27.149  46.989  54.249  1.00  0.00     0.011 A 
BRANCH   7  12
HETATM   12  O   UNL     1      26.793  43.384  53.720  1.00  0.00    -0.349 OA
BRANCH  12  13
HETATM   13  C   UNL     1      27.758  42.385  53.376  1.00  0.00     0.203 C 
BRANCH  13  14
HETATM   14  C   UNL     1      27.748  42.137  51.863  1.00  0.00     0.261 C 
BRANCH  14  15
HETATM   15  N   UNL     1      27.413  40.701  51.451  1.00  0.00    -0.070 N 
HETATM   16  H   UNL     1      27.193  40.217  52.332  1.00  0.00     0.279 HD
BRANCH  15  17
HETATM   17  C   UNL     1      28.559  39.918  50.830  1.00  0.00     0.230 C 
HETATM   18  C   UNL     1      28.423  39.816  49.322  1.00  0.00     0.034 C 
ENDBRANCH  15  17
BRANCH  15  19
HETATM   19  C   UNL     1      26.165  40.552  50.594  1.00  0.00     0.230 C 
HETATM   20  C   UNL     1      25.404  41.860  50.479  1.00  0.00     0.034 C 
ENDBRANCH  15  19
ENDBRANCH  14  15
ENDBRANCH  13  14
ENDBRANCH  12  13
ENDBRANCH   7  12
ENDBRANCH   5   6
ENDBRANCH   1   5
BRANCH   2  21
HETATM   21  C   UNL     1      25.068  47.847  49.678  1.00  0.00     0.064 A 
HETATM   22  C   UNL     1      23.813  48.229  49.245  1.00  0.00     0.077 A 
HETATM   23  C   UNL     1      23.625  49.318  48.389  1.00  0.00     0.065 A 
HETATM   24  N   UNL     1      22.549  47.703  49.535  1.00  0.00    -0.330 N 
HETATM   25  N   UNL     1      22.259  49.436  48.128  1.00  0.00    -0.331 N 
HETATM   26  C   UNL     1      24.670  50.096  47.952  1.00  0.00     0.074 A 
HETATM   27  C   UNL     1      21.585  48.448  48.852  1.00  0.00     0.176 A 
HETATM   28  H   UNL     1      21.821  50.141  47.550  1.00  0.00     0.168 HD
HETATM   29  S   UNL     1      19.959  48.189  48.924  1.00  0.00    -0.041 SA
HETATM   30  C   UNL     1      25.937  49.745  48.417  1.00  0.00     0.119 A 
HETATM   31  F   UNL     1      26.991  50.479  48.038  1.00  0.00    -0.206 F 
HETATM   32  C   UNL     1      26.146  48.643  49.265  1.00  0.00     0.061 A 
HETATM   33  H   UNL     1      22.361  46.983  50.215  1.00  0.00     0.168 HD
ENDBRANCH   2  21
TORSDOF 9
ENDMDL
MODEL 6
REMARK VINA RESULT:      -8.1      1.836      4.582
REMARK  9 active torsions:
REMARK  status: ('A' for Active; 'I' for Inactive)
REMARK    1  A    between atoms: C_2  and  N_3 
REMARK    2  A    between atoms: N_3  and  C_5 
REMARK    3  A    between atoms: N_3  and  C_29 
REMARK    4  A    between atoms: C_5  and  C_6 
REMARK    5  A    between atoms: C_6  and  O_7 
REMARK    6  A    between atoms: O_7  and  C_8 
REMARK    7  A    between atoms: C_9  and  C_10 
REMARK    8  A    between atoms: C_10  and  N_11 
REMARK       I    between atoms: N_11  and  C_12 
REMARK    9  A    between atoms: C_12  and  C_13 
ROOT
HETATM    1  N   UNL     1      25.838  44.939  50.967  1.00  0.00    -0.352 N 
HETATM    2  C   UNL     1      24.845  45.629  50.287  1.00  0.00     0.254 C 
HETATM    3  O   UNL     1      23.709  45.210  50.118  1.00  0.00    -0.268 OA
HETATM    4  H   UNL     1      26.536  45.530  51.398  1.00  0.00     0.163 HD
ENDROOT
BRANCH   1   5
HETATM    5  C   UNL     1      25.537  43.718  51.693  1.00  0.00     0.164 C 
BRANCH   5   6
HETATM    6  C   UNL     1      26.523  42.593  51.490  1.00  0.00    -0.007 A 
HETATM    7  C   UNL     1      27.801  42.570  52.079  1.00  0.00     0.076 A 
HETATM    8  C   UNL     1      28.633  41.459  51.868  1.00  0.00     0.037 A 
HETATM    9  C   UNL     1      28.217  40.393  51.068  1.00  0.00     0.003 A 
HETATM   10  C   UNL     1      26.967  40.421  50.466  1.00  0.00     0.001 A 
HETATM   11  C   UNL     1      26.128  41.512  50.678  1.00  0.00     0.011 A 
BRANCH   7  12
HETATM   12  O   UNL     1      28.148  43.650  52.860  1.00  0.00    -0.349 OA
BRANCH  12  13
HETATM   13  C   UNL     1      28.224  43.405  54.268  1.00  0.00     0.203 C 
BRANCH  13  14
HETATM   14  C   UNL     1      29.661  43.610  54.764  1.00  0.00     0.261 C 
BRANCH  14  15
HETATM   15  N   UNL     1      29.880  44.885  55.584  1.00  0.00    -0.070 N 
HETATM   16  H   UNL     1      30.396  45.518  54.958  1.00  0.00     0.279 HD
BRANCH  15  17
HETATM   17  C   UNL     1      30.759  44.724  56.814  1.00  0.00     0.230 C 
HETATM   18  C   UNL     1      31.424  43.360  56.859  1.00  0.00     0.034 C 
ENDBRANCH  15  17
BRANCH  15  19
HETATM   19  C   UNL     1      28.611  45.638  55.953  1.00  0.00     0.230 C 
HETATM   20  C   UNL     1      28.446  46.899  55.126  1.00  0.00     0.034 C 
ENDBRANCH  15  19
ENDBRANCH  14  15
ENDBRANCH  13  14
ENDBRANCH  12  13
ENDBRANCH   7  12
ENDBRANCH   5   6
ENDBRANCH   1   5
BRANCH   2  21
HETATM   21  C   UNL     1      25.202  46.991  49.815  1.00  0.00     0.064 A 
HETATM   22  C   UNL     1      24.271  47.950  49.467  1.00  0.00     0.077 A 
HETATM   23  C   UNL     1      24.649  49.191  48.944  1.00  0.00     0.065 A 
HETATM   24  N   UNL     1      22.875  47.942  49.558  1.00  0.00    -0.330 N 
HETATM   25  N   UNL     1      23.489  49.923  48.683  1.00  0.00    -0.331 N 
HETATM   26  C   UNL     1      25.964  49.546  48.775  1.00  0.00     0.074 A 
HETATM   27  C   UNL     1      22.387  49.160  49.081  1.00  0.00     0.176 A 
HETATM   28  H   UNL     1      23.448  50.864  48.312  1.00  0.00     0.168 HD
HETATM   29  S   UNL     1      20.797  49.589  49.026  1.00  0.00    -0.041 SA
HETATM   30  C   UNL     1      26.914  48.601  49.163  1.00  0.00     0.119 A 
HETATM   31  F   UNL     1      28.213  48.900  49.038  1.00  0.00    -0.206 F 
HETATM   32  C   UNL     1      26.553  47.342  49.675  1.00  0.00     0.061 A 
HETATM   33  H   UNL     1      22.326  47.223  50.003  1.00  0.00     0.168 HD
ENDBRANCH   2  21
TORSDOF 9
ENDMDL
MODEL 7
REMARK VINA RESULT:      -7.8      4.437      6.402
REMARK  9 active torsions:
REMARK  status: ('A' for Active; 'I' for Inactive)
REMARK    1  A    between atoms: C_2  and  N_3 
REMARK    2  A    between atoms: N_3  and  C_5 
REMARK    3  A    between atoms: N_3  and  C_29 
REMARK    4  A    between atoms: C_5  and  C_6 
REMARK    5  A    between atoms: C_6  and  O_7 
REMARK    6  A    between atoms: O_7  and  C_8 
REMARK    7  A    between atoms: C_9  and  C_10 
REMARK    8  A    between atoms: C_10  and  N_11 
REMARK       I    between atoms: N_11  and  C_12 
REMARK    9  A    between atoms: C_12  and  C_13 
ROOT
HETATM    1  N   UNL     1      28.460  42.115  53.764  1.00  0.00    -0.352 N 
HETATM    2  C   UNL     1      29.687  42.748  53.897  1.00  0.00     0.254 C 
HETATM    3  O   UNL     1      30.626  42.596  53.128  1.00  0.00    -0.268 OA
HETATM    4  H   UNL     1      27.683  42.623  54.164  1.00  0.00     0.163 HD
ENDROOT
BRANCH   1   5
HETATM    5  C   UNL     1      28.141  41.343  52.576  1.00  0.00     0.164 C 
BRANCH   5   6
HETATM    6  C   UNL     1      27.391  42.097  51.505  1.00  0.00    -0.007 A 
HETATM    7  C   UNL     1      26.385  41.516  50.711  1.00  0.00     0.076 A 
HETATM    8  C   UNL     1      25.712  42.309  49.769  1.00  0.00     0.037 A 
HETATM    9  C   UNL     1      26.041  43.655  49.597  1.00  0.00     0.003 A 
HETATM   10  C   UNL     1      27.048  44.227  50.361  1.00  0.00     0.001 A 
HETATM   11  C   UNL     1      27.714  43.454  51.308  1.00  0.00     0.011 A 
BRANCH   7  12
HETATM   12  O   UNL     1      26.105  40.186  50.933  1.00  0.00    -0.349 OA
BRANCH  12  13
HETATM   13  C   UNL     1      26.399  39.295  49.853  1.00  0.00     0.203 C 
BRANCH  13  14
HETATM   14  C   UNL     1      27.908  39.032  49.779  1.00  0.00     0.261 C 
BRANCH  14  15
HETATM   15  N   UNL     1      28.516  39.174  48.381  1.00  0.00    -0.070 N 
HETATM   16  H   UNL     1      29.476  38.814  48.472  1.00  0.00     0.279 HD
BRANCH  15  17
HETATM   17  C   UNL     1      28.662  40.601  47.877  1.00  0.00     0.230 C 
HETATM   18  C   UNL     1      27.649  40.924  46.794  1.00  0.00     0.034 C 
ENDBRANCH  15  17
BRANCH  15  19
HETATM   19  C   UNL     1      27.869  38.313  47.307  1.00  0.00     0.230 C 
HETATM   20  C   UNL     1      28.861  37.343  46.692  1.00  0.00     0.034 C 
ENDBRANCH  15  19
ENDBRANCH  14  15
ENDBRANCH  13  14
ENDBRANCH  12  13
ENDBRANCH   7  12
ENDBRANCH   5   6
ENDBRANCH   1   5
BRANCH   2  21
HETATM   21  C   UNL     1      29.802  43.721  55.013  1.00  0.00     0.064 A 
HETATM   22  C   UNL     1      29.023  44.856  55.124  1.00  0.00     0.077 A 
HETATM   23  C   UNL     1      29.222  45.792  56.144  1.00  0.00     0.065 A 
HETATM   24  N   UNL     1      27.944  45.301  54.352  1.00  0.00    -0.330 N 
HETATM   25  N   UNL     1      28.293  46.821  55.975  1.00  0.00    -0.331 N 
HETATM   26  C   UNL     1      30.179  45.627  57.115  1.00  0.00     0.074 A 
HETATM   27  C   UNL     1      27.485  46.511  54.877  1.00  0.00     0.176 A 
HETATM   28  H   UNL     1      28.189  47.633  56.570  1.00  0.00     0.168 HD
HETATM   29  S   UNL     1      26.213  47.379  54.291  1.00  0.00    -0.041 SA
HETATM   30  C   UNL     1      30.943  44.463  57.036  1.00  0.00     0.119 A 
HETATM   31  F   UNL     1      31.879  44.240  57.967  1.00  0.00    -0.206 F 
HETATM   32  C   UNL     1      30.768  43.519  56.009  1.00  0.00     0.061 A 
HETATM   33  H   UNL     1      27.499  44.775  53.616  1.00  0.00     0.168 HD
ENDBRANCH   2  21
TORSDOF 9
ENDMDL
MODEL 8
REMARK VINA RESULT:      -7.7      4.047      9.184
REMARK  9 active torsions:
REMARK  status: ('A' for Active; 'I' for Inactive)
REMARK    1  A    between atoms: C_2  and  N_3 
REMARK    2  A    between atoms: N_3  and  C_5 
REMARK    3  A    between atoms: N_3  and  C_29 
REMARK    4  A    between atoms: C_5  and  C_6 
REMARK    5  A    between atoms: C_6  and  O_7 
REMARK    6  A    between atoms: O_7  and  C_8 
REMARK    7  A    between atoms: C_9  and  C_10 
REMARK    8  A    between atoms: C_10  and  N_11 
REMARK       I    between atoms: N_11  and  C_12 
REMARK    9  A    between atoms: C_12  and  C_13 
ROOT
HETATM    1  N   UNL     1      25.519  46.042  51.839  1.00  0.00    -0.352 N 
HETATM    2  C   UNL     1      26.352  44.934  51.852  1.00  0.00     0.254 C 
HETATM    3  O   UNL     1      26.408  44.105  50.954  1.00  0.00    -0.268 OA
HETATM    4  H   UNL     1      25.860  46.827  52.377  1.00  0.00     0.163 HD
ENDROOT
BRANCH   1   5
HETATM    5  C   UNL     1      24.764  46.398  50.650  1.00  0.00     0.164 C 
BRANCH   5   6
HETATM    6  C   UNL     1      25.319  47.559  49.863  1.00  0.00    -0.007 A 
HETATM    7  C   UNL     1      24.511  48.542  49.262  1.00  0.00     0.076 A 
HETATM    8  C   UNL     1      25.120  49.611  48.585  1.00  0.00     0.037 A 
HETATM    9  C   UNL     1      26.510  49.698  48.484  1.00  0.00     0.003 A 
HETATM   10  C   UNL     1      27.311  48.719  49.054  1.00  0.00     0.001 A 
HETATM   11  C   UNL     1      26.719  47.661  49.739  1.00  0.00     0.011 A 
BRANCH   7  12
HETATM   12  O   UNL     1      23.148  48.401  49.403  1.00  0.00    -0.349 OA
BRANCH  12  13
HETATM   13  C   UNL     1      22.343  49.173  48.506  1.00  0.00     0.203 C 
BRANCH  13  14
HETATM   14  C   UNL     1      21.609  50.280  49.273  1.00  0.00     0.261 C 
BRANCH  14  15
HETATM   15  N   UNL     1      20.097  50.331  49.034  1.00  0.00    -0.070 N 
HETATM   16  H   UNL     1      19.993  50.691  48.076  1.00  0.00     0.279 HD
BRANCH  15  17
HETATM   17  C   UNL     1      19.330  51.300  49.920  1.00  0.00     0.230 C 
HETATM   18  C   UNL     1      18.595  52.348  49.106  1.00  0.00     0.034 C 
ENDBRANCH  15  17
BRANCH  15  19
HETATM   19  C   UNL     1      19.401  48.978  49.028  1.00  0.00     0.230 C 
HETATM   20  C   UNL     1      18.961  48.567  50.421  1.00  0.00     0.034 C 
ENDBRANCH  15  19
ENDBRANCH  14  15
ENDBRANCH  13  14
ENDBRANCH  12  13
ENDBRANCH   7  12
ENDBRANCH   5   6
ENDBRANCH   1   5
BRANCH   2  21
HETATM   21  C   UNL     1      27.272  44.822  53.011  1.00  0.00     0.064 A 
HETATM   22  C   UNL     1      27.335  45.750  54.033  1.00  0.00     0.077 A 
HETATM   23  C   UNL     1      28.276  45.653  55.063  1.00  0.00     0.065 A 
HETATM   24  N   UNL     1      26.553  46.881  54.287  1.00  0.00    -0.330 N 
HETATM   25  N   UNL     1      28.093  46.738  55.922  1.00  0.00    -0.331 N 
HETATM   26  C   UNL     1      29.172  44.615  55.142  1.00  0.00     0.074 A 
HETATM   27  C   UNL     1      27.012  47.492  55.456  1.00  0.00     0.176 A 
HETATM   28  H   UNL     1      28.620  46.927  56.764  1.00  0.00     0.168 HD
HETATM   29  S   UNL     1      26.364  48.845  56.137  1.00  0.00    -0.041 SA
HETATM   30  C   UNL     1      29.089  43.649  54.139  1.00  0.00     0.119 A 
HETATM   31  F   UNL     1      29.925  42.604  54.176  1.00  0.00    -0.206 F 
HETATM   32  C   UNL     1      28.160  43.739  53.087  1.00  0.00     0.061 A 
HETATM   33  H   UNL     1      25.723  47.141  53.776  1.00  0.00     0.168 HD
ENDBRANCH   2  21
TORSDOF 9
ENDMDL
MODEL 9
REMARK VINA RESULT:      -7.7      1.916      4.953
REMARK  9 active torsions:
REMARK  status: ('A' for Active; 'I' for Inactive)
REMARK    1  A    between atoms: C_2  and  N_3 
REMARK    2  A    between atoms: N_3  and  C_5 
REMARK    3  A    between atoms: N_3  and  C_29 
REMARK    4  A    between atoms: C_5  and  C_6 
REMARK    5  A    between atoms: C_6  and  O_7 
REMARK    6  A    between atoms: O_7  and  C_8 
REMARK    7  A    between atoms: C_9  and  C_10 
REMARK    8  A    between atoms: C_10  and  N_11 
REMARK       I    between atoms: N_11  and  C_12 
REMARK    9  A    between atoms: C_12  and  C_13 
ROOT
HETATM    1  N   UNL     1      25.585  43.912  50.126  1.00  0.00    -0.352 N 
HETATM    2  C   UNL     1      24.647  44.907  50.354  1.00  0.00     0.254 C 
HETATM    3  O   UNL     1      23.567  44.723  50.898  1.00  0.00    -0.268 OA
HETATM    4  H   UNL     1      26.540  44.240  50.086  1.00  0.00     0.163 HD
ENDROOT
BRANCH   1   5
HETATM    5  C   UNL     1      25.418  42.584  50.688  1.00  0.00     0.164 C 
BRANCH   5   6
HETATM    6  C   UNL     1      26.674  41.965  51.253  1.00  0.00    -0.007 A 
HETATM    7  C   UNL     1      27.330  42.455  52.397  1.00  0.00     0.076 A 
HETATM    8  C   UNL     1      28.469  41.786  52.874  1.00  0.00     0.037 A 
HETATM    9  C   UNL     1      28.966  40.658  52.217  1.00  0.00     0.003 A 
HETATM   10  C   UNL     1      28.337  40.185  51.075  1.00  0.00     0.001 A 
HETATM   11  C   UNL     1      27.199  40.833  50.600  1.00  0.00     0.011 A 
BRANCH   7  12
HETATM   12  O   UNL     1      26.786  43.566  53.001  1.00  0.00    -0.349 OA
BRANCH  12  13
HETATM   13  C   UNL     1      27.235  43.839  54.332  1.00  0.00     0.203 C 
BRANCH  13  14
HETATM   14  C   UNL     1      28.162  45.061  54.338  1.00  0.00     0.261 C 
BRANCH  14  15
HETATM   15  N   UNL     1      27.858  46.089  55.431  1.00  0.00    -0.070 N 
HETATM   16  H   UNL     1      27.066  45.692  55.956  1.00  0.00     0.279 HD
BRANCH  15  17
HETATM   17  C   UNL     1      27.379  47.444  54.935  1.00  0.00     0.230 C 
HETATM   18  C   UNL     1      26.133  47.324  54.078  1.00  0.00     0.034 C 
ENDBRANCH  15  17
BRANCH  15  19
HETATM   19  C   UNL     1      28.961  46.279  56.461  1.00  0.00     0.230 C 
HETATM   20  C   UNL     1      30.067  45.253  56.294  1.00  0.00     0.034 C 
ENDBRANCH  15  19
ENDBRANCH  14  15
ENDBRANCH  13  14
ENDBRANCH  12  13
ENDBRANCH   7  12
ENDBRANCH   5   6
ENDBRANCH   1   5
BRANCH   2  21
HETATM   21  C   UNL     1      25.047  46.283  49.967  1.00  0.00     0.064 A 
HETATM   22  C   UNL     1      24.150  47.268  49.600  1.00  0.00     0.077 A 
HETATM   23  C   UNL     1      24.573  48.526  49.159  1.00  0.00     0.065 A 
HETATM   24  N   UNL     1      22.751  47.273  49.598  1.00  0.00    -0.330 N 
HETATM   25  N   UNL     1      23.440  49.283  48.854  1.00  0.00    -0.331 N 
HETATM   26  C   UNL     1      25.900  48.872  49.093  1.00  0.00     0.074 A 
HETATM   27  C   UNL     1      22.306  48.517  49.144  1.00  0.00     0.176 A 
HETATM   28  H   UNL     1      23.432  50.239  48.523  1.00  0.00     0.168 HD
HETATM   29  S   UNL     1      20.728  48.967  49.004  1.00  0.00    -0.041 SA
HETATM   30  C   UNL     1      26.813  47.899  49.501  1.00  0.00     0.119 A 
HETATM   31  F   UNL     1      28.120  48.188  49.475  1.00  0.00    -0.206 F 
HETATM   32  C   UNL     1      26.407  46.624  49.932  1.00  0.00     0.061 A 
HETATM   33  H   UNL     1      22.166  46.543  49.975  1.00  0.00     0.168 HD
ENDBRANCH   2  21
TORSDOF 9
ENDMDL
MODEL 10
REMARK VINA RESULT:      -7.6      3.097      7.101
REMARK  9 active torsions:
REMARK  status: ('A' for Active; 'I' for Inactive)
REMARK    1  A    between atoms: C_2  and  N_3 
REMARK    2  A    between atoms: N_3  and  C_5 
REMARK    3  A    between atoms: N_3  and  C_29 
REMARK    4  A    between atoms: C_5  and  C_6 
REMARK    5  A    between atoms: C_6  and  O_7 
REMARK    6  A    between atoms: O_7  and  C_8 
REMARK    7  A    between atoms: C_9  and  C_10 
REMARK    8  A    between atoms: C_10  and  N_11 
REMARK       I    between atoms: N_11  and  C_12 
REMARK    9  A    between atoms: C_12  and  C_13 
ROOT
HETATM    1  N   UNL     1      27.883  42.704  52.957  1.00  0.00    -0.352 N 
HETATM    2  C   UNL     1      28.005  41.346  52.709  1.00  0.00     0.254 C 
HETATM    3  O   UNL     1      28.319  40.518  53.553  1.00  0.00    -0.268 OA
HETATM    4  H   UNL     1      27.234  43.183  52.348  1.00  0.00     0.163 HD
ENDROOT
BRANCH   1   5
HETATM    5  C   UNL     1      27.951  43.227  54.310  1.00  0.00     0.164 C 
BRANCH   5   6
HETATM    6  C   UNL     1      27.843  44.728  54.423  1.00  0.00    -0.007 A 
HETATM    7  C   UNL     1      26.846  45.482  53.777  1.00  0.00     0.076 A 
HETATM    8  C   UNL     1      26.799  46.871  53.977  1.00  0.00     0.037 A 
HETATM    9  C   UNL     1      27.739  47.512  54.788  1.00  0.00     0.003 A 
HETATM   10  C   UNL     1      28.738  46.776  55.408  1.00  0.00     0.001 A 
HETATM   11  C   UNL     1      28.787  45.396  55.228  1.00  0.00     0.011 A 
BRANCH   7  12
HETATM   12  O   UNL     1      25.948  44.790  52.996  1.00  0.00    -0.349 OA
BRANCH  12  13
HETATM   13  C   UNL     1      25.255  45.559  52.008  1.00  0.00     0.203 C 
BRANCH  13  14
HETATM   14  C   UNL     1      26.064  45.600  50.705  1.00  0.00     0.261 C 
BRANCH  14  15
HETATM   15  N   UNL     1      25.640  46.695  49.722  1.00  0.00    -0.070 N 
HETATM   16  H   UNL     1      26.006  46.388  48.810  1.00  0.00     0.279 HD
BRANCH  15  17
HETATM   17  C   UNL     1      26.256  48.063  49.967  1.00  0.00     0.230 C 
HETATM   18  C   UNL     1      27.475  48.299  49.095  1.00  0.00     0.034 C 
ENDBRANCH  15  17
BRANCH  15  19
HETATM   19  C   UNL     1      24.139  46.834  49.522  1.00  0.00     0.230 C 
HETATM   20  C   UNL     1      23.704  48.288  49.527  1.00  0.00     0.034 C 
ENDBRANCH  15  19
ENDBRANCH  14  15
ENDBRANCH  13  14
ENDBRANCH  12  13
ENDBRANCH   7  12
ENDBRANCH   5   6
ENDBRANCH   1   5
BRANCH   2  21
HETATM   21  C   UNL     1      27.652  40.897  51.338  1.00  0.00     0.064 A 
HETATM   22  C   UNL     1      26.476  41.240  50.699  1.00  0.00     0.077 A 
HETATM   23  C   UNL     1      26.142  40.727  49.442  1.00  0.00     0.065 A 
HETATM   24  N   UNL     1      25.446  42.104  51.085  1.00  0.00    -0.330 N 
HETATM   25  N   UNL     1      24.898  41.246  49.077  1.00  0.00    -0.331 N 
HETATM   26  C   UNL     1      26.973  39.879  48.751  1.00  0.00     0.074 A 
HETATM   27  C   UNL     1      24.472  42.117  50.084  1.00  0.00     0.176 A 
HETATM   28  H   UNL     1      24.406  41.063  48.213  1.00  0.00     0.168 HD
HETATM   29  S   UNL     1      23.092  43.018  50.114  1.00  0.00    -0.041 SA
HETATM   30  C   UNL     1      28.182  39.561  49.369  1.00  0.00     0.119 A 
HETATM   31  F   UNL     1      29.041  38.753  48.733  1.00  0.00    -0.206 F 
HETATM   32  C   UNL     1      28.528  40.054  50.639  1.00  0.00     0.061 A 
HETATM   33  H   UNL     1      25.465  42.706  51.894  1.00  0.00     0.168 HD
ENDBRANCH   2  21
TORSDOF 9
ENDMDL
