MODEL 1
REMARK VINA RESULT:      -8.3      0.000      0.000
REMARK  6 active torsions:
REMARK  status: ('A' for Active; 'I' for Inactive)
REMARK    1  A    between atoms: C_2  and  O_3 
REMARK    2  A    between atoms: O_3  and  C_4 
REMARK    3  A    between atoms: C_7  and  N_8 
REMARK    4  A    between atoms: N_8  and  C_9 
REMARK    5  A    between atoms: C_9  and  C_10 
REMARK    6  A    between atoms: C_17  and  O_18 
ROOT
HETATM    1  C   UNL     1      26.072  44.139  50.903  1.00  0.00     0.024 A 
HETATM    2  C   UNL     1      24.586  44.289  51.006  1.00  0.00     0.253 A 
HETATM    3  O   UNL     1      23.873  43.370  51.400  1.00  0.00    -0.268 OA
HETATM    4  N   UNL     1      24.049  45.495  50.642  1.00  0.00    -0.322 N 
HETATM    5  C   UNL     1      24.804  46.567  50.158  1.00  0.00     0.048 A 
HETATM    6  C   UNL     1      26.189  46.428  50.041  1.00  0.00    -0.009 A 
HETATM    7  C   UNL     1      24.174  47.755  49.789  1.00  0.00     0.067 A 
HETATM    8  C   UNL     1      24.928  48.821  49.289  1.00  0.00     0.070 A 
HETATM    9  C   UNL     1      26.313  48.686  49.169  1.00  0.00     0.038 A 
HETATM   10  C   UNL     1      26.943  47.492  49.545  1.00  0.00     0.016 A 
HETATM   11  C   UNL     1      26.811  45.165  50.439  1.00  0.00     0.027 A 
HETATM   12  H   UNL     1      23.043  45.574  50.722  1.00  0.00     0.169 HD
ENDROOT
BRANCH   1  13
HETATM   13  C   UNL     1      26.594  42.790  51.325  1.00  0.00     0.136 C 
BRANCH  13  14
HETATM   14  N   UNL     1      26.594  42.674  52.787  1.00  0.00    -0.289 NA
HETATM   15  H   UNL     1      26.463  41.706  53.072  1.00  0.00     0.128 HD
BRANCH  14  16
HETATM   16  C   UNL     1      27.647  43.254  53.511  1.00  0.00     0.008 A 
HETATM   17  C   UNL     1      27.522  44.426  54.260  1.00  0.00     0.026 A 
HETATM   18  C   UNL     1      28.589  44.908  55.031  1.00  0.00     0.038 A 
HETATM   19  C   UNL     1      29.795  44.214  55.096  1.00  0.00     0.068 A 
HETATM   20  C   UNL     1      29.923  43.023  54.388  1.00  0.00     0.038 A 
HETATM   21  C   UNL     1      28.851  42.545  53.620  1.00  0.00     0.026 A 
BRANCH  19  22
HETATM   22  O   UNL     1      30.748  44.790  55.888  1.00  0.00    -0.352 OA
BRANCH  22  23
HETATM   23  C   UNL     1      30.871  44.297  57.220  1.00  0.00     0.171 C 
HETATM   24  C   UNL     1      32.054  43.346  57.259  1.00  0.00     0.034 C 
ENDBRANCH  22  23
ENDBRANCH  19  22
ENDBRANCH  14  16
ENDBRANCH  13  14
ENDBRANCH   1  13
BRANCH   8  25
HETATM   25  O   UNL     1      24.197  49.929  48.956  1.00  0.00    -0.356 OA
HETATM   26  C   UNL     1      23.106  49.738  48.064  1.00  0.00     0.210 C 
ENDBRANCH   8  25
TORSDOF 6
ENDMDL
MODEL 2
REMARK VINA RESULT:      -8.0      1.994      8.685
REMARK  6 active torsions:
REMARK  status: ('A' for Active; 'I' for Inactive)
REMARK    1  A    between atoms: C_2  and  O_3 
REMARK    2  A    between atoms: O_3  and  C_4 
REMARK    3  A    between atoms: C_7  and  N_8 
REMARK    4  A    between atoms: N_8  and  C_9 
REMARK    5  A    between atoms: C_9  and  C_10 
REMARK    6  A    between atoms: C_17  and  O_18 
ROOT
HETATM    1  C   UNL     1      26.648  45.529  52.613  1.00  0.00     0.024 A 
HETATM    2  C   UNL     1      26.595  46.671  53.582  1.00  0.00     0.253 A 
HETATM    3  O   UNL     1      25.814  47.605  53.433  1.00  0.00    -0.268 OA
HETATM    4  N   UNL     1      27.458  46.633  54.644  1.00  0.00    -0.322 N 
HETATM    5  C   UNL     1      28.392  45.613  54.852  1.00  0.00     0.048 A 
HETATM    6  C   UNL     1      28.458  44.555  53.941  1.00  0.00    -0.009 A 
HETATM    7  C   UNL     1      29.249  45.662  55.950  1.00  0.00     0.067 A 
HETATM    8  C   UNL     1      30.194  44.650  56.147  1.00  0.00     0.070 A 
HETATM    9  C   UNL     1      30.265  43.591  55.239  1.00  0.00     0.038 A 
HETATM   10  C   UNL     1      29.399  43.542  54.139  1.00  0.00     0.016 A 
HETATM   11  C   UNL     1      27.541  44.541  52.802  1.00  0.00     0.027 A 
HETATM   12  H   UNL     1      27.405  47.413  55.286  1.00  0.00     0.169 HD
ENDROOT
BRANCH   1  13
HETATM   13  C   UNL     1      25.668  45.634  51.473  1.00  0.00     0.136 C 
BRANCH  13  14
HETATM   14  N   UNL     1      26.231  46.439  50.384  1.00  0.00    -0.289 NA
HETATM   15  H   UNL     1      26.580  45.842  49.637  1.00  0.00     0.128 HD
BRANCH  14  16
HETATM   16  C   UNL     1      25.463  47.485  49.850  1.00  0.00     0.008 A 
HETATM   17  C   UNL     1      26.008  48.612  49.231  1.00  0.00     0.026 A 
HETATM   18  C   UNL     1      25.186  49.581  48.641  1.00  0.00     0.038 A 
HETATM   19  C   UNL     1      23.800  49.433  48.630  1.00  0.00     0.068 A 
HETATM   20  C   UNL     1      23.243  48.296  49.207  1.00  0.00     0.038 A 
HETATM   21  C   UNL     1      24.071  47.328  49.793  1.00  0.00     0.026 A 
BRANCH  19  22
HETATM   22  O   UNL     1      23.118  50.447  48.018  1.00  0.00    -0.352 OA
BRANCH  22  23
HETATM   23  C   UNL     1      21.725  50.249  47.793  1.00  0.00     0.171 C 
HETATM   24  C   UNL     1      20.969  51.308  48.577  1.00  0.00     0.034 C 
ENDBRANCH  22  23
ENDBRANCH  19  22
ENDBRANCH  14  16
ENDBRANCH  13  14
ENDBRANCH   1  13
BRANCH   8  25
HETATM   25  O   UNL     1      30.980  44.813  57.254  1.00  0.00    -0.356 OA
HETATM   26  C   UNL     1      30.534  45.746  58.231  1.00  0.00     0.210 C 
ENDBRANCH   8  25
TORSDOF 6
ENDMDL
MODEL 3
REMARK VINA RESULT:      -8.0      1.406      7.973
REMARK  6 active torsions:
REMARK  status: ('A' for Active; 'I' for Inactive)
REMARK    1  A    between atoms: C_2  and  O_3 
REMARK    2  A    between atoms: O_3  and  C_4 
REMARK    3  A    between atoms: C_7  and  N_8 
REMARK    4  A    between atoms: N_8  and  C_9 
REMARK    5  A    between atoms: C_9  and  C_10 
REMARK    6  A    between atoms: C_17  and  O_18 
ROOT
HETATM    1  C   UNL     1      26.718  43.666  52.450  1.00  0.00     0.024 A 
HETATM    2  C   UNL     1      27.665  42.506  52.432  1.00  0.00     0.253 A 
HETATM    3  O   UNL     1      27.494  41.548  51.685  1.00  0.00    -0.268 OA
HETATM    4  N   UNL     1      28.734  42.555  53.287  1.00  0.00    -0.322 N 
HETATM    5  C   UNL     1      28.965  43.603  54.183  1.00  0.00     0.048 A 
HETATM    6  C   UNL     1      28.074  44.679  54.218  1.00  0.00    -0.009 A 
HETATM    7  C   UNL     1      30.067  43.564  55.036  1.00  0.00     0.067 A 
HETATM    8  C   UNL     1      30.288  44.604  55.944  1.00  0.00     0.070 A 
HETATM    9  C   UNL     1      29.400  45.681  55.983  1.00  0.00     0.038 A 
HETATM   10  C   UNL     1      28.296  45.720  55.121  1.00  0.00     0.016 A 
HETATM   11  C   UNL     1      26.929  44.682  53.307  1.00  0.00     0.027 A 
HETATM   12  H   UNL     1      29.361  41.762  53.258  1.00  0.00     0.169 HD
ENDROOT
BRANCH   1  13
HETATM   13  C   UNL     1      25.570  43.548  51.480  1.00  0.00     0.136 C 
BRANCH  13  14
HETATM   14  N   UNL     1      25.936  44.120  50.180  1.00  0.00    -0.289 NA
HETATM   15  H   UNL     1      25.640  43.509  49.421  1.00  0.00     0.128 HD
BRANCH  14  16
HETATM   16  C   UNL     1      25.579  45.448  49.901  1.00  0.00     0.008 A 
HETATM   17  C   UNL     1      24.260  45.901  49.831  1.00  0.00     0.026 A 
HETATM   18  C   UNL     1      23.971  47.258  49.634  1.00  0.00     0.038 A 
HETATM   19  C   UNL     1      24.993  48.200  49.532  1.00  0.00     0.068 A 
HETATM   20  C   UNL     1      26.312  47.771  49.640  1.00  0.00     0.038 A 
HETATM   21  C   UNL     1      26.596  46.412  49.839  1.00  0.00     0.026 A 
BRANCH  19  22
HETATM   22  O   UNL     1      24.573  49.487  49.347  1.00  0.00    -0.352 OA
BRANCH  22  23
HETATM   23  C   UNL     1      24.524  49.967  48.006  1.00  0.00     0.171 C 
HETATM   24  C   UNL     1      23.096  50.391  47.713  1.00  0.00     0.034 C 
ENDBRANCH  22  23
ENDBRANCH  19  22
ENDBRANCH  14  16
ENDBRANCH  13  14
ENDBRANCH   1  13
BRANCH   8  25
HETATM   25  O   UNL     1      31.397  44.448  56.729  1.00  0.00    -0.356 OA
HETATM   26  C   UNL     1      31.759  43.118  57.079  1.00  0.00     0.210 C 
ENDBRANCH   8  25
TORSDOF 6
ENDMDL
MODEL 4
REMARK VINA RESULT:      -7.6      1.585      2.624
REMARK  6 active torsions:
REMARK  status: ('A' for Active; 'I' for Inactive)
REMARK    1  A    between atoms: C_2  and  O_3 
REMARK    2  A    between atoms: O_3  and  C_4 
REMARK    3  A    between atoms: C_7  and  N_8 
REMARK    4  A    between atoms: N_8  and  C_9 
REMARK    5  A    between atoms: C_9  and  C_10 
REMARK    6  A    between atoms: C_17  and  O_18 
ROOT
HETATM    1  C   UNL     1      25.384  46.657  50.068  1.00  0.00     0.024 A 
HETATM    2  C   UNL     1      24.047  45.992  49.955  1.00  0.00     0.253 A 
HETATM    3  O   UNL     1      23.870  44.836  50.325  1.00  0.00    -0.268 OA
HETATM    4  N   UNL     1      23.023  46.727  49.418  1.00  0.00    -0.322 N 
HETATM    5  C   UNL     1      23.169  48.037  48.950  1.00  0.00     0.048 A 
HETATM    6  C   UNL     1      24.419  48.656  49.035  1.00  0.00    -0.009 A 
HETATM    7  C   UNL     1      22.079  48.707  48.397  1.00  0.00     0.067 A 
HETATM    8  C   UNL     1      22.230  50.010  47.914  1.00  0.00     0.070 A 
HETATM    9  C   UNL     1      23.478  50.633  47.996  1.00  0.00     0.038 A 
HETATM   10  C   UNL     1      24.570  49.958  48.556  1.00  0.00     0.016 A 
HETATM   11  C   UNL     1      25.537  47.918  49.622  1.00  0.00     0.027 A 
HETATM   12  H   UNL     1      22.129  46.260  49.352  1.00  0.00     0.169 HD
ENDROOT
BRANCH   1  13
HETATM   13  C   UNL     1      26.460  45.793  50.672  1.00  0.00     0.136 C 
BRANCH  13  14
HETATM   14  N   UNL     1      26.175  45.531  52.087  1.00  0.00    -0.289 NA
HETATM   15  H   UNL     1      25.282  45.052  52.193  1.00  0.00     0.128 HD
BRANCH  14  16
HETATM   16  C   UNL     1      27.156  44.905  52.870  1.00  0.00     0.008 A 
HETATM   17  C   UNL     1      28.024  43.921  52.390  1.00  0.00     0.026 A 
HETATM   18  C   UNL     1      29.040  43.397  53.200  1.00  0.00     0.038 A 
HETATM   19  C   UNL     1      29.234  43.864  54.498  1.00  0.00     0.068 A 
HETATM   20  C   UNL     1      28.404  44.872  54.979  1.00  0.00     0.038 A 
HETATM   21  C   UNL     1      27.390  45.395  54.164  1.00  0.00     0.026 A 
BRANCH  19  22
HETATM   22  O   UNL     1      30.262  43.271  55.175  1.00  0.00    -0.352 OA
BRANCH  22  23
HETATM   23  C   UNL     1      31.068  44.111  55.997  1.00  0.00     0.171 C 
HETATM   24  C   UNL     1      31.552  43.287  57.177  1.00  0.00     0.034 C 
ENDBRANCH  22  23
ENDBRANCH  19  22
ENDBRANCH  14  16
ENDBRANCH  13  14
ENDBRANCH   1  13
BRANCH   8  25
HETATM   25  O   UNL     1      21.091  50.559  47.390  1.00  0.00    -0.356 OA
HETATM   26  C   UNL     1      19.864  50.235  48.033  1.00  0.00     0.210 C 
ENDBRANCH   8  25
TORSDOF 6
ENDMDL
MODEL 5
REMARK VINA RESULT:      -7.6      1.332      7.694
REMARK  6 active torsions:
REMARK  status: ('A' for Active; 'I' for Inactive)
REMARK    1  A    between atoms: C_2  and  O_3 
REMARK    2  A    between atoms: O_3  and  C_4 
REMARK    3  A    between atoms: C_7  and  N_8 
REMARK    4  A    between atoms: N_8  and  C_9 
REMARK    5  A    between atoms: C_9  and  C_10 
REMARK    6  A    between atoms: C_17  and  O_18 
ROOT
HETATM    1  C   UNL     1      26.314  43.256  51.693  1.00  0.00     0.024 A 
HETATM    2  C   UNL     1      25.746  44.065  52.818  1.00  0.00     0.253 A 
HETATM    3  O   UNL     1      24.590  44.476  52.796  1.00  0.00    -0.268 OA
HETATM    4  N   UNL     1      26.571  44.333  53.878  1.00  0.00    -0.322 N 
HETATM    5  C   UNL     1      27.905  43.921  53.948  1.00  0.00     0.048 A 
HETATM    6  C   UNL     1      28.446  43.182  52.893  1.00  0.00    -0.009 A 
HETATM    7  C   UNL     1      28.684  44.256  55.055  1.00  0.00     0.067 A 
HETATM    8  C   UNL     1      30.022  43.858  55.117  1.00  0.00     0.070 A 
HETATM    9  C   UNL     1      30.568  43.119  54.064  1.00  0.00     0.038 A 
HETATM   10  C   UNL     1      29.782  42.780  52.955  1.00  0.00     0.016 A 
HETATM   11  C   UNL     1      27.597  42.852  51.749  1.00  0.00     0.027 A 
HETATM   12  H   UNL     1      26.167  44.880  54.627  1.00  0.00     0.169 HD
ENDROOT
BRANCH   1  13
HETATM   13  C   UNL     1      25.350  42.994  50.565  1.00  0.00     0.136 C 
BRANCH  13  14
HETATM   14  N   UNL     1      25.633  43.881  49.431  1.00  0.00    -0.289 NA
HETATM   15  H   UNL     1      25.265  43.490  48.567  1.00  0.00     0.128 HD
BRANCH  14  16
HETATM   16  C   UNL     1      25.292  45.238  49.534  1.00  0.00     0.008 A 
HETATM   17  C   UNL     1      26.223  46.261  49.728  1.00  0.00     0.026 A 
HETATM   18  C   UNL     1      25.828  47.606  49.736  1.00  0.00     0.038 A 
HETATM   19  C   UNL     1      24.498  47.962  49.519  1.00  0.00     0.068 A 
HETATM   20  C   UNL     1      23.565  46.957  49.283  1.00  0.00     0.038 A 
HETATM   21  C   UNL     1      23.966  45.614  49.275  1.00  0.00     0.026 A 
BRANCH  19  22
HETATM   22  O   UNL     1      24.251  49.306  49.547  1.00  0.00    -0.352 OA
BRANCH  22  23
HETATM   23  C   UNL     1      22.936  49.731  49.200  1.00  0.00     0.171 C 
HETATM   24  C   UNL     1      23.047  50.679  48.019  1.00  0.00     0.034 C 
ENDBRANCH  22  23
ENDBRANCH  19  22
ENDBRANCH  14  16
ENDBRANCH  13  14
ENDBRANCH   1  13
BRANCH   8  25
HETATM   25  O   UNL     1      30.681  44.251  56.249  1.00  0.00    -0.356 OA
HETATM   26  C   UNL     1      30.319  45.510  56.803  1.00  0.00     0.210 C 
ENDBRANCH   8  25
TORSDOF 6
ENDMDL
MODEL 6
REMARK VINA RESULT:      -7.3      3.806      7.200
REMARK  6 active torsions:
REMARK  status: ('A' for Active; 'I' for Inactive)
REMARK    1  A    between atoms: C_2  and  O_3 
REMARK    2  A    between atoms: O_3  and  C_4 
REMARK    3  A    between atoms: C_7  and  N_8 
REMARK    4  A    between atoms: N_8  and  C_9 
REMARK    5  A    between atoms: C_9  and  C_10 
REMARK    6  A    between atoms: C_17  and  O_18 
ROOT
HETATM    1  C   UNL     1      22.387  49.790  48.449  1.00  0.00     0.024 A 
HETATM    2  C   UNL     1      21.724  48.707  47.656  1.00  0.00     0.253 A 
HETATM    3  O   UNL     1      22.305  47.662  47.382  1.00  0.00    -0.268 OA
HETATM    4  N   UNL     1      20.436  48.929  47.244  1.00  0.00    -0.322 N 
HETATM    5  C   UNL     1      19.732  50.110  47.497  1.00  0.00     0.048 A 
HETATM    6  C   UNL     1      20.352  51.132  48.220  1.00  0.00    -0.009 A 
HETATM    7  C   UNL     1      18.430  50.263  47.022  1.00  0.00     0.067 A 
HETATM    8  C   UNL     1      17.733  51.451  47.260  1.00  0.00     0.070 A 
HETATM    9  C   UNL     1      18.349  52.476  47.982  1.00  0.00     0.038 A 
HETATM   10  C   UNL     1      19.655  52.317  48.462  1.00  0.00     0.016 A 
HETATM   11  C   UNL     1      21.719  50.932  48.701  1.00  0.00     0.027 A 
HETATM   12  H   UNL     1      20.007  48.184  46.711  1.00  0.00     0.169 HD
ENDROOT
BRANCH   1  13
HETATM   13  C   UNL     1      23.798  49.476  48.874  1.00  0.00     0.136 C 
BRANCH  13  14
HETATM   14  N   UNL     1      23.798  48.542  50.006  1.00  0.00    -0.289 NA
HETATM   15  H   UNL     1      22.849  48.257  50.238  1.00  0.00     0.128 HD
BRANCH  14  16
HETATM   16  C   UNL     1      24.643  47.423  49.959  1.00  0.00     0.008 A 
HETATM   17  C   UNL     1      24.187  46.105  49.893  1.00  0.00     0.026 A 
HETATM   18  C   UNL     1      25.082  45.036  49.761  1.00  0.00     0.038 A 
HETATM   19  C   UNL     1      26.454  45.259  49.661  1.00  0.00     0.068 A 
HETATM   20  C   UNL     1      26.923  46.569  49.684  1.00  0.00     0.038 A 
HETATM   21  C   UNL     1      26.022  47.636  49.814  1.00  0.00     0.026 A 
BRANCH  19  22
HETATM   22  O   UNL     1      27.212  44.130  49.530  1.00  0.00    -0.352 OA
BRANCH  22  23
HETATM   23  C   UNL     1      27.099  43.150  50.560  1.00  0.00     0.171 C 
HETATM   24  C   UNL     1      27.861  43.656  51.772  1.00  0.00     0.034 C 
ENDBRANCH  22  23
ENDBRANCH  19  22
ENDBRANCH  14  16
ENDBRANCH  13  14
ENDBRANCH   1  13
BRANCH   8  25
HETATM   25  O   UNL     1      16.468  51.483  46.740  1.00  0.00    -0.356 OA
HETATM   26  C   UNL     1      15.430  51.945  47.595  1.00  0.00     0.210 C 
ENDBRANCH   8  25
TORSDOF 6
ENDMDL
MODEL 7
REMARK VINA RESULT:      -7.1      2.969      7.990
REMARK  6 active torsions:
REMARK  status: ('A' for Active; 'I' for Inactive)
REMARK    1  A    between atoms: C_2  and  O_3 
REMARK    2  A    between atoms: O_3  and  C_4 
REMARK    3  A    between atoms: C_7  and  N_8 
REMARK    4  A    between atoms: N_8  and  C_9 
REMARK    5  A    between atoms: C_9  and  C_10 
REMARK    6  A    between atoms: C_17  and  O_18 
ROOT
HETATM    1  C   UNL     1      26.553  45.292  53.151  1.00  0.00     0.024 A 
HETATM    2  C   UNL     1      26.545  46.267  54.288  1.00  0.00     0.253 A 
HETATM    3  O   UNL     1      25.686  47.138  54.382  1.00  0.00    -0.268 OA
HETATM    4  N   UNL     1      27.539  46.150  55.222  1.00  0.00    -0.322 N 
HETATM    5  C   UNL     1      28.563  45.200  55.154  1.00  0.00     0.048 A 
HETATM    6  C   UNL     1      28.586  44.300  54.086  1.00  0.00    -0.009 A 
HETATM    7  C   UNL     1      29.550  45.164  56.137  1.00  0.00     0.067 A 
HETATM    8  C   UNL     1      30.582  44.225  56.059  1.00  0.00     0.070 A 
HETATM    9  C   UNL     1      30.611  43.323  54.993  1.00  0.00     0.038 A 
HETATM   10  C   UNL     1      29.614  43.359  54.009  1.00  0.00     0.016 A 
HETATM   11  C   UNL     1      27.532  44.371  53.074  1.00  0.00     0.027 A 
HETATM   12  H   UNL     1      27.514  46.818  55.982  1.00  0.00     0.169 HD
ENDROOT
BRANCH   1  13
HETATM   13  C   UNL     1      25.428  45.474  52.166  1.00  0.00     0.136 C 
BRANCH  13  14
HETATM   14  N   UNL     1      24.528  44.315  52.191  1.00  0.00    -0.289 NA
HETATM   15  H   UNL     1      23.588  44.594  52.461  1.00  0.00     0.128 HD
BRANCH  14  16
HETATM   16  C   UNL     1      24.482  43.471  51.071  1.00  0.00     0.008 A 
HETATM   17  C   UNL     1      25.505  42.588  50.719  1.00  0.00     0.026 A 
HETATM   18  C   UNL     1      25.360  41.709  49.637  1.00  0.00     0.038 A 
HETATM   19  C   UNL     1      24.179  41.671  48.900  1.00  0.00     0.068 A 
HETATM   20  C   UNL     1      23.134  42.516  49.262  1.00  0.00     0.038 A 
HETATM   21  C   UNL     1      23.283  43.392  50.347  1.00  0.00     0.026 A 
BRANCH  19  22
HETATM   22  O   UNL     1      24.170  40.765  47.876  1.00  0.00    -0.352 OA
BRANCH  22  23
HETATM   23  C   UNL     1      25.321  39.938  47.732  1.00  0.00     0.171 C 
HETATM   24  C   UNL     1      25.733  39.961  46.271  1.00  0.00     0.034 C 
ENDBRANCH  22  23
ENDBRANCH  19  22
ENDBRANCH  14  16
ENDBRANCH  13  14
ENDBRANCH   1  13
BRANCH   8  25
HETATM   25  O   UNL     1      31.492  44.292  57.078  1.00  0.00    -0.356 OA
HETATM   26  C   UNL     1      31.074  44.937  58.275  1.00  0.00     0.210 C 
ENDBRANCH   8  25
TORSDOF 6
ENDMDL
MODEL 8
REMARK VINA RESULT:      -7.1      2.909      5.167
REMARK  6 active torsions:
REMARK  status: ('A' for Active; 'I' for Inactive)
REMARK    1  A    between atoms: C_2  and  O_3 
REMARK    2  A    between atoms: O_3  and  C_4 
REMARK    3  A    between atoms: C_7  and  N_8 
REMARK    4  A    between atoms: N_8  and  C_9 
REMARK    5  A    between atoms: C_9  and  C_10 
REMARK    6  A    between atoms: C_17  and  O_18 
ROOT
HETATM    1  C   UNL     1      23.803  48.525  49.232  1.00  0.00     0.024 A 
HETATM    2  C   UNL     1      22.864  47.366  49.101  1.00  0.00     0.253 A 
HETATM    3  O   UNL     1      23.258  46.207  49.180  1.00  0.00    -0.268 OA
HETATM    4  N   UNL     1      21.542  47.650  48.886  1.00  0.00    -0.322 N 
HETATM    5  C   UNL     1      21.037  48.947  48.755  1.00  0.00     0.048 A 
HETATM    6  C   UNL     1      21.911  50.032  48.858  1.00  0.00    -0.009 A 
HETATM    7  C   UNL     1      19.678  49.148  48.516  1.00  0.00     0.067 A 
HETATM    8  C   UNL     1      19.177  50.444  48.368  1.00  0.00     0.070 A 
HETATM    9  C   UNL     1      20.047  51.533  48.469  1.00  0.00     0.038 A 
HETATM   10  C   UNL     1      21.411  51.328  48.715  1.00  0.00     0.016 A 
HETATM   11  C   UNL     1      23.329  49.779  49.110  1.00  0.00     0.027 A 
HETATM   12  H   UNL     1      20.925  46.852  48.802  1.00  0.00     0.169 HD
ENDROOT
BRANCH   1  13
HETATM   13  C   UNL     1      25.240  48.140  49.473  1.00  0.00     0.136 C 
BRANCH  13  14
HETATM   14  N   UNL     1      25.423  47.679  50.854  1.00  0.00    -0.289 NA
HETATM   15  H   UNL     1      24.546  47.724  51.369  1.00  0.00     0.128 HD
BRANCH  14  16
HETATM   16  C   UNL     1      26.054  46.445  51.077  1.00  0.00     0.008 A 
HETATM   17  C   UNL     1      26.646  45.681  50.069  1.00  0.00     0.026 A 
HETATM   18  C   UNL     1      27.336  44.499  50.369  1.00  0.00     0.038 A 
HETATM   19  C   UNL     1      27.477  44.068  51.687  1.00  0.00     0.068 A 
HETATM   20  C   UNL     1      26.927  44.838  52.707  1.00  0.00     0.038 A 
HETATM   21  C   UNL     1      26.240  46.021  52.401  1.00  0.00     0.026 A 
BRANCH  19  22
HETATM   22  O   UNL     1      28.176  42.904  51.838  1.00  0.00    -0.352 OA
BRANCH  22  23
HETATM   23  C   UNL     1      28.666  42.606  53.144  1.00  0.00     0.171 C 
HETATM   24  C   UNL     1      30.170  42.813  53.138  1.00  0.00     0.034 C 
ENDBRANCH  22  23
ENDBRANCH  19  22
ENDBRANCH  14  16
ENDBRANCH  13  14
ENDBRANCH   1  13
BRANCH   8  25
HETATM   25  O   UNL     1      17.831  50.511  48.131  1.00  0.00    -0.356 OA
HETATM   26  C   UNL     1      17.377  50.060  46.861  1.00  0.00     0.210 C 
ENDBRANCH   8  25
TORSDOF 6
ENDMDL
MODEL 9
REMARK VINA RESULT:      -7.0      4.948     11.315
REMARK  6 active torsions:
REMARK  status: ('A' for Active; 'I' for Inactive)
REMARK    1  A    between atoms: C_2  and  O_3 
REMARK    2  A    between atoms: O_3  and  C_4 
REMARK    3  A    between atoms: C_7  and  N_8 
REMARK    4  A    between atoms: N_8  and  C_9 
REMARK    5  A    between atoms: C_9  and  C_10 
REMARK    6  A    between atoms: C_17  and  O_18 
ROOT
HETATM    1  C   UNL     1      22.362  49.848  48.322  1.00  0.00     0.024 A 
HETATM    2  C   UNL     1      21.743  48.660  48.990  1.00  0.00     0.253 A 
HETATM    3  O   UNL     1      20.526  48.520  49.056  1.00  0.00    -0.268 OA
HETATM    4  N   UNL     1      22.592  47.730  49.530  1.00  0.00    -0.322 N 
HETATM    5  C   UNL     1      23.985  47.848  49.515  1.00  0.00     0.048 A 
HETATM    6  C   UNL     1      24.568  48.964  48.910  1.00  0.00    -0.009 A 
HETATM    7  C   UNL     1      24.776  46.865  50.108  1.00  0.00     0.067 A 
HETATM    8  C   UNL     1      26.168  46.992  50.108  1.00  0.00     0.070 A 
HETATM    9  C   UNL     1      26.756  48.107  49.504  1.00  0.00     0.038 A 
HETATM   10  C   UNL     1      25.958  49.090  48.906  1.00  0.00     0.016 A 
HETATM   11  C   UNL     1      23.703  49.973  48.300  1.00  0.00     0.027 A 
HETATM   12  H   UNL     1      22.153  46.935  49.975  1.00  0.00     0.169 HD
ENDROOT
BRANCH   1  13
HETATM   13  C   UNL     1      21.371  50.826  47.745  1.00  0.00     0.136 C 
BRANCH  13  14
HETATM   14  N   UNL     1      20.739  51.607  48.814  1.00  0.00    -0.289 NA
HETATM   15  H   UNL     1      21.195  52.512  48.918  1.00  0.00     0.128 HD
BRANCH  14  16
HETATM   16  C   UNL     1      19.345  51.765  48.803  1.00  0.00     0.008 A 
HETATM   17  C   UNL     1      18.586  52.066  49.936  1.00  0.00     0.026 A 
HETATM   18  C   UNL     1      17.207  52.296  49.842  1.00  0.00     0.038 A 
HETATM   19  C   UNL     1      16.558  52.260  48.610  1.00  0.00     0.068 A 
HETATM   20  C   UNL     1      17.306  52.002  47.465  1.00  0.00     0.038 A 
HETATM   21  C   UNL     1      18.686  51.774  47.565  1.00  0.00     0.026 A 
BRANCH  19  22
HETATM   22  O   UNL     1      15.215  52.507  48.660  1.00  0.00    -0.352 OA
BRANCH  22  23
HETATM   23  C   UNL     1      14.804  53.744  49.238  1.00  0.00     0.171 C 
HETATM   24  C   UNL     1      13.822  53.435  50.354  1.00  0.00     0.034 C 
ENDBRANCH  22  23
ENDBRANCH  19  22
ENDBRANCH  14  16
ENDBRANCH  13  14
ENDBRANCH   1  13
BRANCH   8  25
HETATM   25  O   UNL     1      26.834  45.968  50.724  1.00  0.00    -0.356 OA
HETATM   26  C   UNL     1      26.044  45.012  51.420  1.00  0.00     0.210 C 
ENDBRANCH   8  25
TORSDOF 6
ENDMDL
MODEL 10
REMARK VINA RESULT:      -7.0      3.322      5.783
REMARK  6 active torsions:
REMARK  status: ('A' for Active; 'I' for Inactive)
REMARK    1  A    between atoms: C_2  and  O_3 
REMARK    2  A    between atoms: O_3  and  C_4 
REMARK    3  A    between atoms: C_7  and  N_8 
REMARK    4  A    between atoms: N_8  and  C_9 
REMARK    5  A    between atoms: C_9  and  C_10 
REMARK    6  A    between atoms: C_17  and  O_18 
ROOT
HETATM    1  C   UNL     1      22.288  47.556  48.903  1.00  0.00     0.024 A 
HETATM    2  C   UNL     1      23.004  48.719  49.517  1.00  0.00     0.253 A 
HETATM    3  O   UNL     1      24.198  48.665  49.795  1.00  0.00    -0.268 OA
HETATM    4  N   UNL     1      22.272  49.851  49.758  1.00  0.00    -0.322 N 
HETATM    5  C   UNL     1      20.904  49.964  49.492  1.00  0.00     0.048 A 
HETATM    6  C   UNL     1      20.226  48.875  48.937  1.00  0.00    -0.009 A 
HETATM    7  C   UNL     1      20.228  51.146  49.789  1.00  0.00     0.067 A 
HETATM    8  C   UNL     1      18.858  51.252  49.539  1.00  0.00     0.070 A 
HETATM    9  C   UNL     1      18.175  50.167  48.984  1.00  0.00     0.038 A 
HETATM   10  C   UNL     1      18.858  48.981  48.683  1.00  0.00     0.016 A 
HETATM   11  C   UNL     1      20.971  47.652  48.641  1.00  0.00     0.027 A 
HETATM   12  H   UNL     1      22.776  50.625  50.172  1.00  0.00     0.169 HD
ENDROOT
BRANCH   1  13
HETATM   13  C   UNL     1      23.155  46.348  48.659  1.00  0.00     0.136 C 
BRANCH  13  14
HETATM   14  N   UNL     1      23.281  45.550  49.884  1.00  0.00    -0.289 NA
HETATM   15  H   UNL     1      22.618  44.778  49.882  1.00  0.00     0.128 HD
BRANCH  14  16
HETATM   16  C   UNL     1      24.552  45.097  50.268  1.00  0.00     0.008 A 
HETATM   17  C   UNL     1      25.719  45.348  49.543  1.00  0.00     0.026 A 
HETATM   18  C   UNL     1      26.971  44.942  50.024  1.00  0.00     0.038 A 
HETATM   19  C   UNL     1      27.090  44.301  51.256  1.00  0.00     0.068 A 
HETATM   20  C   UNL     1      25.941  44.079  52.010  1.00  0.00     0.038 A 
HETATM   21  C   UNL     1      24.692  44.490  51.524  1.00  0.00     0.026 A 
BRANCH  19  22
HETATM   22  O   UNL     1      28.366  43.964  51.607  1.00  0.00    -0.352 OA
BRANCH  22  23
HETATM   23  C   UNL     1      28.521  42.974  52.621  1.00  0.00     0.171 C 
HETATM   24  C   UNL     1      29.992  42.906  52.988  1.00  0.00     0.034 C 
ENDBRANCH  22  23
ENDBRANCH  19  22
ENDBRANCH  14  16
ENDBRANCH  13  14
ENDBRANCH   1  13
BRANCH   8  25
HETATM   25  O   UNL     1      18.308  52.458  49.878  1.00  0.00    -0.356 OA
HETATM   26  C   UNL     1      16.888  52.541  49.885  1.00  0.00     0.210 C 
ENDBRANCH   8  25
TORSDOF 6
ENDMDL
