MODEL 1
REMARK VINA RESULT:      -9.9      0.000      0.000
REMARK  3 active torsions:
REMARK  status: ('A' for Active; 'I' for Inactive)
REMARK    1  A    between atoms: C_7  and  C_8 
REMARK       I    between atoms: C_8  and  N_9 
REMARK    2  A    between atoms: N_9  and  C_10 
REMARK    3  A    between atoms: C_18  and  N_19 
ROOT
HETATM    1  C   UNL     1      27.810  43.640  52.205  1.00  0.00     0.262 C 
HETATM    2  N   UNL     1      27.499  42.300  52.264  1.00  0.00    -0.305 N 
HETATM    3  O   UNL     1      27.649  44.394  51.250  1.00  0.00    -0.267 OA
HETATM    4  H   UNL     1      27.735  41.791  53.112  1.00  0.00     0.170 HD
ENDROOT
BRANCH   2   5
HETATM    5  C   UNL     1      26.858  41.578  51.279  1.00  0.00     0.163 A 
HETATM    6  N   UNL     1      25.650  41.854  50.788  1.00  0.00    -0.155 NA
HETATM    7  N   UNL     1      25.418  40.891  49.891  1.00  0.00    -0.275 N 
HETATM    8  H   UNL     1      24.534  40.908  49.394  1.00  0.00     0.189 HD
HETATM    9  C   UNL     1      26.438  39.989  49.758  1.00  0.00     0.064 A 
HETATM   10  C   UNL     1      27.409  40.413  50.660  1.00  0.00     0.042 A 
HETATM   11  C   UNL     1      26.581  38.866  48.937  1.00  0.00     0.034 A 
HETATM   12  C   UNL     1      28.614  39.686  50.758  1.00  0.00     0.053 A 
HETATM   13  C   UNL     1      28.781  38.560  49.931  1.00  0.00     0.103 A 
HETATM   14  C   UNL     1      27.779  38.152  49.037  1.00  0.00     0.038 A 
BRANCH  13  15
HETATM   15  N   UNL     1      30.036  37.800  50.000  1.00  0.00    -0.116 N 
HETATM   16  O   UNL     1      30.133  36.924  50.871  1.00  0.00    -0.532 OA
HETATM   17  O   UNL     1      30.924  38.076  49.182  1.00  0.00    -0.532 OA
ENDBRANCH  13  15
ENDBRANCH   2   5
BRANCH   1  18
HETATM   18  C   UNL     1      28.419  44.167  53.468  1.00  0.00     0.098 C 
HETATM   19  C   UNL     1      27.856  45.233  54.062  1.00  0.00     0.109 C 
HETATM   20  N   UNL     1      28.290  45.815  55.226  1.00  0.00    -0.364 N 
HETATM   21  C   UNL     1      29.314  45.225  55.978  1.00  0.00     0.046 A 
HETATM   22  H   UNL     1      27.686  46.497  55.673  1.00  0.00     0.165 HD
HETATM   23  C   UNL     1      30.012  44.119  55.464  1.00  0.00     0.042 A 
HETATM   24  C   UNL     1      29.704  45.759  57.208  1.00  0.00     0.030 A 
HETATM   25  C   UNL     1      31.058  43.533  56.184  1.00  0.00     0.018 A 
HETATM   26  C   UNL     1      29.609  43.572  54.141  1.00  0.00     0.201 C 
HETATM   27  C   UNL     1      31.421  44.062  57.422  1.00  0.00     0.001 A 
HETATM   28  C   UNL     1      30.748  45.174  57.931  1.00  0.00     0.002 A 
HETATM   29  O   UNL     1      30.237  42.651  53.622  1.00  0.00    -0.286 OA
ENDBRANCH   1  18
TORSDOF 3
ENDMDL
MODEL 2
REMARK VINA RESULT:      -9.8      4.808      6.369
REMARK  3 active torsions:
REMARK  status: ('A' for Active; 'I' for Inactive)
REMARK    1  A    between atoms: C_7  and  C_8 
REMARK       I    between atoms: C_8  and  N_9 
REMARK    2  A    between atoms: N_9  and  C_10 
REMARK    3  A    between atoms: C_18  and  N_19 
ROOT
HETATM    1  C   UNL     1      26.599  46.262  54.179  1.00  0.00     0.262 C 
HETATM    2  N   UNL     1      26.543  45.584  52.983  1.00  0.00    -0.305 N 
HETATM    3  O   UNL     1      25.806  47.105  54.588  1.00  0.00    -0.267 OA
HETATM    4  H   UNL     1      27.301  44.945  52.758  1.00  0.00     0.170 HD
ENDROOT
BRANCH   2   5
HETATM    5  C   UNL     1      25.522  45.664  52.059  1.00  0.00     0.163 A 
HETATM    6  N   UNL     1      24.430  44.898  52.053  1.00  0.00    -0.155 NA
HETATM    7  N   UNL     1      23.740  45.295  50.980  1.00  0.00    -0.275 N 
HETATM    8  H   UNL     1      22.861  44.830  50.780  1.00  0.00     0.189 HD
HETATM    9  C   UNL     1      24.330  46.311  50.277  1.00  0.00     0.064 A 
HETATM   10  C   UNL     1      25.510  46.582  50.962  1.00  0.00     0.042 A 
HETATM   11  C   UNL     1      23.929  46.994  49.125  1.00  0.00     0.034 A 
HETATM   12  C   UNL     1      26.356  47.605  50.488  1.00  0.00     0.053 A 
HETATM   13  C   UNL     1      25.963  48.314  49.337  1.00  0.00     0.103 A 
HETATM   14  C   UNL     1      24.771  48.011  48.662  1.00  0.00     0.038 A 
BRANCH  13  15
HETATM   15  N   UNL     1      26.817  49.399  48.838  1.00  0.00    -0.116 N 
HETATM   16  O   UNL     1      26.352  50.142  47.961  1.00  0.00    -0.532 OA
HETATM   17  O   UNL     1      27.951  49.512  49.323  1.00  0.00    -0.532 OA
ENDBRANCH  13  15
ENDBRANCH   2   5
BRANCH   1  18
HETATM   18  C   UNL     1      27.786  45.896  55.016  1.00  0.00     0.098 C 
HETATM   19  C   UNL     1      28.000  46.563  56.163  1.00  0.00     0.109 C 
HETATM   20  N   UNL     1      29.032  46.331  57.037  1.00  0.00    -0.364 N 
HETATM   21  C   UNL     1      29.891  45.241  56.849  1.00  0.00     0.046 A 
HETATM   22  H   UNL     1      28.991  46.770  57.951  1.00  0.00     0.165 HD
HETATM   23  C   UNL     1      29.801  44.471  55.677  1.00  0.00     0.042 A 
HETATM   24  C   UNL     1      30.890  44.942  57.779  1.00  0.00     0.030 A 
HETATM   25  C   UNL     1      30.670  43.398  55.454  1.00  0.00     0.018 A 
HETATM   26  C   UNL     1      28.754  44.813  54.678  1.00  0.00     0.201 C 
HETATM   27  C   UNL     1      31.646  43.096  56.403  1.00  0.00     0.001 A 
HETATM   28  C   UNL     1      31.758  43.868  57.561  1.00  0.00     0.002 A 
HETATM   29  O   UNL     1      28.683  44.211  53.608  1.00  0.00    -0.286 OA
ENDBRANCH   1  18
TORSDOF 3
ENDMDL
MODEL 3
REMARK VINA RESULT:      -9.7      3.700      5.855
REMARK  3 active torsions:
REMARK  status: ('A' for Active; 'I' for Inactive)
REMARK    1  A    between atoms: C_7  and  C_8 
REMARK       I    between atoms: C_8  and  N_9 
REMARK    2  A    between atoms: N_9  and  C_10 
REMARK    3  A    between atoms: C_18  and  N_19 
ROOT
HETATM    1  C   UNL     1      27.403  44.157  52.458  1.00  0.00     0.262 C 
HETATM    2  N   UNL     1      26.044  44.203  52.672  1.00  0.00    -0.305 N 
HETATM    3  O   UNL     1      27.976  43.871  51.411  1.00  0.00    -0.267 OA
HETATM    4  H   UNL     1      25.714  44.412  53.612  1.00  0.00     0.170 HD
ENDROOT
BRANCH   2   5
HETATM    5  C   UNL     1      25.070  44.024  51.712  1.00  0.00     0.163 A 
HETATM    6  N   UNL     1      24.472  42.866  51.433  1.00  0.00    -0.155 NA
HETATM    7  N   UNL     1      23.632  43.148  50.432  1.00  0.00    -0.275 N 
HETATM    8  H   UNL     1      23.071  42.392  50.055  1.00  0.00     0.189 HD
HETATM    9  C   UNL     1      23.643  44.460  50.043  1.00  0.00     0.064 A 
HETATM   10  C   UNL     1      24.581  45.070  50.869  1.00  0.00     0.042 A 
HETATM   11  C   UNL     1      22.920  45.139  49.058  1.00  0.00     0.034 A 
HETATM   12  C   UNL     1      24.822  46.452  50.724  1.00  0.00     0.053 A 
HETATM   13  C   UNL     1      24.095  47.156  49.746  1.00  0.00     0.103 A 
HETATM   14  C   UNL     1      23.161  46.510  48.922  1.00  0.00     0.038 A 
BRANCH  13  15
HETATM   15  N   UNL     1      24.313  48.600  49.592  1.00  0.00    -0.116 N 
HETATM   16  O   UNL     1      25.460  48.984  49.319  1.00  0.00    -0.532 OA
HETATM   17  O   UNL     1      23.339  49.350  49.741  1.00  0.00    -0.532 OA
ENDBRANCH  13  15
ENDBRANCH   2   5
BRANCH   1  18
HETATM   18  C   UNL     1      28.210  44.488  53.676  1.00  0.00     0.098 C 
HETATM   19  C   UNL     1      27.866  45.560  54.409  1.00  0.00     0.109 C 
HETATM   20  N   UNL     1      28.499  45.977  55.553  1.00  0.00    -0.364 N 
HETATM   21  C   UNL     1      29.506  45.197  56.133  1.00  0.00     0.046 A 
HETATM   22  H   UNL     1      28.045  46.689  56.116  1.00  0.00     0.165 HD
HETATM   23  C   UNL     1      29.986  44.059  55.461  1.00  0.00     0.042 A 
HETATM   24  C   UNL     1      30.096  45.565  57.345  1.00  0.00     0.030 A 
HETATM   25  C   UNL     1      31.013  43.283  56.008  1.00  0.00     0.018 A 
HETATM   26  C   UNL     1      29.373  43.688  54.159  1.00  0.00     0.201 C 
HETATM   27  C   UNL     1      31.576  43.649  57.230  1.00  0.00     0.001 A 
HETATM   28  C   UNL     1      31.120  44.789  57.895  1.00  0.00     0.002 A 
HETATM   29  O   UNL     1      29.808  42.743  53.503  1.00  0.00    -0.286 OA
ENDBRANCH   1  18
TORSDOF 3
ENDMDL
MODEL 4
REMARK VINA RESULT:      -9.6      2.122      2.481
REMARK  3 active torsions:
REMARK  status: ('A' for Active; 'I' for Inactive)
REMARK    1  A    between atoms: C_7  and  C_8 
REMARK       I    between atoms: C_8  and  N_9 
REMARK    2  A    between atoms: N_9  and  C_10 
REMARK    3  A    between atoms: C_18  and  N_19 
ROOT
HETATM    1  C   UNL     1      26.989  44.935  52.871  1.00  0.00     0.262 C 
HETATM    2  N   UNL     1      26.616  43.642  52.581  1.00  0.00    -0.305 N 
HETATM    3  O   UNL     1      26.621  45.956  52.297  1.00  0.00    -0.267 OA
HETATM    4  H   UNL     1      27.042  42.890  53.115  1.00  0.00     0.170 HD
ENDROOT
BRANCH   2   5
HETATM    5  C   UNL     1      25.678  43.265  51.642  1.00  0.00     0.163 A 
HETATM    6  N   UNL     1      24.369  43.505  51.725  1.00  0.00    -0.155 NA
HETATM    7  N   UNL     1      23.850  42.945  50.628  1.00  0.00    -0.275 N 
HETATM    8  H   UNL     1      22.846  43.007  50.493  1.00  0.00     0.189 HD
HETATM    9  C   UNL     1      24.772  42.350  49.810  1.00  0.00     0.064 A 
HETATM   10  C   UNL     1      25.993  42.544  50.448  1.00  0.00     0.042 A 
HETATM   11  C   UNL     1      24.632  41.677  48.593  1.00  0.00     0.034 A 
HETATM   12  C   UNL     1      27.166  42.048  49.842  1.00  0.00     0.053 A 
HETATM   13  C   UNL     1      27.047  41.379  48.610  1.00  0.00     0.103 A 
HETATM   14  C   UNL     1      25.799  41.192  47.995  1.00  0.00     0.038 A 
BRANCH  13  15
HETATM   15  N   UNL     1      28.257  40.874  47.949  1.00  0.00    -0.116 N 
HETATM   16  O   UNL     1      28.556  41.355  46.847  1.00  0.00    -0.532 OA
HETATM   17  O   UNL     1      28.911  39.998  48.533  1.00  0.00    -0.532 OA
ENDBRANCH  13  15
ENDBRANCH   2   5
BRANCH   1  18
HETATM   18  C   UNL     1      27.959  45.035  54.008  1.00  0.00     0.098 C 
HETATM   19  C   UNL     1      27.814  46.032  54.896  1.00  0.00     0.109 C 
HETATM   20  N   UNL     1      28.613  46.243  55.992  1.00  0.00    -0.364 N 
HETATM   21  C   UNL     1      29.593  45.307  56.348  1.00  0.00     0.046 A 
HETATM   22  H   UNL     1      28.303  46.914  56.686  1.00  0.00     0.165 HD
HETATM   23  C   UNL     1      29.872  44.226  55.495  1.00  0.00     0.042 A 
HETATM   24  C   UNL     1      30.351  45.465  57.510  1.00  0.00     0.030 A 
HETATM   25  C   UNL     1      30.868  43.298  55.814  1.00  0.00     0.018 A 
HETATM   26  C   UNL     1      29.080  44.080  54.245  1.00  0.00     0.201 C 
HETATM   27  C   UNL     1      31.601  43.455  56.990  1.00  0.00     0.001 A 
HETATM   28  C   UNL     1      31.346  44.537  57.834  1.00  0.00     0.002 A 
HETATM   29  O   UNL     1      29.337  43.191  53.435  1.00  0.00    -0.286 OA
ENDBRANCH   1  18
TORSDOF 3
ENDMDL
MODEL 5
REMARK VINA RESULT:      -9.5      3.711      6.132
REMARK  3 active torsions:
REMARK  status: ('A' for Active; 'I' for Inactive)
REMARK    1  A    between atoms: C_7  and  C_8 
REMARK       I    between atoms: C_8  and  N_9 
REMARK    2  A    between atoms: N_9  and  C_10 
REMARK    3  A    between atoms: C_18  and  N_19 
ROOT
HETATM    1  C   UNL     1      26.864  43.368  51.632  1.00  0.00     0.262 C 
HETATM    2  N   UNL     1      25.546  43.536  51.990  1.00  0.00    -0.305 N 
HETATM    3  O   UNL     1      27.304  43.189  50.500  1.00  0.00    -0.267 OA
HETATM    4  H   UNL     1      25.326  43.628  52.979  1.00  0.00     0.170 HD
ENDROOT
BRANCH   2   5
HETATM    5  C   UNL     1      24.479  43.628  51.120  1.00  0.00     0.163 A 
HETATM    6  N   UNL     1      23.668  42.621  50.793  1.00  0.00    -0.155 NA
HETATM    7  N   UNL     1      22.810  43.147  49.913  1.00  0.00    -0.275 N 
HETATM    8  H   UNL     1      22.097  42.540  49.523  1.00  0.00     0.189 HD
HETATM    9  C   UNL     1      23.016  44.475  49.653  1.00  0.00     0.064 A 
HETATM   10  C   UNL     1      24.111  44.827  50.435  1.00  0.00     0.042 A 
HETATM   11  C   UNL     1      22.342  45.370  48.816  1.00  0.00     0.034 A 
HETATM   12  C   UNL     1      24.575  46.158  50.401  1.00  0.00     0.053 A 
HETATM   13  C   UNL     1      23.902  47.077  49.573  1.00  0.00     0.103 A 
HETATM   14  C   UNL     1      22.805  46.689  48.789  1.00  0.00     0.038 A 
BRANCH  13  15
HETATM   15  N   UNL     1      24.354  48.474  49.538  1.00  0.00    -0.116 N 
HETATM   16  O   UNL     1      23.489  49.361  49.575  1.00  0.00    -0.532 OA
HETATM   17  O   UNL     1      25.573  48.685  49.477  1.00  0.00    -0.532 OA
ENDBRANCH  13  15
ENDBRANCH   2   5
BRANCH   1  18
HETATM   18  C   UNL     1      27.807  43.403  52.795  1.00  0.00     0.098 C 
HETATM   19  C   UNL     1      28.629  42.358  52.993  1.00  0.00     0.109 C 
HETATM   20  N   UNL     1      29.553  42.254  54.002  1.00  0.00    -0.364 N 
HETATM   21  C   UNL     1      29.806  43.340  54.849  1.00  0.00     0.046 A 
HETATM   22  H   UNL     1      30.237  41.507  53.948  1.00  0.00     0.165 HD
HETATM   23  C   UNL     1      29.001  44.490  54.773  1.00  0.00     0.042 A 
HETATM   24  C   UNL     1      30.806  43.278  55.823  1.00  0.00     0.030 A 
HETATM   25  C   UNL     1      29.216  45.574  55.631  1.00  0.00     0.018 A 
HETATM   26  C   UNL     1      27.921  44.539  53.753  1.00  0.00     0.201 C 
HETATM   27  C   UNL     1      30.233  45.507  56.582  1.00  0.00     0.001 A 
HETATM   28  C   UNL     1      31.024  44.361  56.680  1.00  0.00     0.002 A 
HETATM   29  O   UNL     1      27.149  45.495  53.697  1.00  0.00    -0.286 OA
ENDBRANCH   1  18
TORSDOF 3
ENDMDL
MODEL 6
REMARK VINA RESULT:      -9.2      3.539      4.553
REMARK  3 active torsions:
REMARK  status: ('A' for Active; 'I' for Inactive)
REMARK    1  A    between atoms: C_7  and  C_8 
REMARK       I    between atoms: C_8  and  N_9 
REMARK    2  A    between atoms: N_9  and  C_10 
REMARK    3  A    between atoms: C_18  and  N_19 
ROOT
HETATM    1  C   UNL     1      26.389  45.865  54.130  1.00  0.00     0.262 C 
HETATM    2  N   UNL     1      26.668  46.301  52.854  1.00  0.00    -0.305 N 
HETATM    3  O   UNL     1      25.280  45.655  54.612  1.00  0.00    -0.267 OA
HETATM    4  H   UNL     1      27.639  46.477  52.610  1.00  0.00     0.170 HD
ENDROOT
BRANCH   2   5
HETATM    5  C   UNL     1      25.744  46.494  51.848  1.00  0.00     0.163 A 
HETATM    6  N   UNL     1      24.995  47.586  51.693  1.00  0.00    -0.155 NA
HETATM    7  N   UNL     1      24.235  47.329  50.624  1.00  0.00    -0.275 N 
HETATM    8  H   UNL     1      23.574  48.039  50.329  1.00  0.00     0.189 HD
HETATM    9  C   UNL     1      24.462  46.105  50.054  1.00  0.00     0.064 A 
HETATM   10  C   UNL     1      25.456  45.526  50.836  1.00  0.00     0.042 A 
HETATM   11  C   UNL     1      23.889  45.481  48.942  1.00  0.00     0.034 A 
HETATM   12  C   UNL     1      25.929  44.241  50.498  1.00  0.00     0.053 A 
HETATM   13  C   UNL     1      25.373  43.602  49.373  1.00  0.00     0.103 A 
HETATM   14  C   UNL     1      24.366  44.209  48.609  1.00  0.00     0.038 A 
BRANCH  13  15
HETATM   15  N   UNL     1      25.867  42.273  48.988  1.00  0.00    -0.116 N 
HETATM   16  O   UNL     1      27.040  42.185  48.598  1.00  0.00    -0.532 OA
HETATM   17  O   UNL     1      25.083  41.318  49.078  1.00  0.00    -0.532 OA
ENDBRANCH  13  15
ENDBRANCH   2   5
BRANCH   1  18
HETATM   18  C   UNL     1      27.611  45.659  54.970  1.00  0.00     0.098 C 
HETATM   19  C   UNL     1      27.799  46.445  56.043  1.00  0.00     0.109 C 
HETATM   20  N   UNL     1      28.858  46.366  56.912  1.00  0.00    -0.364 N 
HETATM   21  C   UNL     1      29.785  45.321  56.808  1.00  0.00     0.046 A 
HETATM   22  H   UNL     1      28.803  46.886  57.781  1.00  0.00     0.165 HD
HETATM   23  C   UNL     1      29.727  44.438  55.716  1.00  0.00     0.042 A 
HETATM   24  C   UNL     1      30.817  45.178  57.739  1.00  0.00     0.030 A 
HETATM   25  C   UNL     1      30.662  43.407  55.576  1.00  0.00     0.018 A 
HETATM   26  C   UNL     1      28.643  44.613  54.714  1.00  0.00     0.201 C 
HETATM   27  C   UNL     1      31.672  43.262  56.526  1.00  0.00     0.001 A 
HETATM   28  C   UNL     1      31.751  44.146  57.603  1.00  0.00     0.002 A 
HETATM   29  O   UNL     1      28.595  43.909  53.707  1.00  0.00    -0.286 OA
ENDBRANCH   1  18
TORSDOF 3
ENDMDL
MODEL 7
REMARK VINA RESULT:      -9.2      5.005      7.943
REMARK  3 active torsions:
REMARK  status: ('A' for Active; 'I' for Inactive)
REMARK    1  A    between atoms: C_7  and  C_8 
REMARK       I    between atoms: C_8  and  N_9 
REMARK    2  A    between atoms: N_9  and  C_10 
REMARK    3  A    between atoms: C_18  and  N_19 
ROOT
HETATM    1  C   UNL     1      26.565  45.753  50.036  1.00  0.00     0.262 C 
HETATM    2  N   UNL     1      25.967  44.957  50.985  1.00  0.00    -0.305 N 
HETATM    3  O   UNL     1      27.662  45.579  49.512  1.00  0.00    -0.267 OA
HETATM    4  H   UNL     1      25.071  45.255  51.364  1.00  0.00     0.170 HD
ENDROOT
BRANCH   2   5
HETATM    5  C   UNL     1      26.456  43.757  51.457  1.00  0.00     0.163 A 
HETATM    6  N   UNL     1      26.132  42.555  50.979  1.00  0.00    -0.155 NA
HETATM    7  N   UNL     1      26.809  41.691  51.742  1.00  0.00    -0.275 N 
HETATM    8  H   UNL     1      26.699  40.701  51.550  1.00  0.00     0.189 HD
HETATM    9  C   UNL     1      27.583  42.279  52.705  1.00  0.00     0.064 A 
HETATM   10  C   UNL     1      27.377  43.645  52.545  1.00  0.00     0.042 A 
HETATM   11  C   UNL     1      28.427  41.731  53.676  1.00  0.00     0.034 A 
HETATM   12  C   UNL     1      28.055  44.542  53.396  1.00  0.00     0.053 A 
HETATM   13  C   UNL     1      28.918  44.011  54.372  1.00  0.00     0.103 A 
HETATM   14  C   UNL     1      29.100  42.627  54.514  1.00  0.00     0.038 A 
BRANCH  13  15
HETATM   15  N   UNL     1      29.653  44.927  55.254  1.00  0.00    -0.116 N 
HETATM   16  O   UNL     1      29.224  46.084  55.369  1.00  0.00    -0.532 OA
HETATM   17  O   UNL     1      30.656  44.489  55.834  1.00  0.00    -0.532 OA
ENDBRANCH  13  15
ENDBRANCH   2   5
BRANCH   1  18
HETATM   18  C   UNL     1      25.746  46.948  49.656  1.00  0.00     0.098 C 
HETATM   19  C   UNL     1      26.372  48.113  49.417  1.00  0.00     0.109 C 
HETATM   20  N   UNL     1      25.759  49.283  49.047  1.00  0.00    -0.364 N 
HETATM   21  C   UNL     1      24.391  49.306  48.749  1.00  0.00     0.046 A 
HETATM   22  H   UNL     1      26.344  50.046  48.721  1.00  0.00     0.165 HD
HETATM   23  C   UNL     1      23.605  48.165  48.980  1.00  0.00     0.042 A 
HETATM   24  C   UNL     1      23.774  50.471  48.286  1.00  0.00     0.030 A 
HETATM   25  C   UNL     1      22.231  48.175  48.719  1.00  0.00     0.018 A 
HETATM   26  C   UNL     1      24.263  46.937  49.499  1.00  0.00     0.201 C 
HETATM   27  C   UNL     1      21.632  49.338  48.234  1.00  0.00     0.001 A 
HETATM   28  C   UNL     1      22.401  50.483  48.021  1.00  0.00     0.002 A 
HETATM   29  O   UNL     1      23.603  45.938  49.781  1.00  0.00    -0.286 OA
ENDBRANCH   1  18
TORSDOF 3
ENDMDL
MODEL 8
REMARK VINA RESULT:      -9.1      2.462      8.053
REMARK  3 active torsions:
REMARK  status: ('A' for Active; 'I' for Inactive)
REMARK    1  A    between atoms: C_7  and  C_8 
REMARK       I    between atoms: C_8  and  N_9 
REMARK    2  A    between atoms: N_9  and  C_10 
REMARK    3  A    between atoms: C_18  and  N_19 
ROOT
HETATM    1  C   UNL     1      27.917  42.206  53.009  1.00  0.00     0.262 C 
HETATM    2  N   UNL     1      28.241  43.528  52.802  1.00  0.00    -0.305 N 
HETATM    3  O   UNL     1      27.450  41.713  54.032  1.00  0.00    -0.267 OA
HETATM    4  H   UNL     1      28.666  43.782  51.913  1.00  0.00     0.170 HD
ENDROOT
BRANCH   2   5
HETATM    5  C   UNL     1      28.012  44.562  53.684  1.00  0.00     0.163 A 
HETATM    6  N   UNL     1      27.057  45.483  53.555  1.00  0.00    -0.155 NA
HETATM    7  N   UNL     1      27.220  46.294  54.606  1.00  0.00    -0.275 N 
HETATM    8  H   UNL     1      26.589  47.082  54.700  1.00  0.00     0.189 HD
HETATM    9  C   UNL     1      28.246  45.936  55.437  1.00  0.00     0.064 A 
HETATM   10  C   UNL     1      28.792  44.793  54.860  1.00  0.00     0.042 A 
HETATM   11  C   UNL     1      28.723  46.509  56.620  1.00  0.00     0.034 A 
HETATM   12  C   UNL     1      29.881  44.161  55.495  1.00  0.00     0.053 A 
HETATM   13  C   UNL     1      30.367  44.717  56.693  1.00  0.00     0.103 A 
HETATM   14  C   UNL     1      29.801  45.875  57.246  1.00  0.00     0.038 A 
BRANCH  13  15
HETATM   15  N   UNL     1      31.487  44.063  57.384  1.00  0.00    -0.116 N 
HETATM   16  O   UNL     1      32.037  43.109  56.815  1.00  0.00    -0.532 OA
HETATM   17  O   UNL     1      31.818  44.504  58.493  1.00  0.00    -0.532 OA
ENDBRANCH  13  15
ENDBRANCH   2   5
BRANCH   1  18
HETATM   18  C   UNL     1      28.200  41.330  51.828  1.00  0.00     0.098 C 
HETATM   19  C   UNL     1      28.897  40.197  52.016  1.00  0.00     0.109 C 
HETATM   20  N   UNL     1      29.220  39.290  51.037  1.00  0.00    -0.364 N 
HETATM   21  C   UNL     1      28.701  39.426  49.744  1.00  0.00     0.046 A 
HETATM   22  H   UNL     1      29.590  38.390  51.324  1.00  0.00     0.165 HD
HETATM   23  C   UNL     1      27.975  40.579  49.397  1.00  0.00     0.042 A 
HETATM   24  C   UNL     1      28.949  38.464  48.763  1.00  0.00     0.030 A 
HETATM   25  C   UNL     1      27.475  40.750  48.103  1.00  0.00     0.018 A 
HETATM   26  C   UNL     1      27.738  41.613  50.439  1.00  0.00     0.201 C 
HETATM   27  C   UNL     1      27.710  39.769  47.140  1.00  0.00     0.001 A 
HETATM   28  C   UNL     1      28.448  38.631  47.468  1.00  0.00     0.002 A 
HETATM   29  O   UNL     1      27.170  42.668  50.163  1.00  0.00    -0.286 OA
ENDBRANCH   1  18
TORSDOF 3
ENDMDL
MODEL 9
REMARK VINA RESULT:      -9.1      4.293      5.787
REMARK  3 active torsions:
REMARK  status: ('A' for Active; 'I' for Inactive)
REMARK    1  A    between atoms: C_7  and  C_8 
REMARK       I    between atoms: C_8  and  N_9 
REMARK    2  A    between atoms: N_9  and  C_10 
REMARK    3  A    between atoms: C_18  and  N_19 
ROOT
HETATM    1  C   UNL     1      25.469  45.089  52.544  1.00  0.00     0.262 C 
HETATM    2  N   UNL     1      25.760  46.087  51.641  1.00  0.00    -0.305 N 
HETATM    3  O   UNL     1      24.366  44.605  52.779  1.00  0.00    -0.267 OA
HETATM    4  H   UNL     1      26.719  46.419  51.588  1.00  0.00     0.170 HD
ENDROOT
BRANCH   2   5
HETATM    5  C   UNL     1      24.867  46.665  50.764  1.00  0.00     0.163 A 
HETATM    6  N   UNL     1      24.549  47.960  50.736  1.00  0.00    -0.155 NA
HETATM    7  N   UNL     1      23.639  48.066  49.762  1.00  0.00    -0.275 N 
HETATM    8  H   UNL     1      23.251  48.984  49.573  1.00  0.00     0.189 HD
HETATM    9  C   UNL     1      23.349  46.886  49.132  1.00  0.00     0.064 A 
HETATM   10  C   UNL     1      24.145  45.938  49.767  1.00  0.00     0.042 A 
HETATM   11  C   UNL     1      22.477  46.587  48.081  1.00  0.00     0.034 A 
HETATM   12  C   UNL     1      24.086  44.597  49.334  1.00  0.00     0.053 A 
HETATM   13  C   UNL     1      23.223  44.279  48.269  1.00  0.00     0.103 A 
HETATM   14  C   UNL     1      22.426  45.257  47.654  1.00  0.00     0.038 A 
BRANCH  13  15
HETATM   15  N   UNL     1      23.161  42.893  47.786  1.00  0.00    -0.116 N 
HETATM   16  O   UNL     1      22.359  42.125  48.337  1.00  0.00    -0.532 OA
HETATM   17  O   UNL     1      23.913  42.572  46.855  1.00  0.00    -0.532 OA
ENDBRANCH  13  15
ENDBRANCH   2   5
BRANCH   1  18
HETATM   18  C   UNL     1      26.668  44.595  53.293  1.00  0.00     0.098 C 
HETATM   19  C   UNL     1      27.129  43.359  53.035  1.00  0.00     0.109 C 
HETATM   20  N   UNL     1      28.221  42.778  53.628  1.00  0.00    -0.364 N 
HETATM   21  C   UNL     1      29.046  43.521  54.482  1.00  0.00     0.046 A 
HETATM   22  H   UNL     1      28.580  41.918  53.228  1.00  0.00     0.165 HD
HETATM   23  C   UNL     1      28.671  44.821  54.863  1.00  0.00     0.042 A 
HETATM   24  C   UNL     1      30.209  42.968  55.022  1.00  0.00     0.030 A 
HETATM   25  C   UNL     1      29.463  45.569  55.739  1.00  0.00     0.018 A 
HETATM   26  C   UNL     1      27.417  45.394  54.306  1.00  0.00     0.201 C 
HETATM   27  C   UNL     1      30.634  45.013  56.252  1.00  0.00     0.001 A 
HETATM   28  C   UNL     1      31.005  43.715  55.897  1.00  0.00     0.002 A 
HETATM   29  O   UNL     1      27.014  46.499  54.665  1.00  0.00    -0.286 OA
ENDBRANCH   1  18
TORSDOF 3
ENDMDL
MODEL 10
REMARK VINA RESULT:      -9.0      2.529      3.330
REMARK  3 active torsions:
REMARK  status: ('A' for Active; 'I' for Inactive)
REMARK    1  A    between atoms: C_7  and  C_8 
REMARK       I    between atoms: C_8  and  N_9 
REMARK    2  A    between atoms: N_9  and  C_10 
REMARK    3  A    between atoms: C_18  and  N_19 
ROOT
HETATM    1  C   UNL     1      27.615  44.105  52.557  1.00  0.00     0.262 C 
HETATM    2  N   UNL     1      26.289  43.851  52.825  1.00  0.00    -0.305 N 
HETATM    3  O   UNL     1      28.120  44.316  51.458  1.00  0.00    -0.267 OA
HETATM    4  H   UNL     1      26.025  43.647  53.785  1.00  0.00     0.170 HD
ENDROOT
BRANCH   2   5
HETATM    5  C   UNL     1      25.262  43.878  51.905  1.00  0.00     0.163 A 
HETATM    6  N   UNL     1      24.293  44.793  51.864  1.00  0.00    -0.155 NA
HETATM    7  N   UNL     1      23.512  44.417  50.846  1.00  0.00    -0.275 N 
HETATM    8  H   UNL     1      22.696  44.983  50.639  1.00  0.00     0.189 HD
HETATM    9  C   UNL     1      23.937  43.288  50.199  1.00  0.00     0.064 A 
HETATM   10  C   UNL     1      25.093  42.905  50.871  1.00  0.00     0.042 A 
HETATM   11  C   UNL     1      23.410  42.595  49.105  1.00  0.00     0.034 A 
HETATM   12  C   UNL     1      25.790  41.760  50.433  1.00  0.00     0.053 A 
HETATM   13  C   UNL     1      25.283  41.056  49.325  1.00  0.00     0.103 A 
HETATM   14  C   UNL     1      24.109  41.463  48.672  1.00  0.00     0.038 A 
BRANCH  13  15
HETATM   15  N   UNL     1      26.004  39.873  48.836  1.00  0.00    -0.116 N 
HETATM   16  O   UNL     1      26.492  39.106  49.678  1.00  0.00    -0.532 OA
HETATM   17  O   UNL     1      26.081  39.709  47.610  1.00  0.00    -0.532 OA
ENDBRANCH  13  15
ENDBRANCH   2   5
BRANCH   1  18
HETATM   18  C   UNL     1      28.482  44.097  53.779  1.00  0.00     0.098 C 
HETATM   19  C   UNL     1      29.448  43.168  53.880  1.00  0.00     0.109 C 
HETATM   20  N   UNL     1      30.326  43.045  54.928  1.00  0.00    -0.364 N 
HETATM   21  C   UNL     1      30.361  44.010  55.943  1.00  0.00     0.046 A 
HETATM   22  H   UNL     1      31.121  42.426  54.814  1.00  0.00     0.165 HD
HETATM   23  C   UNL     1      29.390  45.025  55.979  1.00  0.00     0.042 A 
HETATM   24  C   UNL     1      31.309  43.944  56.967  1.00  0.00     0.030 A 
HETATM   25  C   UNL     1      29.387  45.979  57.001  1.00  0.00     0.018 A 
HETATM   26  C   UNL     1      28.367  45.073  54.901  1.00  0.00     0.201 C 
HETATM   27  C   UNL     1      30.354  45.916  58.003  1.00  0.00     0.001 A 
HETATM   28  C   UNL     1      31.310  44.899  57.988  1.00  0.00     0.002 A 
HETATM   29  O   UNL     1      27.457  45.900  54.930  1.00  0.00    -0.286 OA
ENDBRANCH   1  18
TORSDOF 3
ENDMDL
