MODEL 1
REMARK VINA RESULT:      -9.3      0.000      0.000
REMARK  6 active torsions:
REMARK  status: ('A' for Active; 'I' for Inactive)
REMARK    1  A    between atoms: O_2  and  C_3 
REMARK    2  A    between atoms: C_6  and  C_7 
REMARK    3  A    between atoms: C_7  and  N_8 
REMARK       I    between atoms: N_8  and  C_9 
REMARK    4  A    between atoms: C_9  and  C_10 
REMARK    5  A    between atoms: C_10  and  O_11 
REMARK    6  A    between atoms: N_12  and  C_13 
ROOT
HETATM    1  C   UNL     1      24.922  46.346  50.475  1.00  0.00     0.256 C 
HETATM    2  N   UNL     1      26.057  45.699  49.804  1.00  0.00    -0.254 N 
HETATM    3  C   UNL     1      27.151  46.521  49.516  1.00  0.00     0.330 C 
HETATM    4  O   UNL     1      28.299  46.151  49.275  1.00  0.00    -0.246 OA
HETATM    5  N   UNL     1      26.876  47.865  49.373  1.00  0.00    -0.308 N 
HETATM    6  C   UNL     1      25.587  48.387  49.279  1.00  0.00     0.048 A 
HETATM    7  C   UNL     1      24.528  47.600  49.728  1.00  0.00     0.034 A 
HETATM    8  C   UNL     1      25.363  49.640  48.715  1.00  0.00     0.030 A 
HETATM    9  C   UNL     1      24.052  50.092  48.557  1.00  0.00     0.002 A 
HETATM   10  C   UNL     1      22.981  49.297  48.965  1.00  0.00     0.001 A 
HETATM   11  C   UNL     1      23.214  48.053  49.556  1.00  0.00     0.015 A 
HETATM   12  H   UNL     1      27.665  48.408  49.041  1.00  0.00     0.170 HD
ENDROOT
BRANCH   1  13
HETATM   13  C   UNL     1      25.353  46.671  51.977  1.00  0.00     0.279 C 
HETATM   14  N   UNL     1      25.346  45.614  52.868  1.00  0.00    -0.352 N 
HETATM   15  H   UNL     1      25.183  44.673  52.530  1.00  0.00     0.162 HD
HETATM   16  O   UNL     1      25.771  47.782  52.315  1.00  0.00    -0.268 OA
BRANCH  14  17
HETATM   17  C   UNL     1      25.757  45.769  54.243  1.00  0.00     0.161 C 
BRANCH  17  18
HETATM   18  C   UNL     1      27.128  45.185  54.473  1.00  0.00    -0.040 A 
HETATM   19  C   UNL     1      28.110  45.911  55.158  1.00  0.00     0.011 A 
HETATM   20  C   UNL     1      29.362  45.343  55.408  1.00  0.00     0.037 A 
HETATM   21  C   UNL     1      29.655  44.043  54.990  1.00  0.00     0.068 A 
HETATM   22  C   UNL     1      28.686  43.317  54.300  1.00  0.00     0.037 A 
HETATM   23  C   UNL     1      27.430  43.882  54.049  1.00  0.00     0.011 A 
BRANCH  21  24
HETATM   24  O   UNL     1      30.910  43.605  55.312  1.00  0.00    -0.356 OA
HETATM   25  C   UNL     1      31.212  43.489  56.696  1.00  0.00     0.210 C 
ENDBRANCH  21  24
ENDBRANCH  17  18
ENDBRANCH  14  17
ENDBRANCH   1  13
BRANCH   1  26
HETATM   26  O   UNL     1      23.784  45.488  50.597  1.00  0.00    -0.359 OA
HETATM   27  H   UNL     1      23.579  45.492  51.550  1.00  0.00     0.213 HD
ENDBRANCH   1  26
BRANCH   2  28
HETATM   28  C   UNL     1      26.150  44.282  49.660  1.00  0.00     0.043 A 
HETATM   29  C   UNL     1      25.275  43.571  48.828  1.00  0.00     0.031 A 
HETATM   30  C   UNL     1      25.341  42.175  48.741  1.00  0.00     0.026 A 
HETATM   31  C   UNL     1      26.277  41.477  49.495  1.00  0.00     0.034 A 
HETATM   32 CL   UNL     1      26.352  39.761  49.400  1.00  0.00    -0.084 Cl
HETATM   33  C   UNL     1      27.148  42.162  50.337  1.00  0.00     0.026 A 
HETATM   34  C   UNL     1      27.079  43.556  50.421  1.00  0.00     0.031 A 
ENDBRANCH   2  28
TORSDOF 6
ENDMDL
MODEL 2
REMARK VINA RESULT:      -8.9      5.959      9.397
REMARK  6 active torsions:
REMARK  status: ('A' for Active; 'I' for Inactive)
REMARK    1  A    between atoms: O_2  and  C_3 
REMARK    2  A    between atoms: C_6  and  C_7 
REMARK    3  A    between atoms: C_7  and  N_8 
REMARK       I    between atoms: N_8  and  C_9 
REMARK    4  A    between atoms: C_9  and  C_10 
REMARK    5  A    between atoms: C_10  and  O_11 
REMARK    6  A    between atoms: N_12  and  C_13 
ROOT
HETATM    1  C   UNL     1      19.431  49.753  47.930  1.00  0.00     0.256 C 
HETATM    2  N   UNL     1      18.606  49.906  49.135  1.00  0.00    -0.254 N 
HETATM    3  C   UNL     1      19.009  49.172  50.254  1.00  0.00     0.330 C 
HETATM    4  O   UNL     1      18.690  49.386  51.422  1.00  0.00    -0.246 OA
HETATM    5  N   UNL     1      19.736  48.028  49.997  1.00  0.00    -0.308 N 
HETATM    6  C   UNL     1      19.884  47.473  48.726  1.00  0.00     0.048 A 
HETATM    7  C   UNL     1      19.629  48.285  47.623  1.00  0.00     0.034 A 
HETATM    8  C   UNL     1      20.236  46.135  48.568  1.00  0.00     0.030 A 
HETATM    9  C   UNL     1      20.289  45.591  47.284  1.00  0.00     0.002 A 
HETATM   10  C   UNL     1      19.996  46.383  46.174  1.00  0.00     0.001 A 
HETATM   11  C   UNL     1      19.671  47.731  46.338  1.00  0.00     0.015 A 
HETATM   12  H   UNL     1      19.900  47.457  50.818  1.00  0.00     0.170 HD
ENDROOT
BRANCH   1  13
HETATM   13  C   UNL     1      20.824  50.490  48.185  1.00  0.00     0.279 C 
HETATM   14  N   UNL     1      21.954  49.869  47.687  1.00  0.00    -0.352 N 
HETATM   15  H   UNL     1      21.861  49.051  47.098  1.00  0.00     0.162 HD
HETATM   16  O   UNL     1      20.890  51.606  48.706  1.00  0.00    -0.268 OA
BRANCH  14  17
HETATM   17  C   UNL     1      23.267  50.456  47.813  1.00  0.00     0.161 C 
BRANCH  17  18
HETATM   18  C   UNL     1      24.218  49.524  48.521  1.00  0.00    -0.040 A 
HETATM   19  C   UNL     1      23.741  48.402  49.209  1.00  0.00     0.011 A 
HETATM   20  C   UNL     1      24.633  47.518  49.823  1.00  0.00     0.037 A 
HETATM   21  C   UNL     1      26.012  47.730  49.753  1.00  0.00     0.068 A 
HETATM   22  C   UNL     1      26.494  48.849  49.077  1.00  0.00     0.037 A 
HETATM   23  C   UNL     1      25.604  49.737  48.461  1.00  0.00     0.011 A 
BRANCH  21  24
HETATM   24  O   UNL     1      26.771  46.782  50.383  1.00  0.00    -0.356 OA
HETATM   25  C   UNL     1      26.824  45.498  49.775  1.00  0.00     0.210 C 
ENDBRANCH  21  24
ENDBRANCH  17  18
ENDBRANCH  14  17
ENDBRANCH   1  13
BRANCH   1  26
HETATM   26  O   UNL     1      18.874  50.406  46.786  1.00  0.00    -0.359 OA
HETATM   27  H   UNL     1      18.122  50.916  47.141  1.00  0.00     0.213 HD
ENDBRANCH   1  26
BRANCH   2  28
HETATM   28  C   UNL     1      17.597  50.909  49.244  1.00  0.00     0.043 A 
HETATM   29  C   UNL     1      16.312  50.718  48.719  1.00  0.00     0.031 A 
HETATM   30  C   UNL     1      15.349  51.733  48.783  1.00  0.00     0.026 A 
HETATM   31  C   UNL     1      15.669  52.955  49.364  1.00  0.00     0.034 A 
HETATM   32 CL   UNL     1      14.493  54.208  49.433  1.00  0.00    -0.084 Cl
HETATM   33  C   UNL     1      16.943  53.171  49.881  1.00  0.00     0.026 A 
HETATM   34  C   UNL     1      17.901  52.154  49.816  1.00  0.00     0.031 A 
ENDBRANCH   2  28
TORSDOF 6
ENDMDL
MODEL 3
REMARK VINA RESULT:      -8.8      1.911      2.460
REMARK  6 active torsions:
REMARK  status: ('A' for Active; 'I' for Inactive)
REMARK    1  A    between atoms: O_2  and  C_3 
REMARK    2  A    between atoms: C_6  and  C_7 
REMARK    3  A    between atoms: C_7  and  N_8 
REMARK       I    between atoms: N_8  and  C_9 
REMARK    4  A    between atoms: C_9  and  C_10 
REMARK    5  A    between atoms: C_10  and  O_11 
REMARK    6  A    between atoms: N_12  and  C_13 
ROOT
HETATM    1  C   UNL     1      24.619  43.725  50.745  1.00  0.00     0.256 C 
HETATM    2  N   UNL     1      25.907  43.708  50.040  1.00  0.00    -0.254 N 
HETATM    3  C   UNL     1      26.370  44.944  49.576  1.00  0.00     0.330 C 
HETATM    4  O   UNL     1      27.528  45.221  49.269  1.00  0.00    -0.246 OA
HETATM    5  N   UNL     1      25.405  45.898  49.330  1.00  0.00    -0.308 N 
HETATM    6  C   UNL     1      24.037  45.628  49.303  1.00  0.00     0.048 A 
HETATM    7  C   UNL     1      23.588  44.461  49.919  1.00  0.00     0.034 A 
HETATM    8  C   UNL     1      23.154  46.479  48.644  1.00  0.00     0.030 A 
HETATM    9  C   UNL     1      21.805  46.131  48.562  1.00  0.00     0.002 A 
HETATM   10  C   UNL     1      21.349  44.946  49.140  1.00  0.00     0.001 A 
HETATM   11  C   UNL     1      22.235  44.111  49.824  1.00  0.00     0.015 A 
HETATM   12  H   UNL     1      25.763  46.730  48.877  1.00  0.00     0.170 HD
ENDROOT
BRANCH   1  13
HETATM   13  C   UNL     1      24.838  44.423  52.164  1.00  0.00     0.279 C 
HETATM   14  N   UNL     1      25.374  43.635  53.166  1.00  0.00    -0.352 N 
HETATM   15  H   UNL     1      25.706  42.704  52.951  1.00  0.00     0.162 HD
HETATM   16  O   UNL     1      24.641  45.628  52.341  1.00  0.00    -0.268 OA
BRANCH  14  17
HETATM   17  C   UNL     1      25.662  44.161  54.480  1.00  0.00     0.161 C 
BRANCH  17  18
HETATM   18  C   UNL     1      27.146  44.190  54.744  1.00  0.00    -0.040 A 
HETATM   19  C   UNL     1      27.744  45.302  55.350  1.00  0.00     0.011 A 
HETATM   20  C   UNL     1      29.113  45.301  55.633  1.00  0.00     0.037 A 
HETATM   21  C   UNL     1      29.905  44.192  55.329  1.00  0.00     0.068 A 
HETATM   22  C   UNL     1      29.320  43.085  54.719  1.00  0.00     0.037 A 
HETATM   23  C   UNL     1      27.949  43.082  54.434  1.00  0.00     0.011 A 
BRANCH  21  24
HETATM   24  O   UNL     1      31.224  44.317  55.673  1.00  0.00    -0.356 OA
HETATM   25  C   UNL     1      31.648  43.626  56.841  1.00  0.00     0.210 C 
ENDBRANCH  21  24
ENDBRANCH  17  18
ENDBRANCH  14  17
ENDBRANCH   1  13
BRANCH   1  26
HETATM   26  O   UNL     1      24.134  42.414  51.051  1.00  0.00    -0.359 OA
HETATM   27  H   UNL     1      23.846  42.474  51.981  1.00  0.00     0.213 HD
ENDBRANCH   1  26
BRANCH   2  28
HETATM   28  C   UNL     1      26.752  42.559  50.025  1.00  0.00     0.043 A 
HETATM   29  C   UNL     1      26.807  41.703  48.916  1.00  0.00     0.031 A 
HETATM   30  C   UNL     1      27.597  40.548  48.938  1.00  0.00     0.026 A 
HETATM   31  C   UNL     1      28.332  40.232  50.075  1.00  0.00     0.034 A 
HETATM   32 CL   UNL     1      29.294  38.806  50.109  1.00  0.00    -0.084 Cl
HETATM   33  C   UNL     1      28.283  41.061  51.191  1.00  0.00     0.026 A 
HETATM   34  C   UNL     1      27.493  42.214  51.166  1.00  0.00     0.031 A 
ENDBRANCH   2  28
TORSDOF 6
ENDMDL
MODEL 4
REMARK VINA RESULT:      -8.6      3.777      7.609
REMARK  6 active torsions:
REMARK  status: ('A' for Active; 'I' for Inactive)
REMARK    1  A    between atoms: O_2  and  C_3 
REMARK    2  A    between atoms: C_6  and  C_7 
REMARK    3  A    between atoms: C_7  and  N_8 
REMARK       I    between atoms: N_8  and  C_9 
REMARK    4  A    between atoms: C_9  and  C_10 
REMARK    5  A    between atoms: C_10  and  O_11 
REMARK    6  A    between atoms: N_12  and  C_13 
ROOT
HETATM    1  C   UNL     1      28.019  43.436  52.293  1.00  0.00     0.256 C 
HETATM    2  N   UNL     1      27.787  43.698  53.719  1.00  0.00    -0.254 N 
HETATM    3  C   UNL     1      26.478  43.512  54.174  1.00  0.00     0.330 C 
HETATM    4  O   UNL     1      26.126  43.349  55.341  1.00  0.00    -0.246 OA
HETATM    5  N   UNL     1      25.484  43.645  53.226  1.00  0.00    -0.308 N 
HETATM    6  C   UNL     1      25.696  44.160  51.948  1.00  0.00     0.048 A 
HETATM    7  C   UNL     1      27.002  44.182  51.459  1.00  0.00     0.034 A 
HETATM    8  C   UNL     1      24.640  44.673  51.200  1.00  0.00     0.030 A 
HETATM    9  C   UNL     1      24.903  45.260  49.961  1.00  0.00     0.002 A 
HETATM   10  C   UNL     1      26.210  45.325  49.479  1.00  0.00     0.001 A 
HETATM   11  C   UNL     1      27.262  44.782  50.221  1.00  0.00     0.015 A 
HETATM   12  H   UNL     1      24.548  43.631  53.614  1.00  0.00     0.170 HD
ENDROOT
BRANCH   1  13
HETATM   13  C   UNL     1      27.928  41.860  52.056  1.00  0.00     0.279 C 
HETATM   14  N   UNL     1      28.426  41.383  50.857  1.00  0.00    -0.352 N 
HETATM   15  H   UNL     1      28.919  42.009  50.233  1.00  0.00     0.162 HD
HETATM   16  O   UNL     1      27.531  41.087  52.931  1.00  0.00    -0.268 OA
BRANCH  14  17
HETATM   17  C   UNL     1      28.442  39.974  50.543  1.00  0.00     0.161 C 
BRANCH  17  18
HETATM   18  C   UNL     1      28.333  39.744  49.057  1.00  0.00    -0.040 A 
HETATM   19  C   UNL     1      28.480  38.461  48.518  1.00  0.00     0.011 A 
HETATM   20  C   UNL     1      28.331  38.250  47.144  1.00  0.00     0.037 A 
HETATM   21  C   UNL     1      28.022  39.308  46.288  1.00  0.00     0.068 A 
HETATM   22  C   UNL     1      27.882  40.591  46.815  1.00  0.00     0.037 A 
HETATM   23  C   UNL     1      28.030  40.806  48.190  1.00  0.00     0.011 A 
BRANCH  21  24
HETATM   24  O   UNL     1      27.889  38.962  44.971  1.00  0.00    -0.356 OA
HETATM   25  C   UNL     1      27.111  37.805  44.690  1.00  0.00     0.210 C 
ENDBRANCH  21  24
ENDBRANCH  17  18
ENDBRANCH  14  17
ENDBRANCH   1  13
BRANCH   1  26
HETATM   26  O   UNL     1      29.337  43.796  51.867  1.00  0.00    -0.359 OA
HETATM   27  H   UNL     1      29.922  43.176  52.341  1.00  0.00     0.213 HD
ENDBRANCH   1  26
BRANCH   2  28
HETATM   28  C   UNL     1      28.858  43.903  54.640  1.00  0.00     0.043 A 
HETATM   29  C   UNL     1      29.784  42.890  54.925  1.00  0.00     0.031 A 
HETATM   30  C   UNL     1      30.795  43.086  55.874  1.00  0.00     0.026 A 
HETATM   31  C   UNL     1      30.881  44.295  56.555  1.00  0.00     0.034 A 
HETATM   32 CL   UNL     1      32.114  44.534  57.730  1.00  0.00    -0.084 Cl
HETATM   33  C   UNL     1      29.965  45.310  56.296  1.00  0.00     0.026 A 
HETATM   34  C   UNL     1      28.957  45.111  55.348  1.00  0.00     0.031 A 
ENDBRANCH   2  28
TORSDOF 6
ENDMDL
MODEL 5
REMARK VINA RESULT:      -8.6     10.563     12.066
REMARK  6 active torsions:
REMARK  status: ('A' for Active; 'I' for Inactive)
REMARK    1  A    between atoms: O_2  and  C_3 
REMARK    2  A    between atoms: C_6  and  C_7 
REMARK    3  A    between atoms: C_7  and  N_8 
REMARK       I    between atoms: N_8  and  C_9 
REMARK    4  A    between atoms: C_9  and  C_10 
REMARK    5  A    between atoms: C_10  and  O_11 
REMARK    6  A    between atoms: N_12  and  C_13 
ROOT
HETATM    1  C   UNL     1      27.925  49.571  40.905  1.00  0.00     0.256 C 
HETATM    2  N   UNL     1      27.173  48.706  39.987  1.00  0.00    -0.254 N 
HETATM    3  C   UNL     1      27.690  48.584  38.693  1.00  0.00     0.330 C 
HETATM    4  O   UNL     1      27.437  47.692  37.886  1.00  0.00    -0.246 OA
HETATM    5  N   UNL     1      28.465  49.636  38.251  1.00  0.00    -0.308 N 
HETATM    6  C   UNL     1      28.561  50.860  38.912  1.00  0.00     0.048 A 
HETATM    7  C   UNL     1      28.187  50.910  40.254  1.00  0.00     0.034 A 
HETATM    8  C   UNL     1      28.979  52.005  38.239  1.00  0.00     0.030 A 
HETATM    9  C   UNL     1      28.979  53.229  38.909  1.00  0.00     0.002 A 
HETATM   10  C   UNL     1      28.568  53.300  40.241  1.00  0.00     0.001 A 
HETATM   11  C   UNL     1      28.178  52.143  40.918  1.00  0.00     0.015 A 
HETATM   12  H   UNL     1      28.714  49.573  37.271  1.00  0.00     0.170 HD
ENDROOT
BRANCH   1  13
HETATM   13  C   UNL     1      29.286  48.829  41.284  1.00  0.00     0.279 C 
HETATM   14  N   UNL     1      30.028  49.379  42.313  1.00  0.00    -0.352 N 
HETATM   15  H   UNL     1      29.646  50.145  42.854  1.00  0.00     0.162 HD
HETATM   16  O   UNL     1      29.619  47.761  40.763  1.00  0.00    -0.268 OA
BRANCH  14  17
HETATM   17  C   UNL     1      31.254  48.776  42.779  1.00  0.00     0.161 C 
BRANCH  17  18
HETATM   18  C   UNL     1      32.400  49.755  42.724  1.00  0.00    -0.040 A 
HETATM   19  C   UNL     1      32.464  50.834  43.614  1.00  0.00     0.011 A 
HETATM   20  C   UNL     1      33.553  51.709  43.587  1.00  0.00     0.037 A 
HETATM   21  C   UNL     1      34.600  51.519  42.683  1.00  0.00     0.068 A 
HETATM   22  C   UNL     1      34.541  50.453  41.788  1.00  0.00     0.037 A 
HETATM   23  C   UNL     1      33.452  49.574  41.812  1.00  0.00     0.011 A 
BRANCH  21  24
HETATM   24  O   UNL     1      35.610  52.438  42.773  1.00  0.00    -0.356 OA
HETATM   25  C   UNL     1      36.179  52.639  44.060  1.00  0.00     0.210 C 
ENDBRANCH  21  24
ENDBRANCH  17  18
ENDBRANCH  14  17
ENDBRANCH   1  13
BRANCH   1  26
HETATM   26  O   UNL     1      27.257  49.773  42.154  1.00  0.00    -0.359 OA
HETATM   27  H   UNL     1      27.936  49.576  42.826  1.00  0.00     0.213 HD
ENDBRANCH   1  26
BRANCH   2  28
HETATM   28  C   UNL     1      26.117  47.857  40.434  1.00  0.00     0.043 A 
HETATM   29  C   UNL     1      26.376  46.619  41.036  1.00  0.00     0.031 A 
HETATM   30  C   UNL     1      25.329  45.771  41.418  1.00  0.00     0.026 A 
HETATM   31  C   UNL     1      24.011  46.151  41.189  1.00  0.00     0.034 A 
HETATM   32 CL   UNL     1      22.723  45.106  41.644  1.00  0.00    -0.084 Cl
HETATM   33  C   UNL     1      23.731  47.371  40.581  1.00  0.00     0.026 A 
HETATM   34  C   UNL     1      24.780  48.215  40.202  1.00  0.00     0.031 A 
ENDBRANCH   2  28
TORSDOF 6
ENDMDL
MODEL 6
REMARK VINA RESULT:      -7.9      3.087      7.564
REMARK  6 active torsions:
REMARK  status: ('A' for Active; 'I' for Inactive)
REMARK    1  A    between atoms: O_2  and  C_3 
REMARK    2  A    between atoms: C_6  and  C_7 
REMARK    3  A    between atoms: C_7  and  N_8 
REMARK       I    between atoms: N_8  and  C_9 
REMARK    4  A    between atoms: C_9  and  C_10 
REMARK    5  A    between atoms: C_10  and  O_11 
REMARK    6  A    between atoms: N_12  and  C_13 
ROOT
HETATM    1  C   UNL     1      25.210  43.383  51.040  1.00  0.00     0.256 C 
HETATM    2  N   UNL     1      26.117  44.539  51.037  1.00  0.00    -0.254 N 
HETATM    3  C   UNL     1      26.724  44.842  49.814  1.00  0.00     0.330 C 
HETATM    4  O   UNL     1      27.234  45.915  49.498  1.00  0.00    -0.246 OA
HETATM    5  N   UNL     1      26.863  43.791  48.932  1.00  0.00    -0.308 N 
HETATM    6  C   UNL     1      26.647  42.456  49.276  1.00  0.00     0.048 A 
HETATM    7  C   UNL     1      25.897  42.188  50.419  1.00  0.00     0.034 A 
HETATM    8  C   UNL     1      27.201  41.426  48.520  1.00  0.00     0.030 A 
HETATM    9  C   UNL     1      27.038  40.106  48.944  1.00  0.00     0.002 A 
HETATM   10  C   UNL     1      26.323  39.826  50.109  1.00  0.00     0.001 A 
HETATM   11  C   UNL     1      25.746  40.863  50.846  1.00  0.00     0.015 A 
HETATM   12  H   UNL     1      27.418  44.017  48.115  1.00  0.00     0.170 HD
ENDROOT
BRANCH   1  13
HETATM   13  C   UNL     1      23.891  43.784  50.236  1.00  0.00     0.279 C 
HETATM   14  N   UNL     1      24.009  44.823  49.331  1.00  0.00    -0.352 N 
HETATM   15  H   UNL     1      24.921  45.213  49.128  1.00  0.00     0.162 HD
HETATM   16  O   UNL     1      22.843  43.141  50.332  1.00  0.00    -0.268 OA
BRANCH  14  17
HETATM   17  C   UNL     1      22.900  45.250  48.510  1.00  0.00     0.161 C 
BRANCH  17  18
HETATM   18  C   UNL     1      22.578  46.705  48.740  1.00  0.00    -0.040 A 
HETATM   19  C   UNL     1      23.559  47.593  49.196  1.00  0.00     0.011 A 
HETATM   20  C   UNL     1      23.263  48.948  49.363  1.00  0.00     0.037 A 
HETATM   21  C   UNL     1      21.992  49.444  49.068  1.00  0.00     0.068 A 
HETATM   22  C   UNL     1      21.006  48.566  48.622  1.00  0.00     0.037 A 
HETATM   23  C   UNL     1      21.299  47.207  48.454  1.00  0.00     0.011 A 
BRANCH  21  24
HETATM   24  O   UNL     1      21.841  50.790  49.260  1.00  0.00    -0.356 OA
HETATM   25  C   UNL     1      20.636  51.374  48.783  1.00  0.00     0.210 C 
ENDBRANCH  21  24
ENDBRANCH  17  18
ENDBRANCH  14  17
ENDBRANCH   1  13
BRANCH   1  26
HETATM   26  O   UNL     1      24.751  43.039  52.351  1.00  0.00    -0.359 OA
HETATM   27  H   UNL     1      25.173  42.180  52.537  1.00  0.00     0.213 HD
ENDBRANCH   1  26
BRANCH   2  28
HETATM   28  C   UNL     1      26.203  45.442  52.139  1.00  0.00     0.043 A 
HETATM   29  C   UNL     1      25.426  46.607  52.195  1.00  0.00     0.031 A 
HETATM   30  C   UNL     1      25.563  47.513  53.254  1.00  0.00     0.026 A 
HETATM   31  C   UNL     1      26.488  47.266  54.262  1.00  0.00     0.034 A 
HETATM   32 CL   UNL     1      26.668  48.383  55.557  1.00  0.00    -0.084 Cl
HETATM   33  C   UNL     1      27.278  46.121  54.220  1.00  0.00     0.026 A 
HETATM   34  C   UNL     1      27.138  45.219  53.161  1.00  0.00     0.031 A 
ENDBRANCH   2  28
TORSDOF 6
ENDMDL
MODEL 7
REMARK VINA RESULT:      -7.7     11.670     14.292
REMARK  6 active torsions:
REMARK  status: ('A' for Active; 'I' for Inactive)
REMARK    1  A    between atoms: O_2  and  C_3 
REMARK    2  A    between atoms: C_6  and  C_7 
REMARK    3  A    between atoms: C_7  and  N_8 
REMARK       I    between atoms: N_8  and  C_9 
REMARK    4  A    between atoms: C_9  and  C_10 
REMARK    5  A    between atoms: C_10  and  O_11 
REMARK    6  A    between atoms: N_12  and  C_13 
ROOT
HETATM    1  C   UNL     1      32.169  50.883  39.945  1.00  0.00     0.256 C 
HETATM    2  N   UNL     1      33.229  51.476  40.769  1.00  0.00    -0.254 N 
HETATM    3  C   UNL     1      32.914  51.695  42.114  1.00  0.00     0.330 C 
HETATM    4  O   UNL     1      33.712  51.859  43.035  1.00  0.00    -0.246 OA
HETATM    5  N   UNL     1      31.574  51.860  42.401  1.00  0.00    -0.308 N 
HETATM    6  C   UNL     1      30.590  52.040  41.430  1.00  0.00     0.048 A 
HETATM    7  C   UNL     1      30.883  51.659  40.122  1.00  0.00     0.034 A 
HETATM    8  C   UNL     1      29.367  52.622  41.753  1.00  0.00     0.030 A 
HETATM    9  C   UNL     1      28.440  52.867  40.738  1.00  0.00     0.002 A 
HETATM   10  C   UNL     1      28.737  52.528  39.418  1.00  0.00     0.001 A 
HETATM   11  C   UNL     1      29.954  51.918  39.106  1.00  0.00     0.015 A 
HETATM   12  H   UNL     1      31.396  52.142  43.358  1.00  0.00     0.170 HD
ENDROOT
BRANCH   1  13
HETATM   13  C   UNL     1      31.996  49.357  40.380  1.00  0.00     0.279 C 
HETATM   14  N   UNL     1      31.315  48.535  39.500  1.00  0.00    -0.352 N 
HETATM   15  H   UNL     1      31.053  48.883  38.587  1.00  0.00     0.162 HD
HETATM   16  O   UNL     1      32.526  48.899  41.395  1.00  0.00    -0.268 OA
BRANCH  14  17
HETATM   17  C   UNL     1      31.131  47.126  39.758  1.00  0.00     0.161 C 
BRANCH  17  18
HETATM   18  C   UNL     1      29.678  46.797  39.989  1.00  0.00    -0.040 A 
HETATM   19  C   UNL     1      29.118  45.624  39.471  1.00  0.00     0.011 A 
HETATM   20  C   UNL     1      27.782  45.305  39.730  1.00  0.00     0.037 A 
HETATM   21  C   UNL     1      26.986  46.140  40.515  1.00  0.00     0.068 A 
HETATM   22  C   UNL     1      27.533  47.315  41.028  1.00  0.00     0.037 A 
HETATM   23  C   UNL     1      28.871  47.638  40.771  1.00  0.00     0.011 A 
BRANCH  21  24
HETATM   24  O   UNL     1      25.703  45.703  40.703  1.00  0.00    -0.356 OA
HETATM   25  C   UNL     1      24.765  46.659  41.179  1.00  0.00     0.210 C 
ENDBRANCH  21  24
ENDBRANCH  17  18
ENDBRANCH  14  17
ENDBRANCH   1  13
BRANCH   1  26
HETATM   26  O   UNL     1      32.506  50.833  38.555  1.00  0.00    -0.359 OA
HETATM   27  H   UNL     1      32.872  51.716  38.364  1.00  0.00     0.213 HD
ENDBRANCH   1  26
BRANCH   2  28
HETATM   28  C   UNL     1      34.572  51.609  40.304  1.00  0.00     0.043 A 
HETATM   29  C   UNL     1      35.001  52.755  39.621  1.00  0.00     0.031 A 
HETATM   30  C   UNL     1      36.306  52.847  39.120  1.00  0.00     0.026 A 
HETATM   31  C   UNL     1      37.189  51.787  39.288  1.00  0.00     0.034 A 
HETATM   32 CL   UNL     1      38.788  51.892  38.662  1.00  0.00    -0.084 Cl
HETATM   33  C   UNL     1      36.780  50.635  39.952  1.00  0.00     0.026 A 
HETATM   34  C   UNL     1      35.477  50.546  40.452  1.00  0.00     0.031 A 
ENDBRANCH   2  28
TORSDOF 6
ENDMDL
MODEL 8
REMARK VINA RESULT:      -7.7      9.498     13.949
REMARK  6 active torsions:
REMARK  status: ('A' for Active; 'I' for Inactive)
REMARK    1  A    between atoms: O_2  and  C_3 
REMARK    2  A    between atoms: C_6  and  C_7 
REMARK    3  A    between atoms: C_7  and  N_8 
REMARK       I    between atoms: N_8  and  C_9 
REMARK    4  A    between atoms: C_9  and  C_10 
REMARK    5  A    between atoms: C_10  and  O_11 
REMARK    6  A    between atoms: N_12  and  C_13 
ROOT
HETATM    1  C   UNL     1      18.116  51.897  48.124  1.00  0.00     0.256 C 
HETATM    2  N   UNL     1      17.332  51.341  47.014  1.00  0.00    -0.254 N 
HETATM    3  C   UNL     1      16.996  49.987  47.114  1.00  0.00     0.330 C 
HETATM    4  O   UNL     1      16.099  49.409  46.503  1.00  0.00    -0.246 OA
HETATM    5  N   UNL     1      17.836  49.212  47.887  1.00  0.00    -0.308 N 
HETATM    6  C   UNL     1      19.074  49.646  48.361  1.00  0.00     0.048 A 
HETATM    7  C   UNL     1      19.316  51.018  48.398  1.00  0.00     0.034 A 
HETATM    8  C   UNL     1      20.051  48.732  48.745  1.00  0.00     0.030 A 
HETATM    9  C   UNL     1      21.308  49.200  49.131  1.00  0.00     0.002 A 
HETATM   10  C   UNL     1      21.577  50.569  49.134  1.00  0.00     0.001 A 
HETATM   11  C   UNL     1      20.583  51.482  48.774  1.00  0.00     0.015 A 
HETATM   12  H   UNL     1      17.637  48.220  47.833  1.00  0.00     0.170 HD
ENDROOT
BRANCH   1  13
HETATM   13  C   UNL     1      17.164  52.002  49.401  1.00  0.00     0.279 C 
HETATM   14  N   UNL     1      16.247  53.036  49.407  1.00  0.00    -0.352 N 
HETATM   15  H   UNL     1      16.130  53.610  48.581  1.00  0.00     0.162 HD
HETATM   16  O   UNL     1      17.167  51.151  50.294  1.00  0.00    -0.268 OA
BRANCH  14  17
HETATM   17  C   UNL     1      15.300  53.213  50.483  1.00  0.00     0.161 C 
BRANCH  17  18
HETATM   18  C   UNL     1      15.227  54.655  50.916  1.00  0.00    -0.040 A 
HETATM   19  C   UNL     1      15.174  54.993  52.274  1.00  0.00     0.011 A 
HETATM   20  C   UNL     1      15.154  56.334  52.667  1.00  0.00     0.037 A 
HETATM   21  C   UNL     1      15.197  57.359  51.719  1.00  0.00     0.068 A 
HETATM   22  C   UNL     1      15.241  57.031  50.365  1.00  0.00     0.037 A 
HETATM   23  C   UNL     1      15.262  55.688  49.967  1.00  0.00     0.011 A 
BRANCH  21  24
HETATM   24  O   UNL     1      15.187  58.624  52.239  1.00  0.00    -0.356 OA
HETATM   25  C   UNL     1      14.741  58.759  53.583  1.00  0.00     0.210 C 
ENDBRANCH  21  24
ENDBRANCH  17  18
ENDBRANCH  14  17
ENDBRANCH   1  13
BRANCH   1  26
HETATM   26  O   UNL     1      18.555  53.237  47.881  1.00  0.00    -0.359 OA
HETATM   27  H   UNL     1      18.354  53.389  46.939  1.00  0.00     0.213 HD
ENDBRANCH   1  26
BRANCH   2  28
HETATM   28  C   UNL     1      16.745  52.166  46.008  1.00  0.00     0.043 A 
HETATM   29  C   UNL     1      17.413  52.450  44.810  1.00  0.00     0.031 A 
HETATM   30  C   UNL     1      16.849  53.308  43.857  1.00  0.00     0.026 A 
HETATM   31  C   UNL     1      15.614  53.898  44.101  1.00  0.00     0.034 A 
HETATM   32 CL   UNL     1      14.925  54.962  42.939  1.00  0.00    -0.084 Cl
HETATM   33  C   UNL     1      14.938  53.639  45.289  1.00  0.00     0.026 A 
HETATM   34  C   UNL     1      15.505  52.782  46.239  1.00  0.00     0.031 A 
ENDBRANCH   2  28
TORSDOF 6
ENDMDL
MODEL 9
REMARK VINA RESULT:      -7.4      6.791     10.334
REMARK  6 active torsions:
REMARK  status: ('A' for Active; 'I' for Inactive)
REMARK    1  A    between atoms: O_2  and  C_3 
REMARK    2  A    between atoms: C_6  and  C_7 
REMARK    3  A    between atoms: C_7  and  N_8 
REMARK       I    between atoms: N_8  and  C_9 
REMARK    4  A    between atoms: C_9  and  C_10 
REMARK    5  A    between atoms: C_10  and  O_11 
REMARK    6  A    between atoms: N_12  and  C_13 
ROOT
HETATM    1  C   UNL     1      18.549  48.306  46.961  1.00  0.00     0.256 C 
HETATM    2  N   UNL     1      17.164  48.497  47.410  1.00  0.00    -0.254 N 
HETATM    3  C   UNL     1      16.622  47.470  48.189  1.00  0.00     0.330 C 
HETATM    4  O   UNL     1      15.644  47.552  48.930  1.00  0.00    -0.246 OA
HETATM    5  N   UNL     1      17.175  46.219  48.009  1.00  0.00    -0.308 N 
HETATM    6  C   UNL     1      18.050  45.900  46.970  1.00  0.00     0.048 A 
HETATM    7  C   UNL     1      18.699  46.946  46.318  1.00  0.00     0.034 A 
HETATM    8  C   UNL     1      18.234  44.579  46.573  1.00  0.00     0.030 A 
HETATM    9  C   UNL     1      19.048  44.306  45.472  1.00  0.00     0.002 A 
HETATM   10  C   UNL     1      19.672  45.347  44.785  1.00  0.00     0.001 A 
HETATM   11  C   UNL     1      19.506  46.667  45.207  1.00  0.00     0.015 A 
HETATM   12  H   UNL     1      16.677  45.481  48.492  1.00  0.00     0.170 HD
ENDROOT
BRANCH   1  13
HETATM   13  C   UNL     1      19.508  48.464  48.227  1.00  0.00     0.279 C 
HETATM   14  N   UNL     1      20.159  49.676  48.364  1.00  0.00    -0.352 N 
HETATM   15  H   UNL     1      19.932  50.442  47.743  1.00  0.00     0.162 HD
HETATM   16  O   UNL     1      19.591  47.596  49.100  1.00  0.00    -0.268 OA
BRANCH  14  17
HETATM   17  C   UNL     1      21.019  49.959  49.490  1.00  0.00     0.161 C 
BRANCH  17  18
HETATM   18  C   UNL     1      22.473  49.855  49.107  1.00  0.00    -0.040 A 
HETATM   19  C   UNL     1      23.099  50.879  48.386  1.00  0.00     0.011 A 
HETATM   20  C   UNL     1      24.459  50.795  48.076  1.00  0.00     0.037 A 
HETATM   21  C   UNL     1      25.220  49.698  48.487  1.00  0.00     0.068 A 
HETATM   22  C   UNL     1      24.604  48.671  49.198  1.00  0.00     0.037 A 
HETATM   23  C   UNL     1      23.241  48.751  49.510  1.00  0.00     0.011 A 
BRANCH  21  24
HETATM   24  O   UNL     1      26.540  49.750  48.131  1.00  0.00    -0.356 OA
HETATM   25  C   UNL     1      27.455  49.050  48.965  1.00  0.00     0.210 C 
ENDBRANCH  21  24
ENDBRANCH  17  18
ENDBRANCH  14  17
ENDBRANCH   1  13
BRANCH   1  26
HETATM   26  O   UNL     1      18.981  49.316  46.044  1.00  0.00    -0.359 OA
HETATM   27  H   UNL     1      18.336  50.038  46.158  1.00  0.00     0.213 HD
ENDBRANCH   1  26
BRANCH   2  28
HETATM   28  C   UNL     1      16.481  49.742  47.268  1.00  0.00     0.043 A 
HETATM   29  C   UNL     1      15.702  50.027  46.138  1.00  0.00     0.031 A 
HETATM   30  C   UNL     1      15.085  51.275  45.985  1.00  0.00     0.026 A 
HETATM   31  C   UNL     1      15.252  52.254  46.958  1.00  0.00     0.034 A 
HETATM   32 CL   UNL     1      14.507  53.792  46.767  1.00  0.00    -0.084 Cl
HETATM   33  C   UNL     1      16.031  51.997  48.082  1.00  0.00     0.026 A 
HETATM   34  C   UNL     1      16.646  50.749  48.231  1.00  0.00     0.031 A 
ENDBRANCH   2  28
TORSDOF 6
ENDMDL
MODEL 10
REMARK VINA RESULT:      -7.4      6.088      9.349
REMARK  6 active torsions:
REMARK  status: ('A' for Active; 'I' for Inactive)
REMARK    1  A    between atoms: O_2  and  C_3 
REMARK    2  A    between atoms: C_6  and  C_7 
REMARK    3  A    between atoms: C_7  and  N_8 
REMARK       I    between atoms: N_8  and  C_9 
REMARK    4  A    between atoms: C_9  and  C_10 
REMARK    5  A    between atoms: C_10  and  O_11 
REMARK    6  A    between atoms: N_12  and  C_13 
ROOT
HETATM    1  C   UNL     1      18.690  49.956  47.591  1.00  0.00     0.256 C 
HETATM    2  N   UNL     1      19.499  50.137  48.804  1.00  0.00    -0.254 N 
HETATM    3  C   UNL     1      18.796  50.179  50.012  1.00  0.00     0.330 C 
HETATM    4  O   UNL     1      19.260  49.991  51.135  1.00  0.00    -0.246 OA
HETATM    5  N   UNL     1      17.481  50.589  49.932  1.00  0.00    -0.308 N 
HETATM    6  C   UNL     1      16.914  51.158  48.792  1.00  0.00     0.048 A 
HETATM    7  C   UNL     1      17.559  50.959  47.572  1.00  0.00     0.034 A 
HETATM    8  C   UNL     1      15.762  51.935  48.878  1.00  0.00     0.030 A 
HETATM    9  C   UNL     1      15.274  52.561  47.730  1.00  0.00     0.002 A 
HETATM   10  C   UNL     1      15.933  52.403  46.511  1.00  0.00     0.001 A 
HETATM   11  C   UNL     1      17.071  51.599  46.425  1.00  0.00     0.015 A 
HETATM   12  H   UNL     1      17.044  50.729  50.835  1.00  0.00     0.170 HD
ENDROOT
BRANCH   1  13
HETATM   13  C   UNL     1      18.143  48.457  47.577  1.00  0.00     0.279 C 
HETATM   14  N   UNL     1      18.881  47.533  46.861  1.00  0.00    -0.352 N 
HETATM   15  H   UNL     1      19.777  47.799  46.471  1.00  0.00     0.162 HD
HETATM   16  O   UNL     1      17.171  48.106  48.252  1.00  0.00    -0.268 OA
BRANCH  14  17
HETATM   17  C   UNL     1      18.516  46.138  46.808  1.00  0.00     0.161 C 
BRANCH  17  18
HETATM   18  C   UNL     1      19.698  45.251  47.106  1.00  0.00    -0.040 A 
HETATM   19  C   UNL     1      20.131  44.297  46.178  1.00  0.00     0.011 A 
HETATM   20  C   UNL     1      21.257  43.512  46.444  1.00  0.00     0.037 A 
HETATM   21  C   UNL     1      21.975  43.670  47.631  1.00  0.00     0.068 A 
HETATM   22  C   UNL     1      21.546  44.612  48.565  1.00  0.00     0.037 A 
HETATM   23  C   UNL     1      20.419  45.400  48.301  1.00  0.00     0.011 A 
BRANCH  21  24
HETATM   24  O   UNL     1      23.062  42.850  47.757  1.00  0.00    -0.356 OA
HETATM   25  C   UNL     1      24.154  43.350  48.519  1.00  0.00     0.210 C 
ENDBRANCH  21  24
ENDBRANCH  17  18
ENDBRANCH  14  17
ENDBRANCH   1  13
BRANCH   1  26
HETATM   26  O   UNL     1      19.455  50.079  46.388  1.00  0.00    -0.359 OA
HETATM   27  H   UNL     1      18.910  50.648  45.813  1.00  0.00     0.213 HD
ENDBRANCH   1  26
BRANCH   2  28
HETATM   28  C   UNL     1      20.922  50.042  48.791  1.00  0.00     0.043 A 
HETATM   29  C   UNL     1      21.731  51.176  48.631  1.00  0.00     0.031 A 
HETATM   30  C   UNL     1      23.125  51.061  48.562  1.00  0.00     0.026 A 
HETATM   31  C   UNL     1      23.722  49.808  48.642  1.00  0.00     0.034 A 
HETATM   32 CL   UNL     1      25.433  49.663  48.545  1.00  0.00    -0.084 Cl
HETATM   33  C   UNL     1      22.938  48.668  48.789  1.00  0.00     0.026 A 
HETATM   34  C   UNL     1      21.546  48.787  48.858  1.00  0.00     0.031 A 
ENDBRANCH   2  28
TORSDOF 6
ENDMDL
