MODEL 1
REMARK VINA RESULT:     -10.4      0.000      0.000
REMARK  6 active torsions:
REMARK  status: ('A' for Active; 'I' for Inactive)
REMARK    1  A    between atoms: N_7  and  C_8 
REMARK    2  A    between atoms: C_8  and  C_9 
REMARK    3  A    between atoms: C_9  and  N_10 
REMARK    4  A    between atoms: C_17  and  C_18 
REMARK    5  A    between atoms: C_18  and  N_19 
REMARK       I    between atoms: N_19  and  C_20 
REMARK    6  A    between atoms: C_20  and  C_21 
ROOT
HETATM    1  C   UNL     1      27.892  48.581  49.485  1.00  0.00     0.001 A 
HETATM    2  C   UNL     1      26.823  47.745  49.821  1.00  0.00     0.014 A 
HETATM    3  C   UNL     1      25.523  48.085  49.433  1.00  0.00     0.008 A 
HETATM    4  C   UNL     1      25.303  49.254  48.705  1.00  0.00     0.046 A 
HETATM    5  C   UNL     1      23.936  49.600  48.274  1.00  0.00     0.274 A 
HETATM    6  O   UNL     1      23.733  50.587  47.573  1.00  0.00    -0.266 OA
HETATM    7  N   UNL     1      22.918  48.749  48.696  1.00  0.00    -0.232 N 
HETATM    8  N   UNL     1      23.128  47.600  49.398  1.00  0.00    -0.172 NA
HETATM    9  C   UNL     1      24.333  47.263  49.751  1.00  0.00     0.084 A 
HETATM   10  C   UNL     1      26.376  50.090  48.368  1.00  0.00     0.018 A 
HETATM   11  C   UNL     1      27.669  49.753  48.762  1.00  0.00     0.001 A 
ENDROOT
BRANCH   9  12
HETATM   12  C   UNL     1      24.487  45.942  50.503  1.00  0.00     0.185 C 
BRANCH  12  13
HETATM   13  N   UNL     1      25.586  46.036  51.443  1.00  0.00    -0.351 N 
HETATM   14  C   UNL     1      25.611  45.307  52.611  1.00  0.00     0.253 C 
HETATM   15  O   UNL     1      24.774  44.448  52.873  1.00  0.00    -0.268 OA
HETATM   16  H   UNL     1      26.277  46.764  51.303  1.00  0.00     0.163 HD
BRANCH  14  17
HETATM   17  C   UNL     1      26.741  45.551  53.558  1.00  0.00     0.055 A 
HETATM   18  C   UNL     1      26.907  46.697  54.355  1.00  0.00     0.049 A 
HETATM   19 CL   UNL     1      25.789  48.016  54.390  1.00  0.00    -0.083 Cl
HETATM   20  C   UNL     1      28.016  46.806  55.208  1.00  0.00     0.026 A 
HETATM   21  C   UNL     1      28.959  45.780  55.281  1.00  0.00     0.021 A 
HETATM   22  C   UNL     1      28.792  44.640  54.504  1.00  0.00     0.012 A 
HETATM   23 BR   UNL     1      30.058  43.241  54.603  1.00  0.00    -0.051 Br
HETATM   24  C   UNL     1      27.695  44.519  53.652  1.00  0.00     0.038 A 
ENDBRANCH  14  17
ENDBRANCH  12  13
ENDBRANCH   9  12
BRANCH   7  25
HETATM   25  C   UNL     1      21.573  48.948  48.173  1.00  0.00     0.182 C 
BRANCH  25  26
HETATM   26  C   UNL     1      20.471  48.558  49.164  1.00  0.00     0.256 C 
BRANCH  26  27
HETATM   27  N   UNL     1      20.095  49.714  50.076  1.00  0.00    -0.070 N 
HETATM   28  H   UNL     1      20.701  49.672  50.906  1.00  0.00     0.279 HD
HETATM   29  C   UNL     1      18.657  49.629  50.564  1.00  0.00     0.235 C 
HETATM   30  C   UNL     1      17.960  50.801  49.905  1.00  0.00     0.029 C 
HETATM   31  C   UNL     1      19.042  51.860  49.862  1.00  0.00     0.029 C 
HETATM   32  C   UNL     1      20.264  51.078  49.424  1.00  0.00     0.235 C 
ENDBRANCH  26  27
ENDBRANCH  25  26
ENDBRANCH   7  25
TORSDOF 6
ENDMDL
MODEL 2
REMARK VINA RESULT:     -10.0      4.586      7.386
REMARK  6 active torsions:
REMARK  status: ('A' for Active; 'I' for Inactive)
REMARK    1  A    between atoms: N_7  and  C_8 
REMARK    2  A    between atoms: C_8  and  C_9 
REMARK    3  A    between atoms: C_9  and  N_10 
REMARK    4  A    between atoms: C_17  and  C_18 
REMARK    5  A    between atoms: C_18  and  N_19 
REMARK       I    between atoms: N_19  and  C_20 
REMARK    6  A    between atoms: C_20  and  C_21 
ROOT
HETATM    1  C   UNL     1      29.858  37.849  50.112  1.00  0.00     0.001 A 
HETATM    2  C   UNL     1      29.431  38.780  51.062  1.00  0.00     0.014 A 
HETATM    3  C   UNL     1      28.714  39.912  50.657  1.00  0.00     0.008 A 
HETATM    4  C   UNL     1      28.423  40.096  49.306  1.00  0.00     0.046 A 
HETATM    5  C   UNL     1      27.645  41.275  48.882  1.00  0.00     0.274 A 
HETATM    6  O   UNL     1      27.318  41.418  47.707  1.00  0.00    -0.266 OA
HETATM    7  N   UNL     1      27.306  42.187  49.878  1.00  0.00    -0.232 N 
HETATM    8  N   UNL     1      27.578  42.005  51.201  1.00  0.00    -0.172 NA
HETATM    9  C   UNL     1      28.230  40.952  51.594  1.00  0.00     0.084 A 
HETATM   10  C   UNL     1      28.850  39.161  48.355  1.00  0.00     0.018 A 
HETATM   11  C   UNL     1      29.571  38.039  48.761  1.00  0.00     0.001 A 
ENDROOT
BRANCH   9  12
HETATM   12  C   UNL     1      28.462  40.805  53.096  1.00  0.00     0.185 C 
BRANCH  12  13
HETATM   13  N   UNL     1      28.317  42.093  53.745  1.00  0.00    -0.351 N 
HETATM   14  C   UNL     1      29.380  42.952  53.910  1.00  0.00     0.253 C 
HETATM   15  O   UNL     1      30.484  42.741  53.415  1.00  0.00    -0.268 OA
HETATM   16  H   UNL     1      27.443  42.296  54.216  1.00  0.00     0.163 HD
BRANCH  14  17
HETATM   17  C   UNL     1      29.144  44.210  54.681  1.00  0.00     0.055 A 
HETATM   18  C   UNL     1      29.918  44.663  55.763  1.00  0.00     0.049 A 
HETATM   19 CL   UNL     1      31.315  43.837  56.362  1.00  0.00    -0.083 Cl
HETATM   20  C   UNL     1      29.592  45.867  56.406  1.00  0.00     0.026 A 
HETATM   21  C   UNL     1      28.504  46.630  55.976  1.00  0.00     0.021 A 
HETATM   22  C   UNL     1      27.744  46.191  54.899  1.00  0.00     0.012 A 
HETATM   23 BR   UNL     1      26.275  47.220  54.304  1.00  0.00    -0.051 Br
HETATM   24  C   UNL     1      28.057  44.996  54.252  1.00  0.00     0.038 A 
ENDBRANCH  14  17
ENDBRANCH  12  13
ENDBRANCH   9  12
BRANCH   7  25
HETATM   25  C   UNL     1      26.406  43.285  49.550  1.00  0.00     0.182 C 
BRANCH  25  26
HETATM   26  C   UNL     1      26.967  44.663  49.922  1.00  0.00     0.256 C 
BRANCH  26  27
HETATM   27  N   UNL     1      25.955  45.496  50.691  1.00  0.00    -0.070 N 
HETATM   28  H   UNL     1      26.079  45.297  51.693  1.00  0.00     0.279 HD
HETATM   29  C   UNL     1      24.519  45.143  50.337  1.00  0.00     0.235 C 
HETATM   30  C   UNL     1      23.988  46.372  49.629  1.00  0.00     0.029 C 
HETATM   31  C   UNL     1      24.694  47.507  50.340  1.00  0.00     0.029 C 
HETATM   32  C   UNL     1      26.114  46.992  50.473  1.00  0.00     0.235 C 
ENDBRANCH  26  27
ENDBRANCH  25  26
ENDBRANCH   7  25
TORSDOF 6
ENDMDL
MODEL 3
REMARK VINA RESULT:     -10.0      1.740      2.078
REMARK  6 active torsions:
REMARK  status: ('A' for Active; 'I' for Inactive)
REMARK    1  A    between atoms: N_7  and  C_8 
REMARK    2  A    between atoms: C_8  and  C_9 
REMARK    3  A    between atoms: C_9  and  N_10 
REMARK    4  A    between atoms: C_17  and  C_18 
REMARK    5  A    between atoms: C_18  and  N_19 
REMARK       I    between atoms: N_19  and  C_20 
REMARK    6  A    between atoms: C_20  and  C_21 
ROOT
HETATM    1  C   UNL     1      27.488  48.806  49.304  1.00  0.00     0.001 A 
HETATM    2  C   UNL     1      26.488  47.887  49.629  1.00  0.00     0.014 A 
HETATM    3  C   UNL     1      25.170  48.114  49.216  1.00  0.00     0.008 A 
HETATM    4  C   UNL     1      24.867  49.254  48.473  1.00  0.00     0.046 A 
HETATM    5  C   UNL     1      23.484  49.482  48.015  1.00  0.00     0.274 A 
HETATM    6  O   UNL     1      23.212  50.443  47.301  1.00  0.00    -0.266 OA
HETATM    7  N   UNL     1      22.533  48.552  48.428  1.00  0.00    -0.232 N 
HETATM    8  N   UNL     1      22.826  47.430  49.144  1.00  0.00    -0.172 NA
HETATM    9  C   UNL     1      24.048  47.198  49.522  1.00  0.00     0.084 A 
HETATM   10  C   UNL     1      25.872  50.174  48.147  1.00  0.00     0.018 A 
HETATM   11  C   UNL     1      27.182  49.949  48.566  1.00  0.00     0.001 A 
ENDROOT
BRANCH   9  12
HETATM   12  C   UNL     1      24.298  45.901  50.288  1.00  0.00     0.185 C 
BRANCH  12  13
HETATM   13  N   UNL     1      25.265  46.130  51.343  1.00  0.00    -0.351 N 
HETATM   14  C   UNL     1      25.374  45.290  52.428  1.00  0.00     0.253 C 
HETATM   15  O   UNL     1      24.752  44.235  52.514  1.00  0.00    -0.268 OA
HETATM   16  H   UNL     1      25.768  47.010  51.350  1.00  0.00     0.163 HD
BRANCH  14  17
HETATM   17  C   UNL     1      26.334  45.671  53.509  1.00  0.00     0.055 A 
HETATM   18  C   UNL     1      27.498  44.965  53.855  1.00  0.00     0.049 A 
HETATM   19 CL   UNL     1      28.032  43.533  53.045  1.00  0.00    -0.083 Cl
HETATM   20  C   UNL     1      28.320  45.429  54.893  1.00  0.00     0.026 A 
HETATM   21  C   UNL     1      27.997  46.596  55.587  1.00  0.00     0.021 A 
HETATM   22  C   UNL     1      26.853  47.305  55.239  1.00  0.00     0.012 A 
HETATM   23 BR   UNL     1      26.412  48.891  56.166  1.00  0.00    -0.051 Br
HETATM   24  C   UNL     1      26.027  46.854  54.210  1.00  0.00     0.038 A 
ENDBRANCH  14  17
ENDBRANCH  12  13
ENDBRANCH   9  12
BRANCH   7  25
HETATM   25  C   UNL     1      21.186  48.634  47.880  1.00  0.00     0.182 C 
BRANCH  25  26
HETATM   26  C   UNL     1      20.094  48.695  48.955  1.00  0.00     0.256 C 
BRANCH  26  27
HETATM   27  N   UNL     1      19.078  49.787  48.667  1.00  0.00    -0.070 N 
HETATM   28  H   UNL     1      18.272  49.353  48.198  1.00  0.00     0.279 HD
HETATM   29  C   UNL     1      19.620  50.858  47.733  1.00  0.00     0.235 C 
HETATM   30  C   UNL     1      19.715  52.102  48.591  1.00  0.00     0.029 C 
HETATM   31  C   UNL     1      18.532  51.961  49.527  1.00  0.00     0.029 C 
HETATM   32  C   UNL     1      18.583  50.497  49.918  1.00  0.00     0.235 C 
ENDBRANCH  26  27
ENDBRANCH  25  26
ENDBRANCH   7  25
TORSDOF 6
ENDMDL
MODEL 4
REMARK VINA RESULT:      -9.8      4.376      9.316
REMARK  6 active torsions:
REMARK  status: ('A' for Active; 'I' for Inactive)
REMARK    1  A    between atoms: N_7  and  C_8 
REMARK    2  A    between atoms: C_8  and  C_9 
REMARK    3  A    between atoms: C_9  and  N_10 
REMARK    4  A    between atoms: C_17  and  C_18 
REMARK    5  A    between atoms: C_18  and  N_19 
REMARK       I    between atoms: N_19  and  C_20 
REMARK    6  A    between atoms: C_20  and  C_21 
ROOT
HETATM    1  C   UNL     1      29.815  45.437  55.888  1.00  0.00     0.001 A 
HETATM    2  C   UNL     1      28.701  45.610  55.062  1.00  0.00     0.014 A 
HETATM    3  C   UNL     1      28.343  44.608  54.154  1.00  0.00     0.008 A 
HETATM    4  C   UNL     1      29.098  43.437  54.086  1.00  0.00     0.046 A 
HETATM    5  C   UNL     1      28.706  42.369  53.147  1.00  0.00     0.274 A 
HETATM    6  O   UNL     1      29.316  41.304  53.124  1.00  0.00    -0.266 OA
HETATM    7  N   UNL     1      27.622  42.639  52.317  1.00  0.00    -0.232 N 
HETATM    8  N   UNL     1      26.874  43.777  52.387  1.00  0.00    -0.172 NA
HETATM    9  C   UNL     1      27.185  44.710  53.236  1.00  0.00     0.084 A 
HETATM   10  C   UNL     1      30.213  43.265  54.916  1.00  0.00     0.018 A 
HETATM   11  C   UNL     1      30.571  44.268  55.815  1.00  0.00     0.001 A 
ENDROOT
BRANCH   9  12
HETATM   12  C   UNL     1      26.276  45.936  53.277  1.00  0.00     0.185 C 
BRANCH  12  13
HETATM   13  N   UNL     1      25.374  45.919  52.142  1.00  0.00    -0.351 N 
HETATM   14  C   UNL     1      25.402  46.897  51.173  1.00  0.00     0.253 C 
HETATM   15  O   UNL     1      26.263  47.772  51.140  1.00  0.00    -0.268 OA
HETATM   16  H   UNL     1      24.612  45.251  52.145  1.00  0.00     0.163 HD
BRANCH  14  17
HETATM   17  C   UNL     1      24.364  46.841  50.099  1.00  0.00     0.055 A 
HETATM   18  C   UNL     1      23.871  45.670  49.500  1.00  0.00     0.049 A 
HETATM   19 CL   UNL     1      24.371  44.075  49.945  1.00  0.00    -0.083 Cl
HETATM   20  C   UNL     1      22.892  45.751  48.497  1.00  0.00     0.026 A 
HETATM   21  C   UNL     1      22.394  46.990  48.090  1.00  0.00     0.021 A 
HETATM   22  C   UNL     1      22.871  48.149  48.689  1.00  0.00     0.012 A 
HETATM   23 BR   UNL     1      22.196  49.831  48.151  1.00  0.00    -0.051 Br
HETATM   24  C   UNL     1      23.844  48.083  49.686  1.00  0.00     0.038 A 
ENDBRANCH  14  17
ENDBRANCH  12  13
ENDBRANCH   9  12
BRANCH   7  25
HETATM   25  C   UNL     1      27.091  41.569  51.484  1.00  0.00     0.182 C 
BRANCH  25  26
HETATM   26  C   UNL     1      27.428  41.731  49.997  1.00  0.00     0.256 C 
BRANCH  26  27
HETATM   27  N   UNL     1      28.540  40.791  49.563  1.00  0.00    -0.070 N 
HETATM   28  H   UNL     1      29.438  41.239  49.787  1.00  0.00     0.279 HD
HETATM   29  C   UNL     1      28.530  40.527  48.065  1.00  0.00     0.235 C 
HETATM   30  C   UNL     1      28.156  39.065  47.937  1.00  0.00     0.029 C 
HETATM   31  C   UNL     1      28.804  38.440  49.156  1.00  0.00     0.029 C 
HETATM   32  C   UNL     1      28.489  39.437  50.254  1.00  0.00     0.235 C 
ENDBRANCH  26  27
ENDBRANCH  25  26
ENDBRANCH   7  25
TORSDOF 6
ENDMDL
MODEL 5
REMARK VINA RESULT:      -9.6      1.423      2.353
REMARK  6 active torsions:
REMARK  status: ('A' for Active; 'I' for Inactive)
REMARK    1  A    between atoms: N_7  and  C_8 
REMARK    2  A    between atoms: C_8  and  C_9 
REMARK    3  A    between atoms: C_9  and  N_10 
REMARK    4  A    between atoms: C_17  and  C_18 
REMARK    5  A    between atoms: C_18  and  N_19 
REMARK       I    between atoms: N_19  and  C_20 
REMARK    6  A    between atoms: C_20  and  C_21 
ROOT
HETATM    1  C   UNL     1      27.794  48.604  49.460  1.00  0.00     0.001 A 
HETATM    2  C   UNL     1      26.727  47.764  49.790  1.00  0.00     0.014 A 
HETATM    3  C   UNL     1      25.426  48.101  49.399  1.00  0.00     0.008 A 
HETATM    4  C   UNL     1      25.206  49.271  48.673  1.00  0.00     0.046 A 
HETATM    5  C   UNL     1      23.839  49.615  48.238  1.00  0.00     0.274 A 
HETATM    6  O   UNL     1      23.636  50.603  47.539  1.00  0.00    -0.266 OA
HETATM    7  N   UNL     1      22.822  48.760  48.655  1.00  0.00    -0.232 N 
HETATM    8  N   UNL     1      23.033  47.609  49.354  1.00  0.00    -0.172 NA
HETATM    9  C   UNL     1      24.238  47.275  49.711  1.00  0.00     0.084 A 
HETATM   10  C   UNL     1      26.277  50.111  48.341  1.00  0.00     0.018 A 
HETATM   11  C   UNL     1      27.570  49.776  48.739  1.00  0.00     0.001 A 
ENDROOT
BRANCH   9  12
HETATM   12  C   UNL     1      24.393  45.953  50.460  1.00  0.00     0.185 C 
BRANCH  12  13
HETATM   13  N   UNL     1      25.504  46.039  51.386  1.00  0.00    -0.351 N 
HETATM   14  C   UNL     1      25.547  45.296  52.545  1.00  0.00     0.253 C 
HETATM   15  O   UNL     1      24.717  44.430  52.807  1.00  0.00    -0.268 OA
HETATM   16  H   UNL     1      26.190  46.771  51.246  1.00  0.00     0.163 HD
BRANCH  14  17
HETATM   17  C   UNL     1      26.689  45.533  53.480  1.00  0.00     0.055 A 
HETATM   18  C   UNL     1      26.871  46.677  54.274  1.00  0.00     0.049 A 
HETATM   19 CL   UNL     1      25.762  48.004  54.321  1.00  0.00    -0.083 Cl
HETATM   20  C   UNL     1      27.989  46.779  55.116  1.00  0.00     0.026 A 
HETATM   21  C   UNL     1      28.926  45.746  55.179  1.00  0.00     0.021 A 
HETATM   22  C   UNL     1      28.743  44.607  54.405  1.00  0.00     0.012 A 
HETATM   23 BR   UNL     1      30.001  43.200  54.491  1.00  0.00    -0.051 Br
HETATM   24  C   UNL     1      27.636  44.494  53.564  1.00  0.00     0.038 A 
ENDBRANCH  14  17
ENDBRANCH  12  13
ENDBRANCH   9  12
BRANCH   7  25
HETATM   25  C   UNL     1      21.478  48.957  48.127  1.00  0.00     0.182 C 
BRANCH  25  26
HETATM   26  C   UNL     1      20.415  48.117  48.844  1.00  0.00     0.256 C 
BRANCH  26  27
HETATM   27  N   UNL     1      19.928  46.965  47.982  1.00  0.00    -0.070 N 
HETATM   28  H   UNL     1      18.914  47.077  47.848  1.00  0.00     0.279 HD
HETATM   29  C   UNL     1      20.149  45.611  48.638  1.00  0.00     0.235 C 
HETATM   30  C   UNL     1      21.193  44.934  47.775  1.00  0.00     0.029 C 
HETATM   31  C   UNL     1      20.865  45.437  46.385  1.00  0.00     0.029 C 
HETATM   32  C   UNL     1      20.592  46.911  46.614  1.00  0.00     0.235 C 
ENDBRANCH  26  27
ENDBRANCH  25  26
ENDBRANCH   7  25
TORSDOF 6
ENDMDL
MODEL 6
REMARK VINA RESULT:      -9.2      4.288      9.186
REMARK  6 active torsions:
REMARK  status: ('A' for Active; 'I' for Inactive)
REMARK    1  A    between atoms: N_7  and  C_8 
REMARK    2  A    between atoms: C_8  and  C_9 
REMARK    3  A    between atoms: C_9  and  N_10 
REMARK    4  A    between atoms: C_17  and  C_18 
REMARK    5  A    between atoms: C_18  and  N_19 
REMARK       I    between atoms: N_19  and  C_20 
REMARK    6  A    between atoms: C_20  and  C_21 
ROOT
HETATM    1  C   UNL     1      27.950  46.255  55.748  1.00  0.00     0.001 A 
HETATM    2  C   UNL     1      27.043  45.932  54.735  1.00  0.00     0.014 A 
HETATM    3  C   UNL     1      27.388  44.983  53.767  1.00  0.00     0.008 A 
HETATM    4  C   UNL     1      28.634  44.359  53.825  1.00  0.00     0.046 A 
HETATM    5  C   UNL     1      28.989  43.340  52.820  1.00  0.00     0.274 A 
HETATM    6  O   UNL     1      30.051  42.730  52.897  1.00  0.00    -0.266 OA
HETATM    7  N   UNL     1      28.058  43.114  51.810  1.00  0.00    -0.232 N 
HETATM    8  N   UNL     1      26.834  43.713  51.754  1.00  0.00    -0.172 NA
HETATM    9  C   UNL     1      26.494  44.585  52.655  1.00  0.00     0.084 A 
HETATM   10  C   UNL     1      29.541  44.683  54.843  1.00  0.00     0.018 A 
HETATM   11  C   UNL     1      29.197  45.635  55.802  1.00  0.00     0.001 A 
ENDROOT
BRANCH   9  12
HETATM   12  C   UNL     1      25.092  45.182  52.543  1.00  0.00     0.185 C 
BRANCH  12  13
HETATM   13  N   UNL     1      25.139  46.404  51.766  1.00  0.00    -0.351 N 
HETATM   14  C   UNL     1      24.675  46.465  50.471  1.00  0.00     0.253 C 
HETATM   15  O   UNL     1      24.085  45.530  49.935  1.00  0.00    -0.268 OA
HETATM   16  H   UNL     1      25.659  47.190  52.138  1.00  0.00     0.163 HD
BRANCH  14  17
HETATM   17  C   UNL     1      24.860  47.746  49.724  1.00  0.00     0.055 A 
HETATM   18  C   UNL     1      26.079  48.228  49.218  1.00  0.00     0.049 A 
HETATM   19 CL   UNL     1      27.580  47.380  49.350  1.00  0.00    -0.083 Cl
HETATM   20  C   UNL     1      26.121  49.451  48.531  1.00  0.00     0.026 A 
HETATM   21  C   UNL     1      24.957  50.197  48.338  1.00  0.00     0.021 A 
HETATM   22  C   UNL     1      23.748  49.718  48.827  1.00  0.00     0.012 A 
HETATM   23 BR   UNL     1      22.165  50.716  48.563  1.00  0.00    -0.051 Br
HETATM   24  C   UNL     1      23.692  48.504  49.512  1.00  0.00     0.038 A 
ENDBRANCH  14  17
ENDBRANCH  12  13
ENDBRANCH   9  12
BRANCH   7  25
HETATM   25  C   UNL     1      28.279  42.012  50.883  1.00  0.00     0.182 C 
BRANCH  25  26
HETATM   26  C   UNL     1      28.307  40.640  51.565  1.00  0.00     0.256 C 
BRANCH  26  27
HETATM   27  N   UNL     1      27.969  39.520  50.595  1.00  0.00    -0.070 N 
HETATM   28  H   UNL     1      27.125  39.046  50.942  1.00  0.00     0.279 HD
HETATM   29  C   UNL     1      29.069  38.473  50.506  1.00  0.00     0.235 C 
HETATM   30  C   UNL     1      29.619  38.615  49.102  1.00  0.00     0.029 C 
HETATM   31  C   UNL     1      28.395  38.990  48.293  1.00  0.00     0.029 C 
HETATM   32  C   UNL     1      27.701  40.006  49.179  1.00  0.00     0.235 C 
ENDBRANCH  26  27
ENDBRANCH  25  26
ENDBRANCH   7  25
TORSDOF 6
ENDMDL
MODEL 7
REMARK VINA RESULT:      -9.2      3.614      4.819
REMARK  6 active torsions:
REMARK  status: ('A' for Active; 'I' for Inactive)
REMARK    1  A    between atoms: N_7  and  C_8 
REMARK    2  A    between atoms: C_8  and  C_9 
REMARK    3  A    between atoms: C_9  and  N_10 
REMARK    4  A    between atoms: C_17  and  C_18 
REMARK    5  A    between atoms: C_18  and  N_19 
REMARK       I    between atoms: N_19  and  C_20 
REMARK    6  A    between atoms: C_20  and  C_21 
ROOT
HETATM    1  C   UNL     1      27.634  48.997  49.305  1.00  0.00     0.001 A 
HETATM    2  C   UNL     1      26.676  48.075  49.734  1.00  0.00     0.014 A 
HETATM    3  C   UNL     1      25.340  48.226  49.347  1.00  0.00     0.008 A 
HETATM    4  C   UNL     1      24.976  49.293  48.526  1.00  0.00     0.046 A 
HETATM    5  C   UNL     1      23.573  49.439  48.096  1.00  0.00     0.274 A 
HETATM    6  O   UNL     1      23.248  50.331  47.317  1.00  0.00    -0.266 OA
HETATM    7  N   UNL     1      22.667  48.517  48.612  1.00  0.00    -0.232 N 
HETATM    8  N   UNL     1      23.019  47.465  49.405  1.00  0.00    -0.172 NA
HETATM    9  C   UNL     1      24.258  47.303  49.760  1.00  0.00     0.084 A 
HETATM   10  C   UNL     1      25.939  50.215  48.095  1.00  0.00     0.018 A 
HETATM   11  C   UNL     1      27.268  50.066  48.489  1.00  0.00     0.001 A 
ENDROOT
BRANCH   9  12
HETATM   12  C   UNL     1      24.575  46.080  50.619  1.00  0.00     0.185 C 
BRANCH  12  13
HETATM   13  N   UNL     1      24.601  44.891  49.791  1.00  0.00    -0.351 N 
HETATM   14  C   UNL     1      23.839  43.781  50.084  1.00  0.00     0.253 C 
HETATM   15  O   UNL     1      23.004  43.771  50.984  1.00  0.00    -0.268 OA
HETATM   16  H   UNL     1      25.307  44.825  49.067  1.00  0.00     0.163 HD
BRANCH  14  17
HETATM   17  C   UNL     1      24.014  42.571  49.224  1.00  0.00     0.055 A 
HETATM   18  C   UNL     1      25.113  41.696  49.259  1.00  0.00     0.049 A 
HETATM   19 CL   UNL     1      26.446  41.865  50.348  1.00  0.00    -0.083 Cl
HETATM   20  C   UNL     1      25.159  40.590  48.397  1.00  0.00     0.026 A 
HETATM   21  C   UNL     1      24.115  40.343  47.503  1.00  0.00     0.021 A 
HETATM   22  C   UNL     1      23.021  41.199  47.475  1.00  0.00     0.012 A 
HETATM   23 BR   UNL     1      21.599  40.867  46.276  1.00  0.00    -0.051 Br
HETATM   24  C   UNL     1      22.964  42.302  48.326  1.00  0.00     0.038 A 
ENDBRANCH  14  17
ENDBRANCH  12  13
ENDBRANCH   9  12
BRANCH   7  25
HETATM   25  C   UNL     1      21.302  48.511  48.102  1.00  0.00     0.182 C 
BRANCH  25  26
HETATM   26  C   UNL     1      20.245  48.718  49.193  1.00  0.00     0.256 C 
BRANCH  26  27
HETATM   27  N   UNL     1      19.206  49.749  48.785  1.00  0.00    -0.070 N 
HETATM   28  H   UNL     1      18.440  49.255  48.308  1.00  0.00     0.279 HD
HETATM   29  C   UNL     1      19.756  50.777  47.808  1.00  0.00     0.235 C 
HETATM   30  C   UNL     1      19.763  52.077  48.585  1.00  0.00     0.029 C 
HETATM   31  C   UNL     1      18.541  51.951  49.471  1.00  0.00     0.029 C 
HETATM   32  C   UNL     1      18.624  50.519  49.961  1.00  0.00     0.235 C 
ENDBRANCH  26  27
ENDBRANCH  25  26
ENDBRANCH   7  25
TORSDOF 6
ENDMDL
MODEL 8
REMARK VINA RESULT:      -9.0      4.318      9.212
REMARK  6 active torsions:
REMARK  status: ('A' for Active; 'I' for Inactive)
REMARK    1  A    between atoms: N_7  and  C_8 
REMARK    2  A    between atoms: C_8  and  C_9 
REMARK    3  A    between atoms: C_9  and  N_10 
REMARK    4  A    between atoms: C_17  and  C_18 
REMARK    5  A    between atoms: C_18  and  N_19 
REMARK       I    between atoms: N_19  and  C_20 
REMARK    6  A    between atoms: C_20  and  C_21 
ROOT
HETATM    1  C   UNL     1      29.635  45.211  55.657  1.00  0.00     0.001 A 
HETATM    2  C   UNL     1      28.575  45.373  54.761  1.00  0.00     0.014 A 
HETATM    3  C   UNL     1      28.257  44.348  53.864  1.00  0.00     0.008 A 
HETATM    4  C   UNL     1      28.998  43.166  53.876  1.00  0.00     0.046 A 
HETATM    5  C   UNL     1      28.647  42.075  52.947  1.00  0.00     0.274 A 
HETATM    6  O   UNL     1      29.242  41.002  52.992  1.00  0.00    -0.266 OA
HETATM    7  N   UNL     1      27.618  42.333  52.047  1.00  0.00    -0.232 N 
HETATM    8  N   UNL     1      26.883  43.482  52.038  1.00  0.00    -0.172 NA
HETATM    9  C   UNL     1      27.157  44.436  52.877  1.00  0.00     0.084 A 
HETATM   10  C   UNL     1      30.059  43.005  54.776  1.00  0.00     0.018 A 
HETATM   11  C   UNL     1      30.378  44.031  55.663  1.00  0.00     0.001 A 
ENDROOT
BRANCH   9  12
HETATM   12  C   UNL     1      26.264  45.674  52.827  1.00  0.00     0.185 C 
BRANCH  12  13
HETATM   13  N   UNL     1      25.376  45.596  51.684  1.00  0.00    -0.351 N 
HETATM   14  C   UNL     1      25.157  46.673  50.854  1.00  0.00     0.253 C 
HETATM   15  O   UNL     1      25.786  47.723  50.954  1.00  0.00    -0.268 OA
HETATM   16  H   UNL     1      24.794  44.772  51.583  1.00  0.00     0.163 HD
BRANCH  14  17
HETATM   17  C   UNL     1      24.147  46.517  49.764  1.00  0.00     0.055 A 
HETATM   18  C   UNL     1      23.390  47.556  49.196  1.00  0.00     0.049 A 
HETATM   19 CL   UNL     1      23.537  49.217  49.654  1.00  0.00    -0.083 Cl
HETATM   20  C   UNL     1      22.471  47.278  48.173  1.00  0.00     0.026 A 
HETATM   21  C   UNL     1      22.303  45.974  47.704  1.00  0.00     0.021 A 
HETATM   22  C   UNL     1      23.059  44.946  48.255  1.00  0.00     0.012 A 
HETATM   23 BR   UNL     1      22.845  43.179  47.621  1.00  0.00    -0.051 Br
HETATM   24  C   UNL     1      23.975  45.208  49.272  1.00  0.00     0.038 A 
ENDBRANCH  14  17
ENDBRANCH  12  13
ENDBRANCH   9  12
BRANCH   7  25
HETATM   25  C   UNL     1      27.122  41.245  51.215  1.00  0.00     0.182 C 
BRANCH  25  26
HETATM   26  C   UNL     1      27.307  41.493  49.714  1.00  0.00     0.256 C 
BRANCH  26  27
HETATM   27  N   UNL     1      27.990  40.322  49.027  1.00  0.00    -0.070 N 
HETATM   28  H   UNL     1      28.767  40.695  48.465  1.00  0.00     0.279 HD
HETATM   29  C   UNL     1      27.062  39.581  48.077  1.00  0.00     0.235 C 
HETATM   30  C   UNL     1      26.865  38.223  48.717  1.00  0.00     0.029 C 
HETATM   31  C   UNL     1      28.205  37.956  49.370  1.00  0.00     0.029 C 
HETATM   32  C   UNL     1      28.547  39.293  49.999  1.00  0.00     0.235 C 
ENDBRANCH  26  27
ENDBRANCH  25  26
ENDBRANCH   7  25
TORSDOF 6
ENDMDL
MODEL 9
REMARK VINA RESULT:      -9.0     12.203     13.128
REMARK  6 active torsions:
REMARK  status: ('A' for Active; 'I' for Inactive)
REMARK    1  A    between atoms: N_7  and  C_8 
REMARK    2  A    between atoms: C_8  and  C_9 
REMARK    3  A    between atoms: C_9  and  N_10 
REMARK    4  A    between atoms: C_17  and  C_18 
REMARK    5  A    between atoms: C_18  and  N_19 
REMARK       I    between atoms: N_19  and  C_20 
REMARK    6  A    between atoms: C_20  and  C_21 
ROOT
HETATM    1  C   UNL     1      27.707  44.472  39.544  1.00  0.00     0.001 A 
HETATM    2  C   UNL     1      28.732  45.409  39.396  1.00  0.00     0.014 A 
HETATM    3  C   UNL     1      28.420  46.754  39.168  1.00  0.00     0.008 A 
HETATM    4  C   UNL     1      27.085  47.151  39.098  1.00  0.00     0.046 A 
HETATM    5  C   UNL     1      26.755  48.572  38.883  1.00  0.00     0.274 A 
HETATM    6  O   UNL     1      25.587  48.950  38.890  1.00  0.00    -0.266 OA
HETATM    7  N   UNL     1      27.830  49.435  38.687  1.00  0.00    -0.232 N 
HETATM    8  N   UNL     1      29.136  49.055  38.764  1.00  0.00    -0.172 NA
HETATM    9  C   UNL     1      29.441  47.812  38.991  1.00  0.00     0.084 A 
HETATM   10  C   UNL     1      26.058  46.209  39.249  1.00  0.00     0.018 A 
HETATM   11  C   UNL     1      26.372  44.869  39.469  1.00  0.00     0.001 A 
ENDROOT
BRANCH   9  12
HETATM   12  C   UNL     1      30.927  47.476  39.100  1.00  0.00     0.185 C 
BRANCH  12  13
HETATM   13  N   UNL     1      31.616  48.520  39.832  1.00  0.00    -0.351 N 
HETATM   14  C   UNL     1      32.520  48.236  40.832  1.00  0.00     0.253 C 
HETATM   15  O   UNL     1      32.890  47.092  41.084  1.00  0.00    -0.268 OA
HETATM   16  H   UNL     1      31.313  49.478  39.702  1.00  0.00     0.163 HD
BRANCH  14  17
HETATM   17  C   UNL     1      33.099  49.385  41.592  1.00  0.00     0.055 A 
HETATM   18  C   UNL     1      32.382  50.257  42.427  1.00  0.00     0.049 A 
HETATM   19 CL   UNL     1      30.687  50.115  42.742  1.00  0.00    -0.083 Cl
HETATM   20  C   UNL     1      33.045  51.302  43.089  1.00  0.00     0.026 A 
HETATM   21  C   UNL     1      34.421  51.482  42.932  1.00  0.00     0.021 A 
HETATM   22  C   UNL     1      35.136  50.613  42.116  1.00  0.00     0.012 A 
HETATM   23 BR   UNL     1      36.999  50.843  41.903  1.00  0.00    -0.051 Br
HETATM   24  C   UNL     1      34.488  49.572  41.452  1.00  0.00     0.038 A 
ENDBRANCH  14  17
ENDBRANCH  12  13
ENDBRANCH   9  12
BRANCH   7  25
HETATM   25  C   UNL     1      27.578  50.869  38.628  1.00  0.00     0.182 C 
BRANCH  25  26
HETATM   26  C   UNL     1      28.840  51.698  38.362  1.00  0.00     0.256 C 
BRANCH  26  27
HETATM   27  N   UNL     1      29.735  51.773  39.588  1.00  0.00    -0.070 N 
HETATM   28  H   UNL     1      29.680  50.869  40.075  1.00  0.00     0.279 HD
HETATM   29  C   UNL     1      29.288  52.842  40.573  1.00  0.00     0.235 C 
HETATM   30  C   UNL     1      30.389  53.882  40.534  1.00  0.00     0.029 C 
HETATM   31  C   UNL     1      31.635  53.050  40.310  1.00  0.00     0.029 C 
HETATM   32  C   UNL     1      31.192  52.055  39.255  1.00  0.00     0.235 C 
ENDBRANCH  26  27
ENDBRANCH  25  26
ENDBRANCH   7  25
TORSDOF 6
ENDMDL
MODEL 10
REMARK VINA RESULT:      -8.8      3.203      4.262
REMARK  6 active torsions:
REMARK  status: ('A' for Active; 'I' for Inactive)
REMARK    1  A    between atoms: N_7  and  C_8 
REMARK    2  A    between atoms: C_8  and  C_9 
REMARK    3  A    between atoms: C_9  and  N_10 
REMARK    4  A    between atoms: C_17  and  C_18 
REMARK    5  A    between atoms: C_18  and  N_19 
REMARK       I    between atoms: N_19  and  C_20 
REMARK    6  A    between atoms: C_20  and  C_21 
ROOT
HETATM    1  C   UNL     1      27.747  49.088  49.468  1.00  0.00     0.001 A 
HETATM    2  C   UNL     1      26.813  48.157  49.931  1.00  0.00     0.014 A 
HETATM    3  C   UNL     1      25.490  48.211  49.478  1.00  0.00     0.008 A 
HETATM    4  C   UNL     1      25.116  49.191  48.559  1.00  0.00     0.046 A 
HETATM    5  C   UNL     1      23.728  49.233  48.062  1.00  0.00     0.274 A 
HETATM    6  O   UNL     1      23.397  50.043  47.200  1.00  0.00    -0.266 OA
HETATM    7  N   UNL     1      22.843  48.311  48.613  1.00  0.00    -0.232 N 
HETATM    8  N   UNL     1      23.206  47.344  49.503  1.00  0.00    -0.172 NA
HETATM    9  C   UNL     1      24.435  47.272  49.921  1.00  0.00     0.084 A 
HETATM   10  C   UNL     1      26.054  50.122  48.095  1.00  0.00     0.018 A 
HETATM   11  C   UNL     1      27.369  50.070  48.554  1.00  0.00     0.001 A 
ENDROOT
BRANCH   9  12
HETATM   12  C   UNL     1      24.768  46.138  50.888  1.00  0.00     0.185 C 
BRANCH  12  13
HETATM   13  N   UNL     1      24.629  44.861  50.217  1.00  0.00    -0.351 N 
HETATM   14  C   UNL     1      25.709  44.197  49.679  1.00  0.00     0.253 C 
HETATM   15  O   UNL     1      26.866  44.578  49.838  1.00  0.00    -0.268 OA
HETATM   16  H   UNL     1      23.695  44.525  50.013  1.00  0.00     0.163 HD
BRANCH  14  17
HETATM   17  C   UNL     1      25.443  42.937  48.921  1.00  0.00     0.055 A 
HETATM   18  C   UNL     1      24.225  42.591  48.312  1.00  0.00     0.049 A 
HETATM   19 CL   UNL     1      22.824  43.604  48.314  1.00  0.00    -0.083 Cl
HETATM   20  C   UNL     1      24.103  41.373  47.626  1.00  0.00     0.026 A 
HETATM   21  C   UNL     1      25.187  40.498  47.534  1.00  0.00     0.021 A 
HETATM   22  C   UNL     1      26.397  40.842  48.124  1.00  0.00     0.012 A 
HETATM   23 BR   UNL     1      27.873  39.669  47.998  1.00  0.00    -0.051 Br
HETATM   24  C   UNL     1      26.531  42.049  48.810  1.00  0.00     0.038 A 
ENDBRANCH  14  17
ENDBRANCH  12  13
ENDBRANCH   9  12
BRANCH   7  25
HETATM   25  C   UNL     1      21.503  48.198  48.050  1.00  0.00     0.182 C 
BRANCH  25  26
HETATM   26  C   UNL     1      20.392  48.290  49.102  1.00  0.00     0.256 C 
BRANCH  26  27
HETATM   27  N   UNL     1      20.376  49.645  49.791  1.00  0.00    -0.070 N 
HETATM   28  H   UNL     1      21.208  49.702  50.392  1.00  0.00     0.279 HD
HETATM   29  C   UNL     1      19.160  49.830  50.685  1.00  0.00     0.235 C 
HETATM   30  C   UNL     1      18.350  50.915  50.008  1.00  0.00     0.029 C 
HETATM   31  C   UNL     1      19.413  51.809  49.405  1.00  0.00     0.029 C 
HETATM   32  C   UNL     1      20.399  50.816  48.821  1.00  0.00     0.235 C 
ENDBRANCH  26  27
ENDBRANCH  25  26
ENDBRANCH   7  25
TORSDOF 6
ENDMDL
