MODEL 1
REMARK VINA RESULT:     -10.7      0.000      0.000
REMARK  6 active torsions:
REMARK  status: ('A' for Active; 'I' for Inactive)
REMARK    1  A    between atoms: C_5  and  N_6 
REMARK       I    between atoms: N_6  and  C_7 
REMARK       I    between atoms: C_7  and  N_8 
REMARK    2  A    between atoms: N_8  and  C_9 
REMARK    3  A    between atoms: C_12  and  C_13 
REMARK    4  A    between atoms: C_13  and  C_14 
REMARK       I    between atoms: C_14  and  N_15 
REMARK    5  A    between atoms: N_18  and  C_19 
REMARK    6  A    between atoms: C_21  and  C_22 
ROOT
HETATM    1  C   UNL     1      25.726  45.749  49.924  1.00  0.00     0.162 C 
ENDROOT
BRANCH   1   2
HETATM    2  C   UNL     1      24.534  44.904  49.627  1.00  0.00     0.052 A 
HETATM    3  C   UNL     1      24.345  43.602  50.060  1.00  0.00     0.081 A 
HETATM    4  S   UNL     1      22.746  43.095  49.718  1.00  0.00    -0.062 SA
HETATM    5  C   UNL     1      22.450  44.602  48.983  1.00  0.00     0.174 A 
HETATM    6  N   UNL     1      23.448  45.454  48.947  1.00  0.00    -0.228 NA
BRANCH   5   7
HETATM    7  N   UNL     1      21.177  44.762  48.527  1.00  0.00    -0.287 N 
HETATM    8  C   UNL     1      20.426  45.901  48.562  1.00  0.00     0.326 C 
HETATM    9  N   UNL     1      21.077  47.056  48.906  1.00  0.00    -0.309 N 
HETATM   10  O   UNL     1      19.250  45.811  48.217  1.00  0.00    -0.247 OA
HETATM   11  H   UNL     1      22.068  46.946  49.094  1.00  0.00     0.170 HD
HETATM   12  H   UNL     1      20.711  43.954  48.143  1.00  0.00     0.172 HD
BRANCH   9  13
HETATM   13  C   UNL     1      20.567  48.369  48.884  1.00  0.00     0.036 A 
HETATM   14  C   UNL     1      19.516  48.815  49.684  1.00  0.00     0.030 A 
HETATM   15  C   UNL     1      19.050  50.130  49.577  1.00  0.00     0.009 A 
HETATM   16  C   UNL     1      19.630  51.023  48.669  1.00  0.00    -0.062 A 
HETATM   17  C   UNL     1      19.081  52.411  48.518  1.00  0.00     0.048 C 
HETATM   18  C   UNL     1      20.680  50.576  47.864  1.00  0.00     0.009 A 
HETATM   19  C   UNL     1      21.149  49.263  47.982  1.00  0.00     0.030 A 
ENDBRANCH   9  13
ENDBRANCH   5   7
ENDBRANCH   1   2
BRANCH   1  20
HETATM   20  C   UNL     1      25.534  46.651  51.132  1.00  0.00     0.225 C 
HETATM   21  N   UNL     1      26.231  46.358  52.302  1.00  0.00    -0.349 N 
HETATM   22  C   UNL     1      26.481  47.484  53.216  1.00  0.00     0.145 C 
HETATM   23  C   UNL     1      27.163  45.228  52.413  1.00  0.00     0.145 C 
HETATM   24  C   UNL     1      26.904  47.084  54.644  1.00  0.00     0.143 C 
HETATM   25  N   UNL     1      27.960  46.051  54.600  1.00  0.00    -0.378 N 
HETATM   26  C   UNL     1      27.505  44.853  53.863  1.00  0.00     0.143 C 
HETATM   27  O   UNL     1      24.810  47.647  51.040  1.00  0.00    -0.273 OA
BRANCH  25  28
HETATM   28  C   UNL     1      28.691  45.765  55.760  1.00  0.00     0.030 A 
HETATM   29  C   UNL     1      29.673  44.757  55.723  1.00  0.00     0.045 A 
HETATM   30  C   UNL     1      30.441  44.410  56.848  1.00  0.00     0.050 A 
HETATM   31  C   UNL     1      30.243  45.112  58.040  1.00  0.00     0.016 A 
HETATM   32  C   UNL     1      29.297  46.133  58.098  1.00  0.00     0.003 A 
HETATM   33  C   UNL     1      28.534  46.453  56.969  1.00  0.00     0.029 A 
BRANCH  30  34
HETATM   34  C   UNL     1      31.471  43.314  56.770  1.00  0.00     0.417 C 
HETATM   35  F   UNL     1      32.683  43.662  57.287  1.00  0.00    -0.166 F 
HETATM   36  F   UNL     1      31.091  42.190  57.439  1.00  0.00    -0.166 F 
HETATM   37  F   UNL     1      31.717  42.920  55.489  1.00  0.00    -0.166 F 
ENDBRANCH  30  34
ENDBRANCH  25  28
ENDBRANCH   1  20
TORSDOF 6
ENDMDL
MODEL 2
REMARK VINA RESULT:     -10.4      2.576      3.447
REMARK  6 active torsions:
REMARK  status: ('A' for Active; 'I' for Inactive)
REMARK    1  A    between atoms: C_5  and  N_6 
REMARK       I    between atoms: N_6  and  C_7 
REMARK       I    between atoms: C_7  and  N_8 
REMARK    2  A    between atoms: N_8  and  C_9 
REMARK    3  A    between atoms: C_12  and  C_13 
REMARK    4  A    between atoms: C_13  and  C_14 
REMARK       I    between atoms: C_14  and  N_15 
REMARK    5  A    between atoms: N_18  and  C_19 
REMARK    6  A    between atoms: C_21  and  C_22 
ROOT
HETATM    1  C   UNL     1      24.241  44.792  50.813  1.00  0.00     0.162 C 
ENDROOT
BRANCH   1   2
HETATM    2  C   UNL     1      23.858  45.865  49.851  1.00  0.00     0.052 A 
HETATM    3  C   UNL     1      22.911  45.745  48.848  1.00  0.00     0.081 A 
HETATM    4  S   UNL     1      22.597  47.274  48.148  1.00  0.00    -0.062 SA
HETATM    5  C   UNL     1      23.766  47.960  49.179  1.00  0.00     0.174 A 
HETATM    6  N   UNL     1      24.395  47.145  49.993  1.00  0.00    -0.228 NA
BRANCH   5   7
HETATM    7  N   UNL     1      23.902  49.309  49.052  1.00  0.00    -0.287 N 
HETATM    8  C   UNL     1      22.903  50.229  48.921  1.00  0.00     0.326 C 
HETATM    9  N   UNL     1      21.626  49.785  49.137  1.00  0.00    -0.309 N 
HETATM   10  O   UNL     1      23.234  51.391  48.690  1.00  0.00    -0.247 OA
HETATM   11  H   UNL     1      21.553  48.804  49.385  1.00  0.00     0.170 HD
HETATM   12  H   UNL     1      24.838  49.685  49.022  1.00  0.00     0.172 HD
BRANCH   9  13
HETATM   13  C   UNL     1      20.447  50.554  49.197  1.00  0.00     0.036 A 
HETATM   14  C   UNL     1      20.217  51.697  48.432  1.00  0.00     0.030 A 
HETATM   15  C   UNL     1      19.028  52.421  48.576  1.00  0.00     0.009 A 
HETATM   16  C   UNL     1      18.048  52.012  49.486  1.00  0.00    -0.062 A 
HETATM   17  C   UNL     1      16.806  52.832  49.678  1.00  0.00     0.048 C 
HETATM   18  C   UNL     1      18.278  50.870  50.256  1.00  0.00     0.009 A 
HETATM   19  C   UNL     1      19.464  50.144  50.102  1.00  0.00     0.030 A 
ENDBRANCH   9  13
ENDBRANCH   5   7
ENDBRANCH   1   2
BRANCH   1  20
HETATM   20  C   UNL     1      25.611  44.199  50.533  1.00  0.00     0.225 C 
HETATM   21  N   UNL     1      26.579  44.248  51.534  1.00  0.00    -0.349 N 
HETATM   22  C   UNL     1      27.635  43.225  51.476  1.00  0.00     0.145 C 
HETATM   23  C   UNL     1      26.326  44.829  52.859  1.00  0.00     0.145 C 
HETATM   24  C   UNL     1      28.877  43.520  52.342  1.00  0.00     0.143 C 
HETATM   25  N   UNL     1      28.472  43.943  53.699  1.00  0.00    -0.378 N 
HETATM   26  C   UNL     1      27.606  45.140  53.649  1.00  0.00     0.143 C 
HETATM   27  O   UNL     1      25.825  43.642  49.451  1.00  0.00    -0.273 OA
BRANCH  25  28
HETATM   28  C   UNL     1      29.425  43.970  54.725  1.00  0.00     0.030 A 
HETATM   29  C   UNL     1      29.228  44.826  55.825  1.00  0.00     0.045 A 
HETATM   30  C   UNL     1      30.144  44.912  56.888  1.00  0.00     0.050 A 
HETATM   31  C   UNL     1      31.279  44.096  56.865  1.00  0.00     0.016 A 
HETATM   32  C   UNL     1      31.485  43.219  55.803  1.00  0.00     0.003 A 
HETATM   33  C   UNL     1      30.566  43.159  54.748  1.00  0.00     0.029 A 
BRANCH  30  34
HETATM   34  C   UNL     1      29.904  45.854  58.039  1.00  0.00     0.417 C 
HETATM   35  F   UNL     1      29.882  45.239  59.255  1.00  0.00    -0.166 F 
HETATM   36  F   UNL     1      30.856  46.824  58.129  1.00  0.00    -0.166 F 
HETATM   37  F   UNL     1      28.713  46.509  57.935  1.00  0.00    -0.166 F 
ENDBRANCH  30  34
ENDBRANCH  25  28
ENDBRANCH   1  20
TORSDOF 6
ENDMDL
MODEL 3
REMARK VINA RESULT:     -10.3      5.729     10.922
REMARK  6 active torsions:
REMARK  status: ('A' for Active; 'I' for Inactive)
REMARK    1  A    between atoms: C_5  and  N_6 
REMARK       I    between atoms: N_6  and  C_7 
REMARK       I    between atoms: C_7  and  N_8 
REMARK    2  A    between atoms: N_8  and  C_9 
REMARK    3  A    between atoms: C_12  and  C_13 
REMARK    4  A    between atoms: C_13  and  C_14 
REMARK       I    between atoms: C_14  and  N_15 
REMARK    5  A    between atoms: N_18  and  C_19 
REMARK    6  A    between atoms: C_21  and  C_22 
ROOT
HETATM    1  C   UNL     1      24.657  43.412  49.190  1.00  0.00     0.162 C 
ENDROOT
BRANCH   1   2
HETATM    2  C   UNL     1      25.642  42.340  49.512  1.00  0.00     0.052 A 
HETATM    3  C   UNL     1      26.574  41.816  48.632  1.00  0.00     0.081 A 
HETATM    4  S   UNL     1      27.668  40.800  49.470  1.00  0.00    -0.062 SA
HETATM    5  C   UNL     1      26.798  41.087  50.905  1.00  0.00     0.174 A 
HETATM    6  N   UNL     1      25.742  41.861  50.818  1.00  0.00    -0.228 NA
BRANCH   5   7
HETATM    7  N   UNL     1      27.323  40.485  52.008  1.00  0.00    -0.287 N 
HETATM    8  C   UNL     1      28.082  41.066  52.981  1.00  0.00     0.326 C 
HETATM    9  N   UNL     1      28.164  42.433  52.964  1.00  0.00    -0.309 N 
HETATM   10  O   UNL     1      28.571  40.325  53.832  1.00  0.00    -0.247 OA
HETATM   11  H   UNL     1      27.636  42.881  52.222  1.00  0.00     0.170 HD
HETATM   12  H   UNL     1      27.168  39.494  52.120  1.00  0.00     0.172 HD
BRANCH   9  13
HETATM   13  C   UNL     1      28.763  43.271  53.925  1.00  0.00     0.036 A 
HETATM   14  C   UNL     1      30.006  43.031  54.508  1.00  0.00     0.030 A 
HETATM   15  C   UNL     1      30.515  43.900  55.479  1.00  0.00     0.009 A 
HETATM   16  C   UNL     1      29.790  45.026  55.882  1.00  0.00    -0.062 A 
HETATM   17  C   UNL     1      30.317  45.915  56.969  1.00  0.00     0.048 C 
HETATM   18  C   UNL     1      28.543  45.266  55.301  1.00  0.00     0.009 A 
HETATM   19  C   UNL     1      28.042  44.400  54.324  1.00  0.00     0.030 A 
ENDBRANCH   9  13
ENDBRANCH   5   7
ENDBRANCH   1   2
BRANCH   1  20
HETATM   20  C   UNL     1      25.207  44.813  49.404  1.00  0.00     0.225 C 
HETATM   21  N   UNL     1      24.362  45.902  49.195  1.00  0.00    -0.349 N 
HETATM   22  C   UNL     1      24.697  47.139  49.919  1.00  0.00     0.145 C 
HETATM   23  C   UNL     1      22.956  45.756  48.798  1.00  0.00     0.145 C 
HETATM   24  C   UNL     1      23.999  48.410  49.394  1.00  0.00     0.143 C 
HETATM   25  N   UNL     1      22.556  48.160  49.189  1.00  0.00    -0.378 N 
HETATM   26  C   UNL     1      22.336  47.046  48.243  1.00  0.00     0.143 C 
HETATM   27  O   UNL     1      26.365  44.958  49.806  1.00  0.00    -0.273 OA
BRANCH  25  28
HETATM   28  C   UNL     1      21.689  49.244  49.007  1.00  0.00     0.030 A 
HETATM   29  C   UNL     1      20.313  49.073  49.249  1.00  0.00     0.045 A 
HETATM   30  C   UNL     1      19.382  50.113  49.082  1.00  0.00     0.050 A 
HETATM   31  C   UNL     1      19.844  51.372  48.688  1.00  0.00     0.016 A 
HETATM   32  C   UNL     1      21.204  51.578  48.468  1.00  0.00     0.003 A 
HETATM   33  C   UNL     1      22.112  50.524  48.629  1.00  0.00     0.029 A 
BRANCH  30  34
HETATM   34  C   UNL     1      17.915  49.883  49.335  1.00  0.00     0.417 C 
HETATM   35  F   UNL     1      17.345  50.817  50.147  1.00  0.00    -0.166 F 
HETATM   36  F   UNL     1      17.179  49.887  48.189  1.00  0.00    -0.166 F 
HETATM   37  F   UNL     1      17.671  48.681  49.931  1.00  0.00    -0.166 F 
ENDBRANCH  30  34
ENDBRANCH  25  28
ENDBRANCH   1  20
TORSDOF 6
ENDMDL
MODEL 4
REMARK VINA RESULT:     -10.1      1.974      2.409
REMARK  6 active torsions:
REMARK  status: ('A' for Active; 'I' for Inactive)
REMARK    1  A    between atoms: C_5  and  N_6 
REMARK       I    between atoms: N_6  and  C_7 
REMARK       I    between atoms: C_7  and  N_8 
REMARK    2  A    between atoms: N_8  and  C_9 
REMARK    3  A    between atoms: C_12  and  C_13 
REMARK    4  A    between atoms: C_13  and  C_14 
REMARK       I    between atoms: C_14  and  N_15 
REMARK    5  A    between atoms: N_18  and  C_19 
REMARK    6  A    between atoms: C_21  and  C_22 
ROOT
HETATM    1  C   UNL     1      25.196  44.508  49.405  1.00  0.00     0.162 C 
ENDROOT
BRANCH   1   2
HETATM    2  C   UNL     1      24.127  44.057  48.470  1.00  0.00     0.052 A 
HETATM    3  C   UNL     1      23.793  42.738  48.208  1.00  0.00     0.081 A 
HETATM    4  S   UNL     1      22.354  42.668  47.283  1.00  0.00    -0.062 SA
HETATM    5  C   UNL     1      22.317  44.370  47.255  1.00  0.00     0.174 A 
HETATM    6  N   UNL     1      23.299  44.998  47.859  1.00  0.00    -0.228 NA
BRANCH   5   7
HETATM    7  N   UNL     1      21.237  44.896  46.615  1.00  0.00    -0.287 N 
HETATM    8  C   UNL     1      20.497  45.976  46.997  1.00  0.00     0.326 C 
HETATM    9  N   UNL     1      21.001  46.736  48.019  1.00  0.00    -0.309 N 
HETATM   10  O   UNL     1      19.478  46.219  46.353  1.00  0.00    -0.247 OA
HETATM   11  H   UNL     1      21.892  46.418  48.386  1.00  0.00     0.170 HD
HETATM   12  H   UNL     1      20.916  44.432  45.778  1.00  0.00     0.172 HD
BRANCH   9  13
HETATM   13  C   UNL     1      20.507  47.963  48.503  1.00  0.00     0.036 A 
HETATM   14  C   UNL     1      19.478  48.080  49.436  1.00  0.00     0.030 A 
HETATM   15  C   UNL     1      19.025  49.340  49.842  1.00  0.00     0.009 A 
HETATM   16  C   UNL     1      19.597  50.506  49.322  1.00  0.00    -0.062 A 
HETATM   17  C   UNL     1      19.061  51.851  49.715  1.00  0.00     0.048 C 
HETATM   18  C   UNL     1      20.625  50.392  48.384  1.00  0.00     0.009 A 
HETATM   19  C   UNL     1      21.081  49.129  47.989  1.00  0.00     0.030 A 
ENDBRANCH   9  13
ENDBRANCH   5   7
ENDBRANCH   1   2
BRANCH   1  20
HETATM   20  C   UNL     1      24.862  44.251  50.865  1.00  0.00     0.225 C 
HETATM   21  N   UNL     1      25.907  44.136  51.780  1.00  0.00    -0.349 N 
HETATM   22  C   UNL     1      25.588  44.453  53.182  1.00  0.00     0.145 C 
HETATM   23  C   UNL     1      27.318  44.275  51.400  1.00  0.00     0.145 C 
HETATM   24  C   UNL     1      26.626  43.963  54.212  1.00  0.00     0.143 C 
HETATM   25  N   UNL     1      27.994  44.311  53.774  1.00  0.00    -0.378 N 
HETATM   26  C   UNL     1      28.295  43.727  52.450  1.00  0.00     0.143 C 
HETATM   27  O   UNL     1      23.680  44.201  51.220  1.00  0.00    -0.273 OA
BRANCH  25  28
HETATM   28  C   UNL     1      29.051  44.230  54.688  1.00  0.00     0.030 A 
HETATM   29  C   UNL     1      29.006  45.004  55.863  1.00  0.00     0.045 A 
HETATM   30  C   UNL     1      30.032  44.980  56.824  1.00  0.00     0.050 A 
HETATM   31  C   UNL     1      31.125  44.133  56.618  1.00  0.00     0.016 A 
HETATM   32  C   UNL     1      31.183  43.335  55.479  1.00  0.00     0.003 A 
HETATM   33  C   UNL     1      30.156  43.384  54.529  1.00  0.00     0.029 A 
BRANCH  30  34
HETATM   34  C   UNL     1      29.952  45.837  58.059  1.00  0.00     0.417 C 
HETATM   35  F   UNL     1      28.829  46.608  58.121  1.00  0.00    -0.166 F 
HETATM   36  F   UNL     1      29.963  45.104  59.207  1.00  0.00    -0.166 F 
HETATM   37  F   UNL     1      30.999  46.704  58.161  1.00  0.00    -0.166 F 
ENDBRANCH  30  34
ENDBRANCH  25  28
ENDBRANCH   1  20
TORSDOF 6
ENDMDL
MODEL 5
REMARK VINA RESULT:      -9.9      5.539     11.323
REMARK  6 active torsions:
REMARK  status: ('A' for Active; 'I' for Inactive)
REMARK    1  A    between atoms: C_5  and  N_6 
REMARK       I    between atoms: N_6  and  C_7 
REMARK       I    between atoms: C_7  and  N_8 
REMARK    2  A    between atoms: N_8  and  C_9 
REMARK    3  A    between atoms: C_12  and  C_13 
REMARK    4  A    between atoms: C_13  and  C_14 
REMARK       I    between atoms: C_14  and  N_15 
REMARK    5  A    between atoms: N_18  and  C_19 
REMARK    6  A    between atoms: C_21  and  C_22 
ROOT
HETATM    1  C   UNL     1      25.082  44.022  49.236  1.00  0.00     0.162 C 
ENDROOT
BRANCH   1   2
HETATM    2  C   UNL     1      25.848  42.793  49.591  1.00  0.00     0.052 A 
HETATM    3  C   UNL     1      26.608  42.038  48.713  1.00  0.00     0.081 A 
HETATM    4  S   UNL     1      27.519  40.874  49.575  1.00  0.00    -0.062 SA
HETATM    5  C   UNL     1      26.802  41.417  51.021  1.00  0.00     0.174 A 
HETATM    6  N   UNL     1      25.919  42.383  50.922  1.00  0.00    -0.228 NA
BRANCH   5   7
HETATM    7  N   UNL     1      27.254  40.788  52.141  1.00  0.00    -0.287 N 
HETATM    8  C   UNL     1      28.019  41.324  53.135  1.00  0.00     0.326 C 
HETATM    9  N   UNL     1      28.189  42.683  53.116  1.00  0.00    -0.309 N 
HETATM   10  O   UNL     1      28.434  40.558  54.003  1.00  0.00    -0.247 OA
HETATM   11  H   UNL     1      27.714  43.160  52.357  1.00  0.00     0.170 HD
HETATM   12  H   UNL     1      27.032  39.810  52.251  1.00  0.00     0.172 HD
BRANCH   9  13
HETATM   13  C   UNL     1      28.811  43.485  54.092  1.00  0.00     0.036 A 
HETATM   14  C   UNL     1      30.083  43.244  54.610  1.00  0.00     0.030 A 
HETATM   15  C   UNL     1      30.616  44.075  55.602  1.00  0.00     0.009 A 
HETATM   16  C   UNL     1      29.886  45.164  56.090  1.00  0.00    -0.062 A 
HETATM   17  C   UNL     1      30.441  46.010  57.198  1.00  0.00     0.048 C 
HETATM   18  C   UNL     1      28.610  45.405  55.575  1.00  0.00     0.009 A 
HETATM   19  C   UNL     1      28.086  44.577  54.577  1.00  0.00     0.030 A 
ENDBRANCH   9  13
ENDBRANCH   5   7
ENDBRANCH   1   2
BRANCH   1  20
HETATM   20  C   UNL     1      23.579  43.802  49.204  1.00  0.00     0.225 C 
HETATM   21  N   UNL     1      22.749  44.891  48.947  1.00  0.00    -0.349 N 
HETATM   22  C   UNL     1      21.427  44.587  48.373  1.00  0.00     0.145 C 
HETATM   23  C   UNL     1      23.263  46.240  48.682  1.00  0.00     0.145 C 
HETATM   24  C   UNL     1      20.403  45.737  48.451  1.00  0.00     0.143 C 
HETATM   25  N   UNL     1      21.016  47.006  48.005  1.00  0.00    -0.378 N 
HETATM   26  C   UNL     1      22.202  47.342  48.821  1.00  0.00     0.143 C 
HETATM   27  O   UNL     1      23.127  42.662  49.354  1.00  0.00    -0.273 OA
BRANCH  25  28
HETATM   28  C   UNL     1      20.194  48.102  47.714  1.00  0.00     0.030 A 
HETATM   29  C   UNL     1      20.285  49.261  48.507  1.00  0.00     0.045 A 
HETATM   30  C   UNL     1      19.489  50.396  48.279  1.00  0.00     0.050 A 
HETATM   31  C   UNL     1      18.593  50.385  47.206  1.00  0.00     0.016 A 
HETATM   32  C   UNL     1      18.501  49.262  46.388  1.00  0.00     0.003 A 
HETATM   33  C   UNL     1      19.295  48.137  46.641  1.00  0.00     0.029 A 
BRANCH  30  34
HETATM   34  C   UNL     1      19.606  51.611  49.163  1.00  0.00     0.417 C 
HETATM   35  F   UNL     1      18.517  51.820  49.955  1.00  0.00    -0.166 F 
HETATM   36  F   UNL     1      20.673  51.543  50.006  1.00  0.00    -0.166 F 
HETATM   37  F   UNL     1      19.768  52.760  48.449  1.00  0.00    -0.166 F 
ENDBRANCH  30  34
ENDBRANCH  25  28
ENDBRANCH   1  20
TORSDOF 6
ENDMDL
MODEL 6
REMARK VINA RESULT:      -9.7      2.404      3.723
REMARK  6 active torsions:
REMARK  status: ('A' for Active; 'I' for Inactive)
REMARK    1  A    between atoms: C_5  and  N_6 
REMARK       I    between atoms: N_6  and  C_7 
REMARK       I    between atoms: C_7  and  N_8 
REMARK    2  A    between atoms: N_8  and  C_9 
REMARK    3  A    between atoms: C_12  and  C_13 
REMARK    4  A    between atoms: C_13  and  C_14 
REMARK       I    between atoms: C_14  and  N_15 
REMARK    5  A    between atoms: N_18  and  C_19 
REMARK    6  A    between atoms: C_21  and  C_22 
ROOT
HETATM    1  C   UNL     1      22.873  46.646  48.330  1.00  0.00     0.162 C 
ENDROOT
BRANCH   1   2
HETATM    2  C   UNL     1      21.499  46.630  47.751  1.00  0.00     0.052 A 
HETATM    3  C   UNL     1      21.185  46.330  46.436  1.00  0.00     0.081 A 
HETATM    4  S   UNL     1      19.490  46.175  46.257  1.00  0.00    -0.062 SA
HETATM    5  C   UNL     1      19.304  46.567  47.904  1.00  0.00     0.174 A 
HETATM    6  N   UNL     1      20.397  46.828  48.582  1.00  0.00    -0.228 NA
BRANCH   5   7
HETATM    7  N   UNL     1      18.015  46.543  48.343  1.00  0.00    -0.287 N 
HETATM    8  C   UNL     1      17.287  47.593  48.821  1.00  0.00     0.326 C 
HETATM    9  N   UNL     1      17.831  48.840  48.663  1.00  0.00    -0.309 N 
HETATM   10  O   UNL     1      16.178  47.344  49.291  1.00  0.00    -0.247 OA
HETATM   11  H   UNL     1      18.728  48.856  48.190  1.00  0.00     0.170 HD
HETATM   12  H   UNL     1      17.538  45.654  48.349  1.00  0.00     0.172 HD
BRANCH   9  13
HETATM   13  C   UNL     1      17.228  50.083  48.942  1.00  0.00     0.036 A 
HETATM   14  C   UNL     1      15.979  50.474  48.460  1.00  0.00     0.030 A 
HETATM   15  C   UNL     1      15.466  51.740  48.762  1.00  0.00     0.009 A 
HETATM   16  C   UNL     1      16.193  52.636  49.553  1.00  0.00    -0.062 A 
HETATM   17  C   UNL     1      15.661  54.014  49.817  1.00  0.00     0.048 C 
HETATM   18  C   UNL     1      17.445  52.247  50.034  1.00  0.00     0.009 A 
HETATM   19  C   UNL     1      17.950  50.977  49.738  1.00  0.00     0.030 A 
ENDBRANCH   9  13
ENDBRANCH   5   7
ENDBRANCH   1   2
BRANCH   1  20
HETATM   20  C   UNL     1      23.259  45.333  48.990  1.00  0.00     0.225 C 
HETATM   21  N   UNL     1      24.243  45.344  49.977  1.00  0.00    -0.349 N 
HETATM   22  C   UNL     1      24.201  44.248  50.958  1.00  0.00     0.145 C 
HETATM   23  C   UNL     1      24.909  46.574  50.424  1.00  0.00     0.145 C 
HETATM   24  C   UNL     1      25.488  44.066  51.788  1.00  0.00     0.143 C 
HETATM   25  N   UNL     1      25.957  45.369  52.306  1.00  0.00    -0.378 N 
HETATM   26  C   UNL     1      26.207  46.322  51.205  1.00  0.00     0.143 C 
HETATM   27  O   UNL     1      22.663  44.296  48.680  1.00  0.00    -0.273 OA
BRANCH  25  28
HETATM   28  C   UNL     1      26.924  45.398  53.319  1.00  0.00     0.030 A 
HETATM   29  C   UNL     1      27.842  44.337  53.424  1.00  0.00     0.045 A 
HETATM   30  C   UNL     1      28.835  44.293  54.419  1.00  0.00     0.050 A 
HETATM   31  C   UNL     1      28.933  45.359  55.318  1.00  0.00     0.016 A 
HETATM   32  C   UNL     1      28.056  46.436  55.219  1.00  0.00     0.003 A 
HETATM   33  C   UNL     1      27.066  46.452  54.229  1.00  0.00     0.029 A 
BRANCH  30  34
HETATM   34  C   UNL     1      29.787  43.130  54.507  1.00  0.00     0.417 C 
HETATM   35  F   UNL     1      30.478  43.074  55.680  1.00  0.00    -0.166 F 
HETATM   36  F   UNL     1      29.158  41.928  54.388  1.00  0.00    -0.166 F 
HETATM   37  F   UNL     1      30.732  43.154  53.525  1.00  0.00    -0.166 F 
ENDBRANCH  30  34
ENDBRANCH  25  28
ENDBRANCH   1  20
TORSDOF 6
ENDMDL
MODEL 7
REMARK VINA RESULT:      -9.7      5.497     11.700
REMARK  6 active torsions:
REMARK  status: ('A' for Active; 'I' for Inactive)
REMARK    1  A    between atoms: C_5  and  N_6 
REMARK       I    between atoms: N_6  and  C_7 
REMARK       I    between atoms: C_7  and  N_8 
REMARK    2  A    between atoms: N_8  and  C_9 
REMARK    3  A    between atoms: C_12  and  C_13 
REMARK    4  A    between atoms: C_13  and  C_14 
REMARK       I    between atoms: C_14  and  N_15 
REMARK    5  A    between atoms: N_18  and  C_19 
REMARK    6  A    between atoms: C_21  and  C_22 
ROOT
HETATM    1  C   UNL     1      24.340  44.472  48.951  1.00  0.00     0.162 C 
ENDROOT
BRANCH   1   2
HETATM    2  C   UNL     1      25.071  45.421  49.838  1.00  0.00     0.052 A 
HETATM    3  C   UNL     1      25.863  46.474  49.409  1.00  0.00     0.081 A 
HETATM    4  S   UNL     1      26.302  47.459  50.738  1.00  0.00    -0.062 SA
HETATM    5  C   UNL     1      25.466  46.396  51.772  1.00  0.00     0.174 A 
HETATM    6  N   UNL     1      24.899  45.349  51.220  1.00  0.00    -0.228 NA
BRANCH   5   7
HETATM    7  N   UNL     1      25.463  46.775  53.080  1.00  0.00    -0.287 N 
HETATM    8  C   UNL     1      26.284  46.323  54.071  1.00  0.00     0.326 C 
HETATM    9  N   UNL     1      27.353  45.559  53.683  1.00  0.00    -0.309 N 
HETATM   10  O   UNL     1      26.040  46.692  55.218  1.00  0.00    -0.247 OA
HETATM   11  H   UNL     1      27.431  45.414  52.682  1.00  0.00     0.170 HD
HETATM   12  H   UNL     1      24.765  47.442  53.374  1.00  0.00     0.172 HD
BRANCH   9  13
HETATM   13  C   UNL     1      28.412  45.091  54.486  1.00  0.00     0.036 A 
HETATM   14  C   UNL     1      29.023  45.840  55.492  1.00  0.00     0.030 A 
HETATM   15  C   UNL     1      30.091  45.309  56.224  1.00  0.00     0.009 A 
HETATM   16  C   UNL     1      30.564  44.018  55.964  1.00  0.00    -0.062 A 
HETATM   17  C   UNL     1      31.750  43.483  56.712  1.00  0.00     0.048 C 
HETATM   18  C   UNL     1      29.955  43.268  54.955  1.00  0.00     0.009 A 
HETATM   19  C   UNL     1      28.881  43.800  54.233  1.00  0.00     0.030 A 
ENDBRANCH   9  13
ENDBRANCH   5   7
ENDBRANCH   1   2
BRANCH   1  20
HETATM   20  C   UNL     1      22.849  44.413  49.239  1.00  0.00     0.225 C 
HETATM   21  N   UNL     1      22.053  45.496  48.868  1.00  0.00    -0.349 N 
HETATM   22  C   UNL     1      20.629  45.211  48.629  1.00  0.00     0.145 C 
HETATM   23  C   UNL     1      22.589  46.683  48.190  1.00  0.00     0.145 C 
HETATM   24  C   UNL     1      19.713  46.452  48.596  1.00  0.00     0.143 C 
HETATM   25  N   UNL     1      20.305  47.509  47.749  1.00  0.00    -0.378 N 
HETATM   26  C   UNL     1      21.646  47.895  48.235  1.00  0.00     0.143 C 
HETATM   27  O   UNL     1      22.365  43.395  49.743  1.00  0.00    -0.273 OA
BRANCH  25  28
HETATM   28  C   UNL     1      19.511  48.589  47.343  1.00  0.00     0.030 A 
HETATM   29  C   UNL     1      19.483  49.756  48.129  1.00  0.00     0.045 A 
HETATM   30  C   UNL     1      18.705  50.877  47.789  1.00  0.00     0.050 A 
HETATM   31  C   UNL     1      17.955  50.842  46.610  1.00  0.00     0.016 A 
HETATM   32  C   UNL     1      17.987  49.711  45.798  1.00  0.00     0.003 A 
HETATM   33  C   UNL     1      18.758  48.601  46.163  1.00  0.00     0.029 A 
BRANCH  30  34
HETATM   34  C   UNL     1      18.690  52.100  48.668  1.00  0.00     0.417 C 
HETATM   35  F   UNL     1      19.249  51.901  49.895  1.00  0.00    -0.166 F 
HETATM   36  F   UNL     1      19.362  53.149  48.118  1.00  0.00    -0.166 F 
HETATM   37  F   UNL     1      17.427  52.552  48.909  1.00  0.00    -0.166 F 
ENDBRANCH  30  34
ENDBRANCH  25  28
ENDBRANCH   1  20
TORSDOF 6
ENDMDL
MODEL 8
REMARK VINA RESULT:      -9.6      2.325      3.010
REMARK  6 active torsions:
REMARK  status: ('A' for Active; 'I' for Inactive)
REMARK    1  A    between atoms: C_5  and  N_6 
REMARK       I    between atoms: N_6  and  C_7 
REMARK       I    between atoms: C_7  and  N_8 
REMARK    2  A    between atoms: N_8  and  C_9 
REMARK    3  A    between atoms: C_12  and  C_13 
REMARK    4  A    between atoms: C_13  and  C_14 
REMARK       I    between atoms: C_14  and  N_15 
REMARK    5  A    between atoms: N_18  and  C_19 
REMARK    6  A    between atoms: C_21  and  C_22 
ROOT
HETATM    1  C   UNL     1      24.210  42.298  50.237  1.00  0.00     0.162 C 
ENDROOT
BRANCH   1   2
HETATM    2  C   UNL     1      23.707  42.356  48.835  1.00  0.00     0.052 A 
HETATM    3  C   UNL     1      23.185  41.288  48.125  1.00  0.00     0.081 A 
HETATM    4  S   UNL     1      22.494  41.838  46.659  1.00  0.00    -0.062 SA
HETATM    5  C   UNL     1      22.984  43.421  47.049  1.00  0.00     0.174 A 
HETATM    6  N   UNL     1      23.642  43.582  48.174  1.00  0.00    -0.228 NA
BRANCH   5   7
HETATM    7  N   UNL     1      22.608  44.364  46.141  1.00  0.00    -0.287 N 
HETATM    8  C   UNL     1      22.109  45.607  46.401  1.00  0.00     0.326 C 
HETATM    9  N   UNL     1      22.175  46.036  47.700  1.00  0.00    -0.309 N 
HETATM   10  O   UNL     1      21.708  46.265  45.443  1.00  0.00    -0.247 OA
HETATM   11  H   UNL     1      22.603  45.379  48.344  1.00  0.00     0.170 HD
HETATM   12  H   UNL     1      22.673  44.124  45.163  1.00  0.00     0.172 HD
BRANCH   9  13
HETATM   13  C   UNL     1      21.858  47.314  48.200  1.00  0.00     0.036 A 
HETATM   14  C   UNL     1      22.796  48.320  48.430  1.00  0.00     0.030 A 
HETATM   15  C   UNL     1      22.400  49.554  48.958  1.00  0.00     0.009 A 
HETATM   16  C   UNL     1      21.058  49.804  49.262  1.00  0.00    -0.062 A 
HETATM   17  C   UNL     1      20.654  51.107  49.887  1.00  0.00     0.048 C 
HETATM   18  C   UNL     1      20.118  48.796  49.036  1.00  0.00     0.009 A 
HETATM   19  C   UNL     1      20.517  47.568  48.499  1.00  0.00     0.030 A 
ENDBRANCH   9  13
ENDBRANCH   5   7
ENDBRANCH   1   2
BRANCH   1  20
HETATM   20  C   UNL     1      25.699  42.005  50.326  1.00  0.00     0.225 C 
HETATM   21  N   UNL     1      26.457  42.678  51.282  1.00  0.00    -0.349 N 
HETATM   22  C   UNL     1      27.690  42.011  51.730  1.00  0.00     0.145 C 
HETATM   23  C   UNL     1      25.878  43.644  52.223  1.00  0.00     0.145 C 
HETATM   24  C   UNL     1      28.687  42.918  52.479  1.00  0.00     0.143 C 
HETATM   25  N   UNL     1      27.986  43.720  53.505  1.00  0.00    -0.378 N 
HETATM   26  C   UNL     1      26.921  44.546  52.900  1.00  0.00     0.143 C 
HETATM   27  O   UNL     1      26.195  41.144  49.593  1.00  0.00    -0.273 OA
BRANCH  25  28
HETATM   28  C   UNL     1      28.731  44.379  54.490  1.00  0.00     0.030 A 
HETATM   29  C   UNL     1      29.716  43.667  55.200  1.00  0.00     0.045 A 
HETATM   30  C   UNL     1      30.498  44.259  56.207  1.00  0.00     0.050 A 
HETATM   31  C   UNL     1      30.311  45.614  56.494  1.00  0.00     0.016 A 
HETATM   32  C   UNL     1      29.363  46.351  55.788  1.00  0.00     0.003 A 
HETATM   33  C   UNL     1      28.586  45.737  54.798  1.00  0.00     0.029 A 
BRANCH  30  34
HETATM   34  C   UNL     1      31.530  43.456  56.954  1.00  0.00     0.417 C 
HETATM   35  F   UNL     1      32.572  43.043  56.179  1.00  0.00    -0.166 F 
HETATM   36  F   UNL     1      32.087  44.149  57.986  1.00  0.00    -0.166 F 
HETATM   37  F   UNL     1      31.010  42.323  57.505  1.00  0.00    -0.166 F 
ENDBRANCH  30  34
ENDBRANCH  25  28
ENDBRANCH   1  20
TORSDOF 6
ENDMDL
MODEL 9
REMARK VINA RESULT:      -9.5      1.776      2.152
REMARK  6 active torsions:
REMARK  status: ('A' for Active; 'I' for Inactive)
REMARK    1  A    between atoms: C_5  and  N_6 
REMARK       I    between atoms: N_6  and  C_7 
REMARK       I    between atoms: C_7  and  N_8 
REMARK    2  A    between atoms: N_8  and  C_9 
REMARK    3  A    between atoms: C_12  and  C_13 
REMARK    4  A    between atoms: C_13  and  C_14 
REMARK       I    between atoms: C_14  and  N_15 
REMARK    5  A    between atoms: N_18  and  C_19 
REMARK    6  A    between atoms: C_21  and  C_22 
ROOT
HETATM    1  C   UNL     1      25.041  44.967  49.815  1.00  0.00     0.162 C 
ENDROOT
BRANCH   1   2
HETATM    2  C   UNL     1      24.195  46.123  49.402  1.00  0.00     0.052 A 
HETATM    3  C   UNL     1      24.452  47.452  49.695  1.00  0.00     0.081 A 
HETATM    4  S   UNL     1      23.384  48.465  48.822  1.00  0.00    -0.062 SA
HETATM    5  C   UNL     1      22.637  47.078  48.174  1.00  0.00     0.174 A 
HETATM    6  N   UNL     1      23.098  45.914  48.567  1.00  0.00    -0.228 NA
BRANCH   5   7
HETATM    7  N   UNL     1      21.639  47.343  47.286  1.00  0.00    -0.287 N 
HETATM    8  C   UNL     1      20.560  48.155  47.478  1.00  0.00     0.326 C 
HETATM    9  N   UNL     1      20.575  48.944  48.597  1.00  0.00    -0.309 N 
HETATM   10  O   UNL     1      19.698  48.165  46.600  1.00  0.00    -0.247 OA
HETATM   11  H   UNL     1      21.404  48.849  49.174  1.00  0.00     0.170 HD
HETATM   12  H   UNL     1      21.669  46.874  46.393  1.00  0.00     0.172 HD
BRANCH   9  13
HETATM   13  C   UNL     1      19.659  49.955  48.949  1.00  0.00     0.036 A 
HETATM   14  C   UNL     1      18.509  49.742  49.708  1.00  0.00     0.030 A 
HETATM   15  C   UNL     1      17.635  50.798  49.987  1.00  0.00     0.009 A 
HETATM   16  C   UNL     1      17.897  52.088  49.513  1.00  0.00    -0.062 A 
HETATM   17  C   UNL     1      16.921  53.199  49.764  1.00  0.00     0.048 C 
HETATM   18  C   UNL     1      19.047  52.303  48.749  1.00  0.00     0.009 A 
HETATM   19  C   UNL     1      19.923  51.246  48.481  1.00  0.00     0.030 A 
ENDBRANCH   9  13
ENDBRANCH   5   7
ENDBRANCH   1   2
BRANCH   1  20
HETATM   20  C   UNL     1      24.686  44.428  51.191  1.00  0.00     0.225 C 
HETATM   21  N   UNL     1      25.631  44.523  52.211  1.00  0.00    -0.349 N 
HETATM   22  C   UNL     1      25.111  44.537  53.588  1.00  0.00     0.145 C 
HETATM   23  C   UNL     1      26.949  45.141  52.021  1.00  0.00     0.145 C 
HETATM   24  C   UNL     1      26.160  44.261  54.684  1.00  0.00     0.143 C 
HETATM   25  N   UNL     1      27.376  45.070  54.452  1.00  0.00    -0.378 N 
HETATM   26  C   UNL     1      27.959  44.788  53.123  1.00  0.00     0.143 C 
HETATM   27  O   UNL     1      23.558  43.968  51.393  1.00  0.00    -0.273 OA
BRANCH  25  28
HETATM   28  C   UNL     1      28.322  45.200  55.476  1.00  0.00     0.030 A 
HETATM   29  C   UNL     1      29.363  44.258  55.573  1.00  0.00     0.045 A 
HETATM   30  C   UNL     1      30.345  44.319  56.578  1.00  0.00     0.050 A 
HETATM   31  C   UNL     1      30.302  45.372  57.497  1.00  0.00     0.016 A 
HETATM   32  C   UNL     1      29.299  46.334  57.407  1.00  0.00     0.003 A 
HETATM   33  C   UNL     1      28.324  46.247  56.405  1.00  0.00     0.029 A 
BRANCH  30  34
HETATM   34  C   UNL     1      31.433  43.281  56.658  1.00  0.00     0.417 C 
HETATM   35  F   UNL     1      32.574  43.726  57.255  1.00  0.00    -0.166 F 
HETATM   36  F   UNL     1      31.052  42.177  57.359  1.00  0.00    -0.166 F 
HETATM   37  F   UNL     1      31.813  42.830  55.429  1.00  0.00    -0.166 F 
ENDBRANCH  30  34
ENDBRANCH  25  28
ENDBRANCH   1  20
TORSDOF 6
ENDMDL
MODEL 10
REMARK VINA RESULT:      -9.2      6.188      9.072
REMARK  6 active torsions:
REMARK  status: ('A' for Active; 'I' for Inactive)
REMARK    1  A    between atoms: C_5  and  N_6 
REMARK       I    between atoms: N_6  and  C_7 
REMARK       I    between atoms: C_7  and  N_8 
REMARK    2  A    between atoms: N_8  and  C_9 
REMARK    3  A    between atoms: C_12  and  C_13 
REMARK    4  A    between atoms: C_13  and  C_14 
REMARK       I    between atoms: C_14  and  N_15 
REMARK    5  A    between atoms: N_18  and  C_19 
REMARK    6  A    between atoms: C_21  and  C_22 
ROOT
HETATM    1  C   UNL     1      23.507  40.802  47.844  1.00  0.00     0.162 C 
ENDROOT
BRANCH   1   2
HETATM    2  C   UNL     1      22.228  40.497  47.142  1.00  0.00     0.052 A 
HETATM    3  C   UNL     1      21.862  40.976  45.895  1.00  0.00     0.081 A 
HETATM    4  S   UNL     1      20.444  40.185  45.354  1.00  0.00    -0.062 SA
HETATM    5  C   UNL     1      20.396  39.320  46.819  1.00  0.00     0.174 A 
HETATM    6  N   UNL     1      21.335  39.582  47.698  1.00  0.00    -0.228 NA
BRANCH   5   7
HETATM    7  N   UNL     1      19.378  38.419  46.905  1.00  0.00    -0.287 N 
HETATM    8  C   UNL     1      19.462  37.115  47.294  1.00  0.00     0.326 C 
HETATM    9  N   UNL     1      20.649  36.714  47.848  1.00  0.00    -0.309 N 
HETATM   10  O   UNL     1      18.450  36.426  47.182  1.00  0.00    -0.247 OA
HETATM   11  H   UNL     1      21.352  37.442  47.921  1.00  0.00     0.170 HD
HETATM   12  H   UNL     1      18.457  38.724  46.626  1.00  0.00     0.172 HD
BRANCH   9  13
HETATM   13  C   UNL     1      20.942  35.473  48.448  1.00  0.00     0.036 A 
HETATM   14  C   UNL     1      20.283  34.969  49.568  1.00  0.00     0.030 A 
HETATM   15  C   UNL     1      20.658  33.739  50.120  1.00  0.00     0.009 A 
HETATM   16  C   UNL     1      21.698  32.991  49.559  1.00  0.00    -0.062 A 
HETATM   17  C   UNL     1      22.134  31.705  50.196  1.00  0.00     0.048 C 
HETATM   18  C   UNL     1      22.362  33.496  48.439  1.00  0.00     0.009 A 
HETATM   19  C   UNL     1      21.977  34.722  47.884  1.00  0.00     0.030 A 
ENDBRANCH   9  13
ENDBRANCH   5   7
ENDBRANCH   1   2
BRANCH   1  20
HETATM   20  C   UNL     1      23.367  41.889  48.897  1.00  0.00     0.225 C 
HETATM   21  N   UNL     1      24.413  42.087  49.797  1.00  0.00    -0.349 N 
HETATM   22  C   UNL     1      24.519  43.429  50.393  1.00  0.00     0.145 C 
HETATM   23  C   UNL     1      25.655  41.306  49.760  1.00  0.00     0.145 C 
HETATM   24  C   UNL     1      25.420  43.518  51.641  1.00  0.00     0.143 C 
HETATM   25  N   UNL     1      26.703  42.821  51.404  1.00  0.00    -0.378 N 
HETATM   26  C   UNL     1      26.482  41.403  51.051  1.00  0.00     0.143 C 
HETATM   27  O   UNL     1      22.362  42.607  48.902  1.00  0.00    -0.273 OA
BRANCH  25  28
HETATM   28  C   UNL     1      27.773  43.031  52.282  1.00  0.00     0.030 A 
HETATM   29  C   UNL     1      27.712  44.099  53.197  1.00  0.00     0.045 A 
HETATM   30  C   UNL     1      28.750  44.377  54.103  1.00  0.00     0.050 A 
HETATM   31  C   UNL     1      29.872  43.542  54.117  1.00  0.00     0.016 A 
HETATM   32  C   UNL     1      29.946  42.462  53.241  1.00  0.00     0.003 A 
HETATM   33  C   UNL     1      28.906  42.211  52.338  1.00  0.00     0.029 A 
BRANCH  30  34
HETATM   34  C   UNL     1      28.653  45.540  55.055  1.00  0.00     0.417 C 
HETATM   35  F   UNL     1      29.851  45.920  55.582  1.00  0.00    -0.166 F 
HETATM   36  F   UNL     1      28.135  46.655  54.467  1.00  0.00    -0.166 F 
HETATM   37  F   UNL     1      27.849  45.274  56.122  1.00  0.00    -0.166 F 
ENDBRANCH  30  34
ENDBRANCH  25  28
ENDBRANCH   1  20
TORSDOF 6
ENDMDL
