MODEL 1
REMARK VINA RESULT:      -9.4      0.000      0.000
REMARK  5 active torsions:
REMARK  status: ('A' for Active; 'I' for Inactive)
REMARK    1  A    between atoms: C_9  and  C_10 
REMARK       I    between atoms: C_10  and  N_11 
REMARK    2  A    between atoms: N_11  and  C_12 
REMARK    3  A    between atoms: C_12  and  C_13 
REMARK    4  A    between atoms: C_16  and  O_17 
REMARK    5  A    between atoms: O_17  and  C_18 
ROOT
HETATM    1  C   UNL     1      25.555  46.754  50.135  1.00  0.00     0.273 C 
HETATM    2  N   UNL     1      24.957  46.715  51.374  1.00  0.00    -0.351 N 
HETATM    3  O   UNL     1      26.180  45.809  49.663  1.00  0.00    -0.266 OA
HETATM    4  H   UNL     1      24.544  47.589  51.691  1.00  0.00     0.163 HD
ENDROOT
BRANCH   2   5
HETATM    5  C   UNL     1      25.140  45.602  52.265  1.00  0.00     0.163 C 
BRANCH   5   6
HETATM    6  C   UNL     1      26.301  45.822  53.185  1.00  0.00    -0.023 A 
HETATM    7  C   UNL     1      27.185  44.790  53.484  1.00  0.00     0.128 A 
HETATM    8  N   UNL     1      28.265  44.920  54.288  1.00  0.00    -0.236 NA
HETATM    9  C   UNL     1      28.479  46.141  54.821  1.00  0.00     0.164 A 
HETATM   10  C   UNL     1      27.664  47.235  54.584  1.00  0.00     0.059 A 
HETATM   11  C   UNL     1      26.565  47.074  53.745  1.00  0.00     0.014 A 
BRANCH   9  12
HETATM   12  O   UNL     1      29.550  46.352  55.665  1.00  0.00    -0.329 OA
BRANCH  12  13
HETATM   13  C   UNL     1      29.834  45.269  56.544  1.00  0.00     0.130 C 
HETATM   14  C   UNL     1      31.035  44.499  56.001  1.00  0.00     0.032 C 
HETATM   15  C   UNL     1      31.515  43.715  57.208  1.00  0.00     0.002 C 
HETATM   16  C   UNL     1      31.332  44.672  58.381  1.00  0.00     0.002 C 
HETATM   17  C   UNL     1      30.327  45.729  57.919  1.00  0.00     0.032 C 
ENDBRANCH  12  13
ENDBRANCH   9  12
ENDBRANCH   5   6
ENDBRANCH   2   5
BRANCH   1  18
HETATM   18  C   UNL     1      25.385  48.046  49.450  1.00  0.00     0.157 A 
HETATM   19  C   UNL     1      24.160  48.664  49.060  1.00  0.00     0.029 A 
HETATM   20  C   UNL     1      22.788  48.352  49.158  1.00  0.00     0.023 A 
HETATM   21  C   UNL     1      24.534  49.850  48.443  1.00  0.00     0.063 A 
HETATM   22  C   UNL     1      21.837  49.243  48.634  1.00  0.00    -0.061 A 
HETATM   23  C   UNL     1      20.371  48.931  48.723  1.00  0.00     0.048 C 
HETATM   24  C   UNL     1      22.259  50.428  48.017  1.00  0.00     0.009 A 
HETATM   25  C   UNL     1      23.615  50.757  47.908  1.00  0.00     0.032 A 
HETATM   26  N   UNL     1      25.900  49.872  48.500  1.00  0.00    -0.277 N 
HETATM   27  H   UNL     1      26.516  50.593  48.145  1.00  0.00     0.189 HD
HETATM   28  N   UNL     1      26.449  48.799  49.097  1.00  0.00    -0.168 NA
ENDBRANCH   1  18
TORSDOF 5
ENDMDL
MODEL 2
REMARK VINA RESULT:      -9.4      2.291      9.547
REMARK  5 active torsions:
REMARK  status: ('A' for Active; 'I' for Inactive)
REMARK    1  A    between atoms: C_9  and  C_10 
REMARK       I    between atoms: C_10  and  N_11 
REMARK    2  A    between atoms: N_11  and  C_12 
REMARK    3  A    between atoms: C_12  and  C_13 
REMARK    4  A    between atoms: C_16  and  O_17 
REMARK    5  A    between atoms: O_17  and  C_18 
ROOT
HETATM    1  C   UNL     1      25.376  45.303  52.507  1.00  0.00     0.273 C 
HETATM    2  N   UNL     1      25.726  45.751  51.253  1.00  0.00    -0.351 N 
HETATM    3  O   UNL     1      24.507  44.458  52.697  1.00  0.00    -0.266 OA
HETATM    4  H   UNL     1      26.398  46.515  51.231  1.00  0.00     0.163 HD
ENDROOT
BRANCH   2   5
HETATM    5  C   UNL     1      24.997  45.355  50.080  1.00  0.00     0.163 C 
BRANCH   5   6
HETATM    6  C   UNL     1      24.071  46.437  49.617  1.00  0.00    -0.023 A 
HETATM    7  C   UNL     1      24.294  47.767  49.959  1.00  0.00     0.128 A 
HETATM    8  N   UNL     1      23.513  48.797  49.561  1.00  0.00    -0.236 NA
HETATM    9  C   UNL     1      22.456  48.489  48.781  1.00  0.00     0.164 A 
HETATM   10  C   UNL     1      22.149  47.200  48.380  1.00  0.00     0.059 A 
HETATM   11  C   UNL     1      22.975  46.161  48.798  1.00  0.00     0.014 A 
BRANCH   9  12
HETATM   12  O   UNL     1      21.602  49.482  48.347  1.00  0.00    -0.329 OA
BRANCH  12  13
HETATM   13  C   UNL     1      20.858  50.117  49.381  1.00  0.00     0.130 C 
HETATM   14  C   UNL     1      20.293  51.430  48.841  1.00  0.00     0.032 C 
HETATM   15  C   UNL     1      19.181  51.754  49.821  1.00  0.00     0.002 C 
HETATM   16  C   UNL     1      18.555  50.403  50.148  1.00  0.00     0.002 C 
HETATM   17  C   UNL     1      19.594  49.347  49.769  1.00  0.00     0.032 C 
ENDBRANCH  12  13
ENDBRANCH   9  12
ENDBRANCH   5   6
ENDBRANCH   2   5
BRANCH   1  18
HETATM   18  C   UNL     1      26.133  45.956  53.587  1.00  0.00     0.157 A 
HETATM   19  C   UNL     1      27.343  45.503  54.192  1.00  0.00     0.029 A 
HETATM   20  C   UNL     1      28.209  44.402  54.031  1.00  0.00     0.023 A 
HETATM   21  C   UNL     1      27.641  46.453  55.160  1.00  0.00     0.063 A 
HETATM   22  C   UNL     1      29.349  44.293  54.846  1.00  0.00    -0.061 A 
HETATM   23  C   UNL     1      30.284  43.128  54.695  1.00  0.00     0.048 C 
HETATM   24  C   UNL     1      29.610  45.273  55.812  1.00  0.00     0.009 A 
HETATM   25  C   UNL     1      28.763  46.374  55.990  1.00  0.00     0.032 A 
HETATM   26  N   UNL     1      26.637  47.378  55.079  1.00  0.00    -0.277 N 
HETATM   27  H   UNL     1      26.530  48.216  55.639  1.00  0.00     0.189 HD
HETATM   28  N   UNL     1      25.707  47.111  54.145  1.00  0.00    -0.168 NA
ENDBRANCH   1  18
TORSDOF 5
ENDMDL
MODEL 3
REMARK VINA RESULT:      -9.3      1.812      9.677
REMARK  5 active torsions:
REMARK  status: ('A' for Active; 'I' for Inactive)
REMARK    1  A    between atoms: C_9  and  C_10 
REMARK       I    between atoms: C_10  and  N_11 
REMARK    2  A    between atoms: N_11  and  C_12 
REMARK    3  A    between atoms: C_12  and  C_13 
REMARK    4  A    between atoms: C_16  and  O_17 
REMARK    5  A    between atoms: O_17  and  C_18 
ROOT
HETATM    1  C   UNL     1      27.909  44.728  53.505  1.00  0.00     0.273 C 
HETATM    2  N   UNL     1      26.606  44.909  53.101  1.00  0.00    -0.351 N 
HETATM    3  O   UNL     1      28.716  44.046  52.881  1.00  0.00    -0.266 OA
HETATM    4  H   UNL     1      26.012  45.424  53.747  1.00  0.00     0.163 HD
ENDROOT
BRANCH   2   5
HETATM    5  C   UNL     1      26.058  44.193  51.981  1.00  0.00     0.163 C 
BRANCH   5   6
HETATM    6  C   UNL     1      25.248  45.092  51.099  1.00  0.00    -0.023 A 
HETATM    7  C   UNL     1      25.242  46.470  51.291  1.00  0.00     0.128 A 
HETATM    8  N   UNL     1      24.553  47.343  50.521  1.00  0.00    -0.236 NA
HETATM    9  C   UNL     1      23.834  46.820  49.507  1.00  0.00     0.164 A 
HETATM   10  C   UNL     1      23.777  45.465  49.227  1.00  0.00     0.059 A 
HETATM   11  C   UNL     1      24.503  44.590  50.030  1.00  0.00     0.014 A 
BRANCH   9  12
HETATM   12  O   UNL     1      23.090  47.643  48.686  1.00  0.00    -0.329 OA
BRANCH  12  13
HETATM   13  C   UNL     1      22.998  48.993  49.127  1.00  0.00     0.130 C 
HETATM   14  C   UNL     1      23.659  49.894  48.085  1.00  0.00     0.032 C 
HETATM   15  C   UNL     1      23.095  51.265  48.411  1.00  0.00     0.002 C 
HETATM   16  C   UNL     1      21.643  51.000  48.792  1.00  0.00     0.002 C 
HETATM   17  C   UNL     1      21.559  49.516  49.155  1.00  0.00     0.032 C 
ENDBRANCH  12  13
ENDBRANCH   9  12
ENDBRANCH   5   6
ENDBRANCH   2   5
BRANCH   1  18
HETATM   18  C   UNL     1      28.225  45.418  54.766  1.00  0.00     0.157 A 
HETATM   19  C   UNL     1      29.231  45.071  55.716  1.00  0.00     0.029 A 
HETATM   20  C   UNL     1      30.216  44.069  55.831  1.00  0.00     0.023 A 
HETATM   21  C   UNL     1      29.116  46.015  56.728  1.00  0.00     0.063 A 
HETATM   22  C   UNL     1      31.055  44.049  56.958  1.00  0.00    -0.061 A 
HETATM   23  C   UNL     1      32.109  42.989  57.104  1.00  0.00     0.048 C 
HETATM   24  C   UNL     1      30.902  45.019  57.957  1.00  0.00     0.009 A 
HETATM   25  C   UNL     1      29.930  46.022  57.863  1.00  0.00     0.032 A 
HETATM   26  N   UNL     1      28.094  46.836  56.339  1.00  0.00    -0.277 N 
HETATM   27  H   UNL     1      27.732  47.641  56.838  1.00  0.00     0.189 HD
HETATM   28  N   UNL     1      27.530  46.507  55.164  1.00  0.00    -0.168 NA
ENDBRANCH   1  18
TORSDOF 5
ENDMDL
MODEL 4
REMARK VINA RESULT:      -9.2      2.512      9.847
REMARK  5 active torsions:
REMARK  status: ('A' for Active; 'I' for Inactive)
REMARK    1  A    between atoms: C_9  and  C_10 
REMARK       I    between atoms: C_10  and  N_11 
REMARK    2  A    between atoms: N_11  and  C_12 
REMARK    3  A    between atoms: C_12  and  C_13 
REMARK    4  A    between atoms: C_16  and  O_17 
REMARK    5  A    between atoms: O_17  and  C_18 
ROOT
HETATM    1  C   UNL     1      26.052  46.591  51.592  1.00  0.00     0.273 C 
HETATM    2  N   UNL     1      26.190  46.862  50.249  1.00  0.00    -0.351 N 
HETATM    3  O   UNL     1      25.820  47.458  52.429  1.00  0.00    -0.266 OA
HETATM    4  H   UNL     1      26.467  46.074  49.668  1.00  0.00     0.163 HD
ENDROOT
BRANCH   2   5
HETATM    5  C   UNL     1      26.206  48.209  49.749  1.00  0.00     0.163 C 
BRANCH   5   6
HETATM    6  C   UNL     1      24.867  48.611  49.212  1.00  0.00    -0.023 A 
HETATM    7  C   UNL     1      23.723  47.880  49.515  1.00  0.00     0.128 A 
HETATM    8  N   UNL     1      22.481  48.195  49.083  1.00  0.00    -0.236 NA
HETATM    9  C   UNL     1      22.369  49.296  48.312  1.00  0.00     0.164 A 
HETATM   10  C   UNL     1      23.443  50.096  47.957  1.00  0.00     0.059 A 
HETATM   11  C   UNL     1      24.709  49.752  48.423  1.00  0.00     0.014 A 
BRANCH   9  12
HETATM   12  O   UNL     1      21.138  49.676  47.818  1.00  0.00    -0.329 OA
BRANCH  12  13
HETATM   13  C   UNL     1      20.682  50.945  48.275  1.00  0.00     0.130 C 
HETATM   14  C   UNL     1      19.392  51.296  47.535  1.00  0.00     0.032 C 
HETATM   15  C   UNL     1      18.779  52.374  48.409  1.00  0.00     0.002 C 
HETATM   16  C   UNL     1      19.076  51.924  49.835  1.00  0.00     0.002 C 
HETATM   17  C   UNL     1      20.233  50.928  49.738  1.00  0.00     0.032 C 
ENDBRANCH  12  13
ENDBRANCH   9  12
ENDBRANCH   5   6
ENDBRANCH   2   5
BRANCH   1  18
HETATM   18  C   UNL     1      26.231  45.167  51.917  1.00  0.00     0.157 A 
HETATM   19  C   UNL     1      27.148  44.601  52.852  1.00  0.00     0.029 A 
HETATM   20  C   UNL     1      28.125  45.092  53.742  1.00  0.00     0.023 A 
HETATM   21  C   UNL     1      26.938  43.230  52.779  1.00  0.00     0.063 A 
HETATM   22  C   UNL     1      28.858  44.190  54.531  1.00  0.00    -0.061 A 
HETATM   23  C   UNL     1      29.906  44.689  55.483  1.00  0.00     0.048 C 
HETATM   24  C   UNL     1      28.615  42.814  54.423  1.00  0.00     0.009 A 
HETATM   25  C   UNL     1      27.651  42.305  53.546  1.00  0.00     0.032 A 
HETATM   26  N   UNL     1      25.950  43.065  51.848  1.00  0.00    -0.277 N 
HETATM   27  H   UNL     1      25.541  42.191  51.537  1.00  0.00     0.189 HD
HETATM   28  N   UNL     1      25.501  44.210  51.303  1.00  0.00    -0.168 NA
ENDBRANCH   1  18
TORSDOF 5
ENDMDL
MODEL 5
REMARK VINA RESULT:      -9.1      2.350      8.943
REMARK  5 active torsions:
REMARK  status: ('A' for Active; 'I' for Inactive)
REMARK    1  A    between atoms: C_9  and  C_10 
REMARK       I    between atoms: C_10  and  N_11 
REMARK    2  A    between atoms: N_11  and  C_12 
REMARK    3  A    between atoms: C_12  and  C_13 
REMARK    4  A    between atoms: C_16  and  O_17 
REMARK    5  A    between atoms: O_17  and  C_18 
ROOT
HETATM    1  C   UNL     1      25.751  43.774  51.800  1.00  0.00     0.273 C 
HETATM    2  N   UNL     1      26.057  44.313  50.570  1.00  0.00    -0.351 N 
HETATM    3  O   UNL     1      24.640  43.335  52.080  1.00  0.00    -0.266 OA
HETATM    4  H   UNL     1      26.986  44.722  50.488  1.00  0.00     0.163 HD
ENDROOT
BRANCH   2   5
HETATM    5  C   UNL     1      25.050  44.524  49.567  1.00  0.00     0.163 C 
BRANCH   5   6
HETATM    6  C   UNL     1      24.563  45.940  49.569  1.00  0.00    -0.023 A 
HETATM    7  C   UNL     1      25.345  46.967  50.087  1.00  0.00     0.128 A 
HETATM    8  N   UNL     1      24.979  48.269  50.103  1.00  0.00    -0.236 NA
HETATM    9  C   UNL     1      23.774  48.566  49.573  1.00  0.00     0.164 A 
HETATM   10  C   UNL     1      22.923  47.620  49.027  1.00  0.00     0.059 A 
HETATM   11  C   UNL     1      23.329  46.289  49.017  1.00  0.00     0.014 A 
BRANCH   9  12
HETATM   12  O   UNL     1      23.321  49.869  49.566  1.00  0.00    -0.329 OA
BRANCH  12  13
HETATM   13  C   UNL     1      21.918  50.008  49.372  1.00  0.00     0.130 C 
HETATM   14  C   UNL     1      21.354  50.886  50.488  1.00  0.00     0.032 C 
HETATM   15  C   UNL     1      20.017  51.336  49.928  1.00  0.00     0.002 C 
HETATM   16  C   UNL     1      20.286  51.574  48.446  1.00  0.00     0.002 C 
HETATM   17  C   UNL     1      21.564  50.803  48.112  1.00  0.00     0.032 C 
ENDBRANCH  12  13
ENDBRANCH   9  12
ENDBRANCH   5   6
ENDBRANCH   2   5
BRANCH   1  18
HETATM   18  C   UNL     1      26.882  43.799  52.741  1.00  0.00     0.157 A 
HETATM   19  C   UNL     1      27.251  44.856  53.623  1.00  0.00     0.029 A 
HETATM   20  C   UNL     1      26.757  46.140  53.934  1.00  0.00     0.023 A 
HETATM   21  C   UNL     1      28.386  44.399  54.282  1.00  0.00     0.063 A 
HETATM   22  C   UNL     1      27.417  46.922  54.897  1.00  0.00    -0.061 A 
HETATM   23  C   UNL     1      26.911  48.293  55.241  1.00  0.00     0.048 C 
HETATM   24  C   UNL     1      28.560  46.422  55.534  1.00  0.00     0.009 A 
HETATM   25  C   UNL     1      29.069  45.151  55.241  1.00  0.00     0.032 A 
HETATM   26  N   UNL     1      28.616  43.149  53.777  1.00  0.00    -0.277 N 
HETATM   27  H   UNL     1      29.366  42.516  54.030  1.00  0.00     0.189 HD
HETATM   28  N   UNL     1      27.733  42.753  52.843  1.00  0.00    -0.168 NA
ENDBRANCH   1  18
TORSDOF 5
ENDMDL
MODEL 6
REMARK VINA RESULT:      -9.0      3.607     10.651
REMARK  5 active torsions:
REMARK  status: ('A' for Active; 'I' for Inactive)
REMARK    1  A    between atoms: C_9  and  C_10 
REMARK       I    between atoms: C_10  and  N_11 
REMARK    2  A    between atoms: N_11  and  C_12 
REMARK    3  A    between atoms: C_12  and  C_13 
REMARK    4  A    between atoms: C_16  and  O_17 
REMARK    5  A    between atoms: O_17  and  C_18 
ROOT
HETATM    1  C   UNL     1      24.522  47.599  50.156  1.00  0.00     0.273 C 
HETATM    2  N   UNL     1      23.206  47.748  49.780  1.00  0.00    -0.351 N 
HETATM    3  O   UNL     1      25.405  48.386  49.829  1.00  0.00    -0.266 OA
HETATM    4  H   UNL     1      22.585  46.985  50.040  1.00  0.00     0.163 HD
ENDROOT
BRANCH   2   5
HETATM    5  C   UNL     1      22.796  48.771  48.857  1.00  0.00     0.163 C 
BRANCH   5   6
HETATM    6  C   UNL     1      21.477  49.364  49.245  1.00  0.00    -0.023 A 
HETATM    7  C   UNL     1      20.326  48.585  49.290  1.00  0.00     0.128 A 
HETATM    8  N   UNL     1      19.107  49.047  49.652  1.00  0.00    -0.236 NA
HETATM    9  C   UNL     1      19.029  50.351  49.988  1.00  0.00     0.164 A 
HETATM   10  C   UNL     1      20.115  51.211  49.982  1.00  0.00     0.059 A 
HETATM   11  C   UNL     1      21.359  50.705  49.614  1.00  0.00     0.014 A 
BRANCH   9  12
HETATM   12  O   UNL     1      17.819  50.903  50.352  1.00  0.00    -0.329 OA
BRANCH  12  13
HETATM   13  C   UNL     1      17.286  51.834  49.417  1.00  0.00     0.130 C 
HETATM   14  C   UNL     1      16.378  51.085  48.444  1.00  0.00     0.032 C 
HETATM   15  C   UNL     1      15.536  52.194  47.838  1.00  0.00     0.002 C 
HETATM   16  C   UNL     1      15.266  53.145  48.998  1.00  0.00     0.002 C 
HETATM   17  C   UNL     1      16.329  52.844  50.056  1.00  0.00     0.032 C 
ENDBRANCH  12  13
ENDBRANCH   9  12
ENDBRANCH   5   6
ENDBRANCH   2   5
BRANCH   1  18
HETATM   18  C   UNL     1      24.759  46.395  50.968  1.00  0.00     0.157 A 
HETATM   19  C   UNL     1      25.516  46.299  52.173  1.00  0.00     0.029 A 
HETATM   20  C   UNL     1      26.246  47.188  52.988  1.00  0.00     0.023 A 
HETATM   21  C   UNL     1      25.449  44.960  52.537  1.00  0.00     0.063 A 
HETATM   22  C   UNL     1      26.884  46.704  54.143  1.00  0.00    -0.061 A 
HETATM   23  C   UNL     1      27.670  47.631  55.024  1.00  0.00     0.048 C 
HETATM   24  C   UNL     1      26.793  45.345  54.471  1.00  0.00     0.009 A 
HETATM   25  C   UNL     1      26.074  44.445  53.676  1.00  0.00     0.032 A 
HETATM   26  N   UNL     1      24.688  44.362  51.571  1.00  0.00    -0.277 N 
HETATM   27  H   UNL     1      24.429  43.384  51.514  1.00  0.00     0.189 HD
HETATM   28  N   UNL     1      24.256  45.194  50.607  1.00  0.00    -0.168 NA
ENDBRANCH   1  18
TORSDOF 5
ENDMDL
MODEL 7
REMARK VINA RESULT:      -9.0      2.717      9.217
REMARK  5 active torsions:
REMARK  status: ('A' for Active; 'I' for Inactive)
REMARK    1  A    between atoms: C_9  and  C_10 
REMARK       I    between atoms: C_10  and  N_11 
REMARK    2  A    between atoms: N_11  and  C_12 
REMARK    3  A    between atoms: C_12  and  C_13 
REMARK    4  A    between atoms: C_16  and  O_17 
REMARK    5  A    between atoms: O_17  and  C_18 
ROOT
HETATM    1  C   UNL     1      26.891  43.030  50.860  1.00  0.00     0.273 C 
HETATM    2  N   UNL     1      25.682  43.188  51.500  1.00  0.00    -0.351 N 
HETATM    3  O   UNL     1      27.037  43.202  49.654  1.00  0.00    -0.266 OA
HETATM    4  H   UNL     1      25.669  42.933  52.484  1.00  0.00     0.163 HD
ENDROOT
BRANCH   2   5
HETATM    5  C   UNL     1      24.469  43.435  50.770  1.00  0.00     0.163 C 
BRANCH   5   6
HETATM    6  C   UNL     1      24.312  44.887  50.441  1.00  0.00    -0.023 A 
HETATM    7  C   UNL     1      23.546  45.299  49.355  1.00  0.00     0.128 A 
HETATM    8  N   UNL     1      23.344  46.592  49.012  1.00  0.00    -0.236 NA
HETATM    9  C   UNL     1      23.932  47.524  49.790  1.00  0.00     0.164 A 
HETATM   10  C   UNL     1      24.709  47.221  50.895  1.00  0.00     0.059 A 
HETATM   11  C   UNL     1      24.893  45.883  51.230  1.00  0.00     0.014 A 
BRANCH   9  12
HETATM   12  O   UNL     1      23.788  48.864  49.496  1.00  0.00    -0.329 OA
BRANCH  12  13
HETATM   13  C   UNL     1      22.446  49.280  49.267  1.00  0.00     0.130 C 
HETATM   14  C   UNL     1      22.290  50.720  49.752  1.00  0.00     0.032 C 
HETATM   15  C   UNL     1      21.029  51.185  49.046  1.00  0.00     0.002 C 
HETATM   16  C   UNL     1      21.112  50.552  47.661  1.00  0.00     0.002 C 
HETATM   17  C   UNL     1      22.100  49.390  47.780  1.00  0.00     0.032 C 
ENDBRANCH  12  13
ENDBRANCH   9  12
ENDBRANCH   5   6
ENDBRANCH   2   5
BRANCH   1  18
HETATM   18  C   UNL     1      27.975  42.617  51.765  1.00  0.00     0.157 A 
HETATM   19  C   UNL     1      28.463  43.317  52.908  1.00  0.00     0.029 A 
HETATM   20  C   UNL     1      28.153  44.523  53.569  1.00  0.00     0.023 A 
HETATM   21  C   UNL     1      29.490  42.525  53.406  1.00  0.00     0.063 A 
HETATM   22  C   UNL     1      28.884  44.894  54.711  1.00  0.00    -0.061 A 
HETATM   23  C   UNL     1      28.574  46.175  55.429  1.00  0.00     0.048 C 
HETATM   24  C   UNL     1      29.914  44.067  55.177  1.00  0.00     0.009 A 
HETATM   25  C   UNL     1      30.239  42.866  54.535  1.00  0.00     0.032 A 
HETATM   26  N   UNL     1      29.551  41.446  52.569  1.00  0.00    -0.277 N 
HETATM   27  H   UNL     1      30.188  40.659  52.630  1.00  0.00     0.189 HD
HETATM   28  N   UNL     1      28.656  41.467  51.565  1.00  0.00    -0.168 NA
ENDBRANCH   1  18
TORSDOF 5
ENDMDL
MODEL 8
REMARK VINA RESULT:      -8.7      4.224      8.123
REMARK  5 active torsions:
REMARK  status: ('A' for Active; 'I' for Inactive)
REMARK    1  A    between atoms: C_9  and  C_10 
REMARK       I    between atoms: C_10  and  N_11 
REMARK    2  A    between atoms: N_11  and  C_12 
REMARK    3  A    between atoms: C_12  and  C_13 
REMARK    4  A    between atoms: C_16  and  O_17 
REMARK    5  A    between atoms: O_17  and  C_18 
ROOT
HETATM    1  C   UNL     1      25.503  46.400  52.841  1.00  0.00     0.273 C 
HETATM    2  N   UNL     1      25.045  45.105  52.748  1.00  0.00    -0.351 N 
HETATM    3  O   UNL     1      25.215  47.272  52.027  1.00  0.00    -0.266 OA
HETATM    4  H   UNL     1      25.422  44.455  53.433  1.00  0.00     0.163 HD
ENDROOT
BRANCH   2   5
HETATM    5  C   UNL     1      24.303  44.648  51.605  1.00  0.00     0.163 C 
BRANCH   5   6
HETATM    6  C   UNL     1      25.154  43.818  50.694  1.00  0.00    -0.023 A 
HETATM    7  C   UNL     1      26.417  44.249  50.301  1.00  0.00     0.128 A 
HETATM    8  N   UNL     1      27.247  43.544  49.499  1.00  0.00    -0.236 NA
HETATM    9  C   UNL     1      26.800  42.346  49.068  1.00  0.00     0.164 A 
HETATM   10  C   UNL     1      25.563  41.823  49.405  1.00  0.00     0.059 A 
HETATM   11  C   UNL     1      24.733  42.567  50.239  1.00  0.00     0.014 A 
BRANCH   9  12
HETATM   12  O   UNL     1      27.581  41.574  48.234  1.00  0.00    -0.329 OA
BRANCH  12  13
HETATM   13  C   UNL     1      27.620  40.191  48.571  1.00  0.00     0.130 C 
HETATM   14  C   UNL     1      28.003  39.395  47.325  1.00  0.00     0.032 C 
HETATM   15  C   UNL     1      28.464  38.066  47.895  1.00  0.00     0.002 C 
HETATM   16  C   UNL     1      29.215  38.438  49.168  1.00  0.00     0.002 C 
HETATM   17  C   UNL     1      28.748  39.845  49.546  1.00  0.00     0.032 C 
ENDBRANCH  12  13
ENDBRANCH   9  12
ENDBRANCH   5   6
ENDBRANCH   2   5
BRANCH   1  18
HETATM   18  C   UNL     1      26.382  46.621  54.000  1.00  0.00     0.157 A 
HETATM   19  C   UNL     1      27.516  45.848  54.387  1.00  0.00     0.029 A 
HETATM   20  C   UNL     1      28.188  44.712  53.890  1.00  0.00     0.023 A 
HETATM   21  C   UNL     1      27.989  46.451  55.545  1.00  0.00     0.063 A 
HETATM   22  C   UNL     1      29.314  44.221  54.573  1.00  0.00    -0.061 A 
HETATM   23  C   UNL     1      30.044  43.010  54.065  1.00  0.00     0.048 C 
HETATM   24  C   UNL     1      29.755  44.859  55.739  1.00  0.00     0.009 A 
HETATM   25  C   UNL     1      29.102  45.987  56.250  1.00  0.00     0.032 A 
HETATM   26  N   UNL     1      27.147  47.505  55.771  1.00  0.00    -0.277 N 
HETATM   27  H   UNL     1      27.191  48.171  56.534  1.00  0.00     0.189 HD
HETATM   28  N   UNL     1      26.164  47.638  54.863  1.00  0.00    -0.168 NA
ENDBRANCH   1  18
TORSDOF 5
ENDMDL
MODEL 9
REMARK VINA RESULT:      -8.6      2.626      3.957
REMARK  5 active torsions:
REMARK  status: ('A' for Active; 'I' for Inactive)
REMARK    1  A    between atoms: C_9  and  C_10 
REMARK       I    between atoms: C_10  and  N_11 
REMARK    2  A    between atoms: N_11  and  C_12 
REMARK    3  A    between atoms: C_12  and  C_13 
REMARK    4  A    between atoms: C_16  and  O_17 
REMARK    5  A    between atoms: O_17  and  C_18 
ROOT
HETATM    1  C   UNL     1      22.357  48.113  48.506  1.00  0.00     0.273 C 
HETATM    2  N   UNL     1      23.041  47.510  49.537  1.00  0.00    -0.351 N 
HETATM    3  O   UNL     1      22.289  47.635  47.377  1.00  0.00    -0.266 OA
HETATM    4  H   UNL     1      23.098  48.045  50.400  1.00  0.00     0.163 HD
ENDROOT
BRANCH   2   5
HETATM    5  C   UNL     1      23.845  46.337  49.325  1.00  0.00     0.163 C 
BRANCH   5   6
HETATM    6  C   UNL     1      24.535  45.910  50.583  1.00  0.00    -0.023 A 
HETATM    7  C   UNL     1      25.142  46.842  51.420  1.00  0.00     0.128 A 
HETATM    8  N   UNL     1      25.765  46.532  52.580  1.00  0.00    -0.236 NA
HETATM    9  C   UNL     1      25.783  45.229  52.928  1.00  0.00     0.164 A 
HETATM   10  C   UNL     1      25.205  44.224  52.170  1.00  0.00     0.059 A 
HETATM   11  C   UNL     1      24.563  44.573  50.985  1.00  0.00     0.014 A 
BRANCH   9  12
HETATM   12  O   UNL     1      26.413  44.829  54.089  1.00  0.00    -0.329 OA
BRANCH  12  13
HETATM   13  C   UNL     1      27.799  44.542  53.942  1.00  0.00     0.130 C 
HETATM   14  C   UNL     1      28.541  45.073  55.168  1.00  0.00     0.032 C 
HETATM   15  C   UNL     1      29.856  44.318  55.126  1.00  0.00     0.002 C 
HETATM   16  C   UNL     1      29.477  42.916  54.661  1.00  0.00     0.002 C 
HETATM   17  C   UNL     1      28.108  43.044  53.990  1.00  0.00     0.032 C 
ENDBRANCH  12  13
ENDBRANCH   9  12
ENDBRANCH   5   6
ENDBRANCH   2   5
BRANCH   1  18
HETATM   18  C   UNL     1      21.737  49.391  48.891  1.00  0.00     0.157 A 
HETATM   19  C   UNL     1      20.661  50.062  48.240  1.00  0.00     0.029 A 
HETATM   20  C   UNL     1      19.842  49.820  47.118  1.00  0.00     0.023 A 
HETATM   21  C   UNL     1      20.460  51.223  48.976  1.00  0.00     0.063 A 
HETATM   22  C   UNL     1      18.848  50.751  46.773  1.00  0.00    -0.061 A 
HETATM   23  C   UNL     1      17.967  50.516  45.579  1.00  0.00     0.048 C 
HETATM   24  C   UNL     1      18.682  51.910  47.541  1.00  0.00     0.009 A 
HETATM   25  C   UNL     1      19.484  52.171  48.659  1.00  0.00     0.032 A 
HETATM   26  N   UNL     1      21.387  51.177  49.981  1.00  0.00    -0.277 N 
HETATM   27  H   UNL     1      21.531  51.864  50.713  1.00  0.00     0.189 HD
HETATM   28  N   UNL     1      22.177  50.090  49.961  1.00  0.00    -0.168 NA
ENDBRANCH   1  18
TORSDOF 5
ENDMDL
MODEL 10
REMARK VINA RESULT:      -8.4      3.773      8.905
REMARK  5 active torsions:
REMARK  status: ('A' for Active; 'I' for Inactive)
REMARK    1  A    between atoms: C_9  and  C_10 
REMARK       I    between atoms: C_10  and  N_11 
REMARK    2  A    between atoms: N_11  and  C_12 
REMARK    3  A    between atoms: C_12  and  C_13 
REMARK    4  A    between atoms: C_16  and  O_17 
REMARK    5  A    between atoms: O_17  and  C_18 
ROOT
HETATM    1  C   UNL     1      27.520  43.173  52.413  1.00  0.00     0.273 C 
HETATM    2  N   UNL     1      26.188  43.291  52.742  1.00  0.00    -0.351 N 
HETATM    3  O   UNL     1      28.335  44.075  52.588  1.00  0.00    -0.266 OA
HETATM    4  H   UNL     1      25.598  42.509  52.469  1.00  0.00     0.163 HD
ENDROOT
BRANCH   2   5
HETATM    5  C   UNL     1      25.629  44.537  53.190  1.00  0.00     0.163 C 
BRANCH   5   6
HETATM    6  C   UNL     1      25.110  45.349  52.044  1.00  0.00    -0.023 A 
HETATM    7  C   UNL     1      25.296  46.727  51.998  1.00  0.00     0.128 A 
HETATM    8  N   UNL     1      24.874  47.519  50.986  1.00  0.00    -0.236 NA
HETATM    9  C   UNL     1      24.236  46.910  49.966  1.00  0.00     0.164 A 
HETATM   10  C   UNL     1      24.004  45.546  49.912  1.00  0.00     0.059 A 
HETATM   11  C   UNL     1      24.457  44.754  50.962  1.00  0.00     0.014 A 
BRANCH   9  12
HETATM   12  O   UNL     1      23.760  47.651  48.904  1.00  0.00    -0.329 OA
BRANCH  12  13
HETATM   13  C   UNL     1      23.368  48.979  49.236  1.00  0.00     0.130 C 
HETATM   14  C   UNL     1      23.963  49.937  48.205  1.00  0.00     0.032 C 
HETATM   15  C   UNL     1      23.120  51.188  48.373  1.00  0.00     0.002 C 
HETATM   16  C   UNL     1      21.709  50.667  48.623  1.00  0.00     0.002 C 
HETATM   17  C   UNL     1      21.863  49.215  49.080  1.00  0.00     0.032 C 
ENDBRANCH  12  13
ENDBRANCH   9  12
ENDBRANCH   5   6
ENDBRANCH   2   5
BRANCH   1  18
HETATM   18  C   UNL     1      27.857  41.871  51.817  1.00  0.00     0.157 A 
HETATM   19  C   UNL     1      27.196  41.216  50.736  1.00  0.00     0.029 A 
HETATM   20  C   UNL     1      26.103  41.501  49.892  1.00  0.00     0.023 A 
HETATM   21  C   UNL     1      27.879  40.020  50.564  1.00  0.00     0.063 A 
HETATM   22  C   UNL     1      25.733  40.575  48.902  1.00  0.00    -0.061 A 
HETATM   23  C   UNL     1      24.570  40.855  47.994  1.00  0.00     0.048 C 
HETATM   24  C   UNL     1      26.449  39.378  48.766  1.00  0.00     0.009 A 
HETATM   25  C   UNL     1      27.536  39.075  49.594  1.00  0.00     0.032 A 
HETATM   26  N   UNL     1      28.866  40.030  51.511  1.00  0.00    -0.277 N 
HETATM   27  H   UNL     1      29.561  39.311  51.678  1.00  0.00     0.189 HD
HETATM   28  N   UNL     1      28.883  41.127  52.287  1.00  0.00    -0.168 NA
ENDBRANCH   1  18
TORSDOF 5
ENDMDL
