MODEL 1
REMARK VINA RESULT:      -8.3      0.000      0.000
REMARK  3 active torsions:
REMARK  status: ('A' for Active; 'I' for Inactive)
REMARK    1  A    between atoms: C_2  and  C_3 
REMARK    2  A    between atoms: C_10  and  O_11 
REMARK    3  A    between atoms: C_10  and  C_12 
ROOT
HETATM    1  C   UNL     1      32.831  50.502  42.750  1.00  0.00    -0.058 A 
HETATM    2  C   UNL     1      31.445  50.288  42.670  1.00  0.00     0.020 A 
HETATM    3  C   UNL     1      30.974  49.283  41.836  1.00  0.00     0.018 A 
HETATM    4  C   UNL     1      31.868  48.494  41.111  1.00  0.00     0.045 A 
HETATM    5  N   UNL     1      31.186  47.548  40.363  1.00  0.00    -0.323 N 
HETATM    6  C   UNL     1      29.805  47.655  40.540  1.00  0.00     0.266 A 
HETATM    7  O   UNL     1      28.988  46.917  40.008  1.00  0.00    -0.269 OA
HETATM    8  C   UNL     1      29.553  48.830  41.559  1.00  0.00     0.198 A 
HETATM    9  C   UNL     1      33.233  48.674  41.171  1.00  0.00     0.031 A 
HETATM   10  C   UNL     1      33.712  49.695  41.998  1.00  0.00     0.009 A 
HETATM   11  H   UNL     1      31.603  46.859  39.755  1.00  0.00     0.169 HD
ENDROOT
BRANCH   8  12
HETATM   12  O   UNL     1      28.949  48.369  42.759  1.00  0.00    -0.371 OA
HETATM   13  H   UNL     1      29.675  48.133  43.358  1.00  0.00     0.212 HD
ENDBRANCH   8  12
BRANCH   8  14
HETATM   14  C   UNL     1      28.858  50.014  40.929  1.00  0.00     0.018 A 
HETATM   15  C   UNL     1      29.278  50.757  39.766  1.00  0.00     0.002 A 
HETATM   16  C   UNL     1      28.317  51.736  39.515  1.00  0.00     0.043 A 
HETATM   17  C   UNL     1      30.386  50.680  38.894  1.00  0.00     0.014 A 
HETATM   18  C   UNL     1      28.403  52.633  38.442  1.00  0.00     0.030 A 
HETATM   19  N   UNL     1      27.356  51.620  40.489  1.00  0.00    -0.365 N 
HETATM   20  C   UNL     1      29.509  52.531  37.596  1.00  0.00     0.002 A 
HETATM   21  C   UNL     1      30.490  51.569  37.817  1.00  0.00     0.001 A 
HETATM   22  H   UNL     1      26.540  52.211  40.561  1.00  0.00     0.165 HD
HETATM   23  C   UNL     1      27.662  50.592  41.336  1.00  0.00     0.100 A 
ENDBRANCH   8  14
BRANCH   1  24
HETATM   24  C   UNL     1      33.370  51.622  43.606  1.00  0.00     0.034 C 
HETATM   25  C   UNL     1      32.428  51.954  44.754  1.00  0.00     0.010 C 
ENDBRANCH   1  24
TORSDOF 3
ENDMDL
MODEL 2
REMARK VINA RESULT:      -8.1     12.658     14.973
REMARK  3 active torsions:
REMARK  status: ('A' for Active; 'I' for Inactive)
REMARK    1  A    between atoms: C_2  and  C_3 
REMARK    2  A    between atoms: C_10  and  O_11 
REMARK    3  A    between atoms: C_10  and  C_12 
ROOT
HETATM    1  C   UNL     1      25.881  46.018  51.048  1.00  0.00    -0.058 A 
HETATM    2  C   UNL     1      27.079  45.657  51.685  1.00  0.00     0.020 A 
HETATM    3  C   UNL     1      27.197  44.376  52.206  1.00  0.00     0.018 A 
HETATM    4  C   UNL     1      26.147  43.466  52.080  1.00  0.00     0.045 A 
HETATM    5  N   UNL     1      26.484  42.251  52.653  1.00  0.00    -0.323 N 
HETATM    6  C   UNL     1      27.769  42.282  53.199  1.00  0.00     0.266 A 
HETATM    7  O   UNL     1      28.307  41.326  53.739  1.00  0.00    -0.269 OA
HETATM    8  C   UNL     1      28.357  43.720  52.930  1.00  0.00     0.198 A 
HETATM    9  C   UNL     1      24.959  43.786  51.457  1.00  0.00     0.031 A 
HETATM   10  C   UNL     1      24.830  45.080  50.943  1.00  0.00     0.009 A 
HETATM   11  H   UNL     1      25.898  41.431  52.693  1.00  0.00     0.169 HD
ENDROOT
BRANCH   8  12
HETATM   12  O   UNL     1      29.495  43.675  52.080  1.00  0.00    -0.371 OA
HETATM   13  H   UNL     1      30.233  43.365  52.627  1.00  0.00     0.212 HD
ENDBRANCH   8  12
BRANCH   8  14
HETATM   14  C   UNL     1      28.559  44.517  54.196  1.00  0.00     0.018 A 
HETATM   15  C   UNL     1      29.553  44.294  55.219  1.00  0.00     0.002 A 
HETATM   16  C   UNL     1      29.402  45.292  56.183  1.00  0.00     0.043 A 
HETATM   17  C   UNL     1      30.576  43.341  55.410  1.00  0.00     0.014 A 
HETATM   18  C   UNL     1      30.219  45.386  57.318  1.00  0.00     0.030 A 
HETATM   19  N   UNL     1      28.352  46.082  55.788  1.00  0.00    -0.365 N 
HETATM   20  C   UNL     1      31.224  44.429  57.477  1.00  0.00     0.002 A 
HETATM   21  C   UNL     1      31.401  43.418  56.539  1.00  0.00     0.001 A 
HETATM   22  H   UNL     1      28.012  46.881  56.305  1.00  0.00     0.165 HD
HETATM   23  C   UNL     1      27.844  45.636  54.600  1.00  0.00     0.100 A 
ENDBRANCH   8  14
BRANCH   1  24
HETATM   24  C   UNL     1      25.702  47.420  50.519  1.00  0.00     0.034 C 
HETATM   25  C   UNL     1      26.821  47.804  49.562  1.00  0.00     0.010 C 
ENDBRANCH   1  24
TORSDOF 3
ENDMDL
MODEL 3
REMARK VINA RESULT:      -7.9     12.751     14.204
REMARK  3 active torsions:
REMARK  status: ('A' for Active; 'I' for Inactive)
REMARK    1  A    between atoms: C_2  and  C_3 
REMARK    2  A    between atoms: C_10  and  O_11 
REMARK    3  A    between atoms: C_10  and  C_12 
ROOT
HETATM    1  C   UNL     1      28.501  44.337  54.444  1.00  0.00    -0.058 A 
HETATM    2  C   UNL     1      28.562  43.847  53.130  1.00  0.00     0.020 A 
HETATM    3  C   UNL     1      27.375  43.541  52.478  1.00  0.00     0.018 A 
HETATM    4  C   UNL     1      26.150  43.738  53.116  1.00  0.00     0.045 A 
HETATM    5  N   UNL     1      25.103  43.385  52.280  1.00  0.00    -0.323 N 
HETATM    6  C   UNL     1      25.567  42.929  51.045  1.00  0.00     0.266 A 
HETATM    7  O   UNL     1      24.838  42.582  50.126  1.00  0.00    -0.269 OA
HETATM    8  C   UNL     1      27.141  43.009  51.077  1.00  0.00     0.198 A 
HETATM    9  C   UNL     1      26.055  44.222  54.404  1.00  0.00     0.031 A 
HETATM   10  C   UNL     1      27.248  44.518  55.071  1.00  0.00     0.009 A 
HETATM   11  H   UNL     1      24.121  43.435  52.506  1.00  0.00     0.169 HD
ENDROOT
BRANCH   8  12
HETATM   12  O   UNL     1      27.643  43.929  50.119  1.00  0.00    -0.371 OA
HETATM   13  H   UNL     1      27.025  43.911  49.371  1.00  0.00     0.212 HD
ENDBRANCH   8  12
BRANCH   8  14
HETATM   14  C   UNL     1      27.798  41.650  51.035  1.00  0.00     0.018 A 
HETATM   15  C   UNL     1      27.984  40.804  49.881  1.00  0.00     0.002 A 
HETATM   16  C   UNL     1      28.674  39.664  50.295  1.00  0.00     0.043 A 
HETATM   17  C   UNL     1      27.639  40.909  48.516  1.00  0.00     0.014 A 
HETATM   18  C   UNL     1      29.037  38.632  49.419  1.00  0.00     0.030 A 
HETATM   19  N   UNL     1      28.885  39.786  51.645  1.00  0.00    -0.365 N 
HETATM   20  C   UNL     1      28.683  38.766  48.074  1.00  0.00     0.002 A 
HETATM   21  C   UNL     1      27.992  39.887  47.626  1.00  0.00     0.001 A 
HETATM   22  H   UNL     1      29.357  39.097  52.214  1.00  0.00     0.165 HD
HETATM   23  C   UNL     1      28.374  40.969  52.100  1.00  0.00     0.100 A 
ENDBRANCH   8  14
BRANCH   1  24
HETATM   24  C   UNL     1      29.775  44.628  55.199  1.00  0.00     0.034 C 
HETATM   25  C   UNL     1      30.643  43.385  55.333  1.00  0.00     0.010 C 
ENDBRANCH   1  24
TORSDOF 3
ENDMDL
MODEL 4
REMARK VINA RESULT:      -7.7     12.102     13.488
REMARK  3 active torsions:
REMARK  status: ('A' for Active; 'I' for Inactive)
REMARK    1  A    between atoms: C_2  and  C_3 
REMARK    2  A    between atoms: C_10  and  O_11 
REMARK    3  A    between atoms: C_10  and  C_12 
ROOT
HETATM    1  C   UNL     1      28.339  45.382  55.490  1.00  0.00    -0.058 A 
HETATM    2  C   UNL     1      27.151  45.273  54.748  1.00  0.00     0.020 A 
HETATM    3  C   UNL     1      27.098  44.355  53.708  1.00  0.00     0.018 A 
HETATM    4  C   UNL     1      28.201  43.549  53.423  1.00  0.00     0.045 A 
HETATM    5  N   UNL     1      27.924  42.701  52.364  1.00  0.00    -0.323 N 
HETATM    6  C   UNL     1      26.629  42.896  51.878  1.00  0.00     0.266 A 
HETATM    7  O   UNL     1      26.138  42.251  50.963  1.00  0.00    -0.269 OA
HETATM    8  C   UNL     1      25.965  44.023  52.756  1.00  0.00     0.198 A 
HETATM    9  C   UNL     1      29.380  43.628  54.134  1.00  0.00     0.031 A 
HETATM   10  C   UNL     1      29.444  44.561  55.174  1.00  0.00     0.009 A 
HETATM   11  H   UNL     1      28.556  42.021  51.967  1.00  0.00     0.169 HD
ENDROOT
BRANCH   8  12
HETATM   12  O   UNL     1      24.848  43.536  53.486  1.00  0.00    -0.371 OA
HETATM   13  H   UNL     1      25.195  43.204  54.329  1.00  0.00     0.212 HD
ENDBRANCH   8  12
BRANCH   8  14
HETATM   14  C   UNL     1      25.693  45.289  51.978  1.00  0.00     0.018 A 
HETATM   15  C   UNL     1      24.738  45.470  50.912  1.00  0.00     0.002 A 
HETATM   16  C   UNL     1      24.794  46.807  50.513  1.00  0.00     0.043 A 
HETATM   17  C   UNL     1      23.821  44.623  50.254  1.00  0.00     0.014 A 
HETATM   18  C   UNL     1      23.982  47.335  49.500  1.00  0.00     0.030 A 
HETATM   19  N   UNL     1      25.753  47.419  51.281  1.00  0.00    -0.365 N 
HETATM   20  C   UNL     1      23.083  46.472  48.870  1.00  0.00     0.002 A 
HETATM   21  C   UNL     1      23.003  45.132  49.238  1.00  0.00     0.001 A 
HETATM   22  H   UNL     1      26.013  48.392  51.201  1.00  0.00     0.165 HD
HETATM   23  C   UNL     1      26.293  46.527  52.165  1.00  0.00     0.100 A 
ENDBRANCH   8  14
BRANCH   1  24
HETATM   24  C   UNL     1      28.446  46.408  56.592  1.00  0.00     0.034 C 
HETATM   25  C   UNL     1      29.388  45.948  57.695  1.00  0.00     0.010 C 
ENDBRANCH   1  24
TORSDOF 3
ENDMDL
MODEL 5
REMARK VINA RESULT:      -7.5      2.404      4.154
REMARK  3 active torsions:
REMARK  status: ('A' for Active; 'I' for Inactive)
REMARK    1  A    between atoms: C_2  and  C_3 
REMARK    2  A    between atoms: C_10  and  O_11 
REMARK    3  A    between atoms: C_10  and  C_12 
ROOT
HETATM    1  C   UNL     1      30.800  52.432  40.397  1.00  0.00    -0.058 A 
HETATM    2  C   UNL     1      30.376  51.139  40.745  1.00  0.00     0.020 A 
HETATM    3  C   UNL     1      31.328  50.136  40.863  1.00  0.00     0.018 A 
HETATM    4  C   UNL     1      32.678  50.419  40.656  1.00  0.00     0.045 A 
HETATM    5  N   UNL     1      33.448  49.282  40.840  1.00  0.00    -0.323 N 
HETATM    6  C   UNL     1      32.659  48.179  41.172  1.00  0.00     0.266 A 
HETATM    7  O   UNL     1      33.105  47.065  41.410  1.00  0.00    -0.269 OA
HETATM    8  C   UNL     1      31.163  48.672  41.224  1.00  0.00     0.198 A 
HETATM    9  C   UNL     1      33.128  51.677  40.318  1.00  0.00     0.031 A 
HETATM   10  C   UNL     1      32.172  52.689  40.184  1.00  0.00     0.009 A 
HETATM   11  H   UNL     1      34.451  49.224  40.750  1.00  0.00     0.169 HD
ENDROOT
BRANCH   8  12
HETATM   12  O   UNL     1      30.612  48.555  42.528  1.00  0.00    -0.371 OA
HETATM   13  H   UNL     1      30.044  47.768  42.517  1.00  0.00     0.212 HD
ENDBRANCH   8  12
BRANCH   8  14
HETATM   14  C   UNL     1      30.309  48.070  40.134  1.00  0.00     0.018 A 
HETATM   15  C   UNL     1      28.870  47.967  40.108  1.00  0.00     0.002 A 
HETATM   16  C   UNL     1      28.506  47.383  38.894  1.00  0.00     0.043 A 
HETATM   17  C   UNL     1      27.839  48.327  41.003  1.00  0.00     0.014 A 
HETATM   18  C   UNL     1      27.173  47.146  38.530  1.00  0.00     0.030 A 
HETATM   19  N   UNL     1      29.665  47.117  38.209  1.00  0.00    -0.365 N 
HETATM   20  C   UNL     1      26.176  47.516  39.436  1.00  0.00     0.002 A 
HETATM   21  C   UNL     1      26.502  48.097  40.657  1.00  0.00     0.001 A 
HETATM   22  H   UNL     1      29.703  46.683  37.298  1.00  0.00     0.165 HD
HETATM   23  C   UNL     1      30.749  47.528  38.934  1.00  0.00     0.100 A 
ENDBRANCH   8  14
BRANCH   1  24
HETATM   24  C   UNL     1      29.784  53.532  40.209  1.00  0.00     0.034 C 
HETATM   25  C   UNL     1      28.843  53.234  39.050  1.00  0.00     0.010 C 
ENDBRANCH   1  24
TORSDOF 3
ENDMDL
MODEL 6
REMARK VINA RESULT:      -7.5     12.319     14.602
REMARK  3 active torsions:
REMARK  status: ('A' for Active; 'I' for Inactive)
REMARK    1  A    between atoms: C_2  and  C_3 
REMARK    2  A    between atoms: C_10  and  O_11 
REMARK    3  A    between atoms: C_10  and  C_12 
ROOT
HETATM    1  C   UNL     1      23.828  43.770  50.154  1.00  0.00    -0.058 A 
HETATM    2  C   UNL     1      24.565  43.733  51.349  1.00  0.00     0.020 A 
HETATM    3  C   UNL     1      25.127  44.912  51.821  1.00  0.00     0.018 A 
HETATM    4  C   UNL     1      24.942  46.107  51.125  1.00  0.00     0.045 A 
HETATM    5  N   UNL     1      25.571  47.154  51.780  1.00  0.00    -0.323 N 
HETATM    6  C   UNL     1      26.214  46.718  52.941  1.00  0.00     0.266 A 
HETATM    7  O   UNL     1      26.817  47.456  53.706  1.00  0.00    -0.269 OA
HETATM    8  C   UNL     1      25.955  45.169  53.066  1.00  0.00     0.198 A 
HETATM    9  C   UNL     1      24.221  46.179  49.953  1.00  0.00     0.031 A 
HETATM   10  C   UNL     1      23.665  44.992  49.465  1.00  0.00     0.009 A 
HETATM   11  H   UNL     1      25.585  48.117  51.481  1.00  0.00     0.169 HD
ENDROOT
BRANCH   8  12
HETATM   12  O   UNL     1      25.197  44.851  54.225  1.00  0.00    -0.371 OA
HETATM   13  H   UNL     1      24.730  44.023  54.029  1.00  0.00     0.212 HD
ENDBRANCH   8  12
BRANCH   8  14
HETATM   14  C   UNL     1      27.212  44.349  52.902  1.00  0.00     0.018 A 
HETATM   15  C   UNL     1      28.318  44.253  53.825  1.00  0.00     0.002 A 
HETATM   16  C   UNL     1      29.240  43.352  53.291  1.00  0.00     0.043 A 
HETATM   17  C   UNL     1      28.616  44.841  55.073  1.00  0.00     0.014 A 
HETATM   18  C   UNL     1      30.435  43.009  53.939  1.00  0.00     0.030 A 
HETATM   19  N   UNL     1      28.741  42.927  52.085  1.00  0.00    -0.365 N 
HETATM   20  C   UNL     1      30.700  43.606  55.174  1.00  0.00     0.002 A 
HETATM   21  C   UNL     1      29.805  44.512  55.734  1.00  0.00     0.001 A 
HETATM   22  H   UNL     1      29.207  42.274  51.472  1.00  0.00     0.165 HD
HETATM   23  C   UNL     1      27.528  43.508  51.843  1.00  0.00     0.100 A 
ENDBRANCH   8  14
BRANCH   1  24
HETATM   24  C   UNL     1      23.251  42.495  49.587  1.00  0.00     0.034 C 
HETATM   25  C   UNL     1      23.320  42.477  48.067  1.00  0.00     0.010 C 
ENDBRANCH   1  24
TORSDOF 3
ENDMDL
MODEL 7
REMARK VINA RESULT:      -7.5      2.361      4.401
REMARK  3 active torsions:
REMARK  status: ('A' for Active; 'I' for Inactive)
REMARK    1  A    between atoms: C_2  and  C_3 
REMARK    2  A    between atoms: C_10  and  O_11 
REMARK    3  A    between atoms: C_10  and  C_12 
ROOT
HETATM    1  C   UNL     1      31.255  51.125  42.312  1.00  0.00    -0.058 A 
HETATM    2  C   UNL     1      30.754  50.234  41.349  1.00  0.00     0.020 A 
HETATM    3  C   UNL     1      29.805  50.694  40.446  1.00  0.00     0.018 A 
HETATM    4  C   UNL     1      29.377  52.022  40.490  1.00  0.00     0.045 A 
HETATM    5  N   UNL     1      28.447  52.266  39.494  1.00  0.00    -0.323 N 
HETATM    6  C   UNL     1      28.196  51.121  38.735  1.00  0.00     0.266 A 
HETATM    7  O   UNL     1      27.432  51.086  37.781  1.00  0.00    -0.269 OA
HETATM    8  C   UNL     1      29.104  49.970  39.313  1.00  0.00     0.198 A 
HETATM    9  C   UNL     1      29.852  52.923  41.419  1.00  0.00     0.031 A 
HETATM   10  C   UNL     1      30.797  52.461  42.340  1.00  0.00     0.009 A 
HETATM   11  H   UNL     1      27.987  53.147  39.315  1.00  0.00     0.169 HD
ENDROOT
BRANCH   8  12
HETATM   12  O   UNL     1      30.058  49.520  38.362  1.00  0.00    -0.371 OA
HETATM   13  H   UNL     1      30.847  50.072  38.483  1.00  0.00     0.212 HD
ENDBRANCH   8  12
BRANCH   8  14
HETATM   14  C   UNL     1      28.306  48.863  39.961  1.00  0.00     0.018 A 
HETATM   15  C   UNL     1      28.462  47.443  39.763  1.00  0.00     0.002 A 
HETATM   16  C   UNL     1      27.546  46.794  40.592  1.00  0.00     0.043 A 
HETATM   17  C   UNL     1      29.306  46.645  38.961  1.00  0.00     0.014 A 
HETATM   18  C   UNL     1      27.436  45.398  40.663  1.00  0.00     0.030 A 
HETATM   19  N   UNL     1      26.841  47.766  41.257  1.00  0.00    -0.365 N 
HETATM   20  C   UNL     1      28.287  44.637  39.859  1.00  0.00     0.002 A 
HETATM   21  C   UNL     1      29.209  45.249  39.016  1.00  0.00     0.001 A 
HETATM   22  H   UNL     1      26.102  47.583  41.921  1.00  0.00     0.165 HD
HETATM   23  C   UNL     1      27.289  49.006  40.896  1.00  0.00     0.100 A 
ENDBRANCH   8  14
BRANCH   1  24
HETATM   24  C   UNL     1      32.247  50.641  43.341  1.00  0.00     0.034 C 
HETATM   25  C   UNL     1      32.595  51.734  44.341  1.00  0.00     0.010 C 
ENDBRANCH   1  24
TORSDOF 3
ENDMDL
MODEL 8
REMARK VINA RESULT:      -7.5     10.263     11.537
REMARK  3 active torsions:
REMARK  status: ('A' for Active; 'I' for Inactive)
REMARK    1  A    between atoms: C_2  and  C_3 
REMARK    2  A    between atoms: C_10  and  O_11 
REMARK    3  A    between atoms: C_10  and  C_12 
ROOT
HETATM    1  C   UNL     1      26.696  45.451  53.312  1.00  0.00    -0.058 A 
HETATM    2  C   UNL     1      25.564  45.715  52.524  1.00  0.00     0.020 A 
HETATM    3  C   UNL     1      25.448  45.083  51.293  1.00  0.00     0.018 A 
HETATM    4  C   UNL     1      26.433  44.192  50.864  1.00  0.00     0.045 A 
HETATM    5  N   UNL     1      26.108  43.669  49.623  1.00  0.00    -0.323 N 
HETATM    6  C   UNL     1      24.898  44.183  49.152  1.00  0.00     0.266 A 
HETATM    7  O   UNL     1      24.383  43.857  48.092  1.00  0.00    -0.269 OA
HETATM    8  C   UNL     1      24.351  45.173  50.250  1.00  0.00     0.198 A 
HETATM    9  C   UNL     1      27.553  43.908  51.615  1.00  0.00     0.031 A 
HETATM   10  C   UNL     1      27.682  44.552  52.849  1.00  0.00     0.009 A 
HETATM   11  H   UNL     1      26.655  43.003  49.098  1.00  0.00     0.169 HD
ENDROOT
BRANCH   8  12
HETATM   12  O   UNL     1      23.121  44.723  50.801  1.00  0.00    -0.371 OA
HETATM   13  H   UNL     1      22.880  45.362  51.491  1.00  0.00     0.212 HD
ENDBRANCH   8  12
BRANCH   8  14
HETATM   14  C   UNL     1      24.335  46.610  49.788  1.00  0.00     0.018 A 
HETATM   15  C   UNL     1      25.474  47.452  49.512  1.00  0.00     0.002 A 
HETATM   16  C   UNL     1      24.995  48.686  49.071  1.00  0.00     0.043 A 
HETATM   17  C   UNL     1      26.873  47.275  49.587  1.00  0.00     0.014 A 
HETATM   18  C   UNL     1      25.838  49.743  48.700  1.00  0.00     0.030 A 
HETATM   19  N   UNL     1      23.624  48.620  49.093  1.00  0.00    -0.365 N 
HETATM   20  C   UNL     1      27.216  49.535  48.782  1.00  0.00     0.002 A 
HETATM   21  C   UNL     1      27.730  48.320  49.222  1.00  0.00     0.001 A 
HETATM   22  H   UNL     1      23.012  49.379  48.831  1.00  0.00     0.165 HD
HETATM   23  C   UNL     1      23.216  47.385  49.512  1.00  0.00     0.100 A 
ENDBRANCH   8  14
BRANCH   1  24
HETATM   24  C   UNL     1      26.877  46.163  54.631  1.00  0.00     0.034 C 
HETATM   25  C   UNL     1      27.250  47.625  54.431  1.00  0.00     0.010 C 
ENDBRANCH   1  24
TORSDOF 3
ENDMDL
MODEL 9
REMARK VINA RESULT:      -7.4      2.269      4.470
REMARK  3 active torsions:
REMARK  status: ('A' for Active; 'I' for Inactive)
REMARK    1  A    between atoms: C_2  and  C_3 
REMARK    2  A    between atoms: C_10  and  O_11 
REMARK    3  A    between atoms: C_10  and  C_12 
ROOT
HETATM    1  C   UNL     1      31.598  51.461  42.240  1.00  0.00    -0.058 A 
HETATM    2  C   UNL     1      31.470  50.715  41.057  1.00  0.00     0.020 A 
HETATM    3  C   UNL     1      30.352  50.919  40.259  1.00  0.00     0.018 A 
HETATM    4  C   UNL     1      29.390  51.861  40.625  1.00  0.00     0.045 A 
HETATM    5  N   UNL     1      28.376  51.911  39.682  1.00  0.00    -0.323 N 
HETATM    6  C   UNL     1      28.598  51.005  38.643  1.00  0.00     0.266 A 
HETATM    7  O   UNL     1      27.859  50.878  37.677  1.00  0.00    -0.269 OA
HETATM    8  C   UNL     1      29.959  50.270  38.946  1.00  0.00     0.198 A 
HETATM    9  C   UNL     1      29.488  52.612  41.776  1.00  0.00     0.031 A 
HETATM   10  C   UNL     1      30.604  52.401  42.590  1.00  0.00     0.009 A 
HETATM   11  H   UNL     1      27.565  52.510  39.715  1.00  0.00     0.169 HD
ENDROOT
BRANCH   8  12
HETATM   12  O   UNL     1      30.940  50.545  37.957  1.00  0.00    -0.371 OA
HETATM   13  H   UNL     1      31.524  51.224  38.332  1.00  0.00     0.212 HD
ENDBRANCH   8  12
BRANCH   8  14
HETATM   14  C   UNL     1      29.777  48.801  39.248  1.00  0.00     0.018 A 
HETATM   15  C   UNL     1      28.630  48.170  39.854  1.00  0.00     0.002 A 
HETATM   16  C   UNL     1      28.876  46.797  39.903  1.00  0.00     0.043 A 
HETATM   17  C   UNL     1      27.397  48.638  40.357  1.00  0.00     0.014 A 
HETATM   18  C   UNL     1      27.956  45.875  40.421  1.00  0.00     0.030 A 
HETATM   19  N   UNL     1      30.125  46.590  39.372  1.00  0.00    -0.365 N 
HETATM   20  C   UNL     1      26.744  46.369  40.909  1.00  0.00     0.002 A 
HETATM   21  C   UNL     1      26.467  47.732  40.881  1.00  0.00     0.001 A 
HETATM   22  H   UNL     1      30.567  45.685  39.289  1.00  0.00     0.165 HD
HETATM   23  C   UNL     1      30.672  47.776  38.971  1.00  0.00     0.100 A 
ENDBRANCH   8  14
BRANCH   1  24
HETATM   24  C   UNL     1      32.775  51.223  43.155  1.00  0.00     0.034 C 
HETATM   25  C   UNL     1      32.552  51.844  44.526  1.00  0.00     0.010 C 
ENDBRANCH   1  24
TORSDOF 3
ENDMDL
MODEL 10
REMARK VINA RESULT:      -7.4     12.020     13.290
REMARK  3 active torsions:
REMARK  status: ('A' for Active; 'I' for Inactive)
REMARK    1  A    between atoms: C_2  and  C_3 
REMARK    2  A    between atoms: C_10  and  O_11 
REMARK    3  A    between atoms: C_10  and  C_12 
ROOT
HETATM    1  C   UNL     1      28.199  43.973  53.689  1.00  0.00    -0.058 A 
HETATM    2  C   UNL     1      27.689  44.151  52.393  1.00  0.00     0.020 A 
HETATM    3  C   UNL     1      26.809  45.200  52.162  1.00  0.00     0.018 A 
HETATM    4  C   UNL     1      26.458  46.065  53.200  1.00  0.00     0.045 A 
HETATM    5  N   UNL     1      25.587  47.042  52.745  1.00  0.00    -0.323 N 
HETATM    6  C   UNL     1      25.303  46.881  51.387  1.00  0.00     0.266 A 
HETATM    7  O   UNL     1      24.580  47.631  50.747  1.00  0.00    -0.269 OA
HETATM    8  C   UNL     1      26.116  45.629  50.883  1.00  0.00     0.198 A 
HETATM    9  C   UNL     1      26.944  45.921  54.482  1.00  0.00     0.031 A 
HETATM   10  C   UNL     1      27.820  44.858  54.723  1.00  0.00     0.009 A 
HETATM   11  H   UNL     1      25.188  47.784  53.299  1.00  0.00     0.169 HD
ENDROOT
BRANCH   8  12
HETATM   12  O   UNL     1      27.082  45.984  49.905  1.00  0.00    -0.371 OA
HETATM   13  H   UNL     1      27.186  46.947  49.960  1.00  0.00     0.212 HD
ENDBRANCH   8  12
BRANCH   8  14
HETATM   14  C   UNL     1      25.227  44.474  50.487  1.00  0.00     0.018 A 
HETATM   15  C   UNL     1      25.612  43.281  49.772  1.00  0.00     0.002 A 
HETATM   16  C   UNL     1      24.484  42.468  49.661  1.00  0.00     0.043 A 
HETATM   17  C   UNL     1      26.822  42.811  49.216  1.00  0.00     0.014 A 
HETATM   18  C   UNL     1      24.504  41.216  49.031  1.00  0.00     0.030 A 
HETATM   19  N   UNL     1      23.444  43.134  50.260  1.00  0.00    -0.365 N 
HETATM   20  C   UNL     1      25.717  40.778  48.494  1.00  0.00     0.002 A 
HETATM   21  C   UNL     1      26.861  41.564  48.581  1.00  0.00     0.001 A 
HETATM   22  H   UNL     1      22.499  42.782  50.320  1.00  0.00     0.165 HD
HETATM   23  C   UNL     1      23.874  44.329  50.764  1.00  0.00     0.100 A 
ENDBRANCH   8  14
BRANCH   1  24
HETATM   24  C   UNL     1      29.116  42.811  53.984  1.00  0.00     0.034 C 
HETATM   25  C   UNL     1      30.224  43.202  54.951  1.00  0.00     0.010 C 
ENDBRANCH   1  24
TORSDOF 3
ENDMDL
