MODEL 1
REMARK VINA RESULT:      -9.6      0.000      0.000
REMARK  5 active torsions:
REMARK  status: ('A' for Active; 'I' for Inactive)
REMARK    1  A    between atoms: C_7  and  C_8 
REMARK    2  A    between atoms: C_11  and  N_12 
REMARK       I    between atoms: N_12  and  C_13 
REMARK    3  A    between atoms: C_13  and  C_14 
REMARK    4  A    between atoms: C_16  and  O_17 
REMARK    5  A    between atoms: C_20  and  O_21 
ROOT
HETATM    1  C   UNL     1      26.877  45.531  52.854  1.00  0.00     0.017 A 
HETATM    2  C   UNL     1      26.523  44.752  51.746  1.00  0.00     0.018 A 
HETATM    3  C   UNL     1      25.532  45.177  50.851  1.00  0.00     0.030 A 
HETATM    4  C   UNL     1      24.879  46.395  51.042  1.00  0.00     0.035 A 
HETATM    5  C   UNL     1      25.194  47.155  52.173  1.00  0.00     0.030 A 
HETATM    6  C   UNL     1      26.181  46.729  53.069  1.00  0.00     0.018 A 
ENDROOT
BRANCH   4   7
HETATM    7  N   UNL     1      23.946  46.944  50.138  1.00  0.00    -0.323 N 
HETATM    8  C   UNL     1      24.046  48.147  49.464  1.00  0.00     0.256 C 
HETATM    9  O   UNL     1      25.002  48.912  49.448  1.00  0.00    -0.267 OA
HETATM   10  H   UNL     1      23.057  46.463  50.091  1.00  0.00     0.169 HD
BRANCH   8  11
HETATM   11  C   UNL     1      22.809  48.551  48.744  1.00  0.00     0.037 A 
HETATM   12  C   UNL     1      22.402  49.885  48.843  1.00  0.00     0.054 A 
HETATM   13  C   UNL     1      21.217  50.306  48.242  1.00  0.00     0.071 A 
HETATM   14  C   UNL     1      20.456  49.385  47.521  1.00  0.00     0.073 A 
HETATM   15  C   UNL     1      20.870  48.052  47.395  1.00  0.00     0.071 A 
HETATM   16  C   UNL     1      22.052  47.632  48.006  1.00  0.00     0.054 A 
BRANCH  13  17
HETATM   17  O   UNL     1      20.915  51.625  48.437  1.00  0.00    -0.356 OA
HETATM   18  C   UNL     1      19.557  51.941  48.718  1.00  0.00     0.210 C 
ENDBRANCH  13  17
BRANCH  15  19
HETATM   19  O   UNL     1      20.028  47.267  46.655  1.00  0.00    -0.356 OA
HETATM   20  C   UNL     1      18.721  47.767  46.403  1.00  0.00     0.210 C 
ENDBRANCH  15  19
ENDBRANCH   8  11
ENDBRANCH   4   7
BRANCH   1  21
HETATM   21  C   UNL     1      27.970  45.162  53.749  1.00  0.00     0.180 A 
HETATM   22  O   UNL     1      28.207  45.998  54.812  1.00  0.00    -0.289 OA
HETATM   23  C   UNL     1      29.186  45.366  55.519  1.00  0.00     0.106 A 
HETATM   24  C   UNL     1      29.503  44.197  54.849  1.00  0.00     0.094 A 
HETATM   25  C   UNL     1      29.768  45.781  56.707  1.00  0.00     0.040 A 
HETATM   26  C   UNL     1      30.481  43.350  55.389  1.00  0.00     0.041 A 
HETATM   27  N   UNL     1      28.734  44.082  53.720  1.00  0.00    -0.221 NA
HETATM   28  C   UNL     1      31.099  43.720  56.599  1.00  0.00    -0.060 A 
HETATM   29  C   UNL     1      32.132  42.828  57.227  1.00  0.00     0.048 C 
HETATM   30  C   UNL     1      30.739  44.922  57.240  1.00  0.00     0.009 A 
ENDBRANCH   1  21
TORSDOF 5
ENDMDL
MODEL 2
REMARK VINA RESULT:      -9.5      0.496      2.147
REMARK  5 active torsions:
REMARK  status: ('A' for Active; 'I' for Inactive)
REMARK    1  A    between atoms: C_7  and  C_8 
REMARK    2  A    between atoms: C_11  and  N_12 
REMARK       I    between atoms: N_12  and  C_13 
REMARK    3  A    between atoms: C_13  and  C_14 
REMARK    4  A    between atoms: C_16  and  O_17 
REMARK    5  A    between atoms: C_20  and  O_21 
ROOT
HETATM    1  C   UNL     1      26.880  45.580  52.932  1.00  0.00     0.017 A 
HETATM    2  C   UNL     1      26.584  44.889  51.751  1.00  0.00     0.018 A 
HETATM    3  C   UNL     1      25.581  45.340  50.882  1.00  0.00     0.030 A 
HETATM    4  C   UNL     1      24.858  46.497  51.174  1.00  0.00     0.035 A 
HETATM    5  C   UNL     1      25.115  47.164  52.376  1.00  0.00     0.030 A 
HETATM    6  C   UNL     1      26.114  46.712  53.245  1.00  0.00     0.018 A 
ENDROOT
BRANCH   4   7
HETATM    7  N   UNL     1      23.905  47.074  50.308  1.00  0.00    -0.323 N 
HETATM    8  C   UNL     1      24.049  48.230  49.562  1.00  0.00     0.256 C 
HETATM    9  O   UNL     1      25.058  48.912  49.437  1.00  0.00    -0.267 OA
HETATM   10  H   UNL     1      22.981  46.666  50.351  1.00  0.00     0.169 HD
BRANCH   8  11
HETATM   11  C   UNL     1      22.797  48.698  48.910  1.00  0.00     0.037 A 
HETATM   12  C   UNL     1      22.089  47.783  48.124  1.00  0.00     0.054 A 
HETATM   13  C   UNL     1      20.944  48.183  47.438  1.00  0.00     0.071 A 
HETATM   14  C   UNL     1      20.501  49.500  47.565  1.00  0.00     0.073 A 
HETATM   15  C   UNL     1      21.190  50.416  48.372  1.00  0.00     0.071 A 
HETATM   16  C   UNL     1      22.342  50.015  49.049  1.00  0.00     0.054 A 
BRANCH  13  17
HETATM   17  O   UNL     1      20.360  47.206  46.682  1.00  0.00    -0.356 OA
HETATM   18  C   UNL     1      20.250  45.916  47.271  1.00  0.00     0.210 C 
ENDBRANCH  13  17
BRANCH  15  19
HETATM   19  O   UNL     1      20.636  51.667  48.405  1.00  0.00    -0.356 OA
HETATM   20  C   UNL     1      19.466  51.843  49.194  1.00  0.00     0.210 C 
ENDBRANCH  15  19
ENDBRANCH   8  11
ENDBRANCH   4   7
BRANCH   1  21
HETATM   21  C   UNL     1      27.981  45.190  53.809  1.00  0.00     0.180 A 
HETATM   22  O   UNL     1      28.255  46.025  54.864  1.00  0.00    -0.289 OA
HETATM   23  C   UNL     1      29.234  45.374  55.554  1.00  0.00     0.106 A 
HETATM   24  C   UNL     1      29.514  44.197  54.884  1.00  0.00     0.094 A 
HETATM   25  C   UNL     1      29.848  45.781  56.730  1.00  0.00     0.040 A 
HETATM   26  C   UNL     1      30.483  43.331  55.408  1.00  0.00     0.041 A 
HETATM   27  N   UNL     1      28.721  44.094  53.769  1.00  0.00    -0.221 NA
HETATM   28  C   UNL     1      31.132  43.692  56.605  1.00  0.00    -0.060 A 
HETATM   29  C   UNL     1      32.157  42.780  57.216  1.00  0.00     0.048 C 
HETATM   30  C   UNL     1      30.810  44.903  57.248  1.00  0.00     0.009 A 
ENDBRANCH   1  21
TORSDOF 5
ENDMDL
MODEL 3
REMARK VINA RESULT:      -9.1      1.505      3.126
REMARK  5 active torsions:
REMARK  status: ('A' for Active; 'I' for Inactive)
REMARK    1  A    between atoms: C_7  and  C_8 
REMARK    2  A    between atoms: C_11  and  N_12 
REMARK       I    between atoms: N_12  and  C_13 
REMARK    3  A    between atoms: C_13  and  C_14 
REMARK    4  A    between atoms: C_16  and  O_17 
REMARK    5  A    between atoms: C_20  and  O_21 
ROOT
HETATM    1  C   UNL     1      25.994  45.558  51.450  1.00  0.00     0.017 A 
HETATM    2  C   UNL     1      25.892  46.941  51.254  1.00  0.00     0.018 A 
HETATM    3  C   UNL     1      24.862  47.486  50.476  1.00  0.00     0.030 A 
HETATM    4  C   UNL     1      23.909  46.659  49.881  1.00  0.00     0.035 A 
HETATM    5  C   UNL     1      24.033  45.274  50.033  1.00  0.00     0.030 A 
HETATM    6  C   UNL     1      25.063  44.730  50.807  1.00  0.00     0.018 A 
ENDROOT
BRANCH   4   7
HETATM    7  N   UNL     1      22.786  47.131  49.169  1.00  0.00    -0.323 N 
HETATM    8  C   UNL     1      22.732  48.228  48.329  1.00  0.00     0.256 C 
HETATM    9  O   UNL     1      23.665  48.935  47.970  1.00  0.00    -0.267 OA
HETATM   10  H   UNL     1      21.907  46.693  49.412  1.00  0.00     0.169 HD
BRANCH   8  11
HETATM   11  C   UNL     1      21.360  48.596  47.889  1.00  0.00     0.037 A 
HETATM   12  C   UNL     1      20.508  47.567  47.476  1.00  0.00     0.054 A 
HETATM   13  C   UNL     1      19.233  47.858  46.994  1.00  0.00     0.071 A 
HETATM   14  C   UNL     1      18.811  49.187  46.952  1.00  0.00     0.073 A 
HETATM   15  C   UNL     1      19.648  50.223  47.389  1.00  0.00     0.071 A 
HETATM   16  C   UNL     1      20.928  49.928  47.861  1.00  0.00     0.054 A 
BRANCH  13  17
HETATM   17  O   UNL     1      18.511  46.769  46.595  1.00  0.00    -0.356 OA
HETATM   18  C   UNL     1      17.720  46.122  47.584  1.00  0.00     0.210 C 
ENDBRANCH  13  17
BRANCH  15  19
HETATM   19  O   UNL     1      19.097  51.472  47.295  1.00  0.00    -0.356 OA
HETATM   20  C   UNL     1      19.158  52.301  48.448  1.00  0.00     0.210 C 
ENDBRANCH  15  19
ENDBRANCH   8  11
ENDBRANCH   4   7
BRANCH   1  21
HETATM   21  C   UNL     1      26.997  44.968  52.332  1.00  0.00     0.180 A 
HETATM   22  O   UNL     1      27.812  44.008  51.785  1.00  0.00    -0.289 OA
HETATM   23  C   UNL     1      28.697  43.719  52.781  1.00  0.00     0.106 A 
HETATM   24  C   UNL     1      28.369  44.497  53.877  1.00  0.00     0.094 A 
HETATM   25  C   UNL     1      29.758  42.826  52.732  1.00  0.00     0.040 A 
HETATM   26  C   UNL     1      29.149  44.398  55.037  1.00  0.00     0.041 A 
HETATM   27  N   UNL     1      27.280  45.279  53.587  1.00  0.00    -0.221 NA
HETATM   28  C   UNL     1      30.244  43.511  55.039  1.00  0.00    -0.060 A 
HETATM   29  C   UNL     1      31.122  43.393  56.252  1.00  0.00     0.048 C 
HETATM   30  C   UNL     1      30.533  42.741  53.896  1.00  0.00     0.009 A 
ENDBRANCH   1  21
TORSDOF 5
ENDMDL
MODEL 4
REMARK VINA RESULT:      -9.1      1.512      2.240
REMARK  5 active torsions:
REMARK  status: ('A' for Active; 'I' for Inactive)
REMARK    1  A    between atoms: C_7  and  C_8 
REMARK    2  A    between atoms: C_11  and  N_12 
REMARK       I    between atoms: N_12  and  C_13 
REMARK    3  A    between atoms: C_13  and  C_14 
REMARK    4  A    between atoms: C_16  and  O_17 
REMARK    5  A    between atoms: C_20  and  O_21 
ROOT
HETATM    1  C   UNL     1      26.125  45.670  51.509  1.00  0.00     0.017 A 
HETATM    2  C   UNL     1      26.254  46.997  51.083  1.00  0.00     0.018 A 
HETATM    3  C   UNL     1      25.256  47.608  50.313  1.00  0.00     0.030 A 
HETATM    4  C   UNL     1      24.104  46.906  49.958  1.00  0.00     0.035 A 
HETATM    5  C   UNL     1      23.991  45.565  50.339  1.00  0.00     0.030 A 
HETATM    6  C   UNL     1      24.990  44.953  51.105  1.00  0.00     0.018 A 
ENDROOT
BRANCH   4   7
HETATM    7  N   UNL     1      23.009  47.474  49.273  1.00  0.00    -0.323 N 
HETATM    8  C   UNL     1      22.690  48.816  49.181  1.00  0.00     0.256 C 
HETATM    9  O   UNL     1      23.346  49.766  49.590  1.00  0.00    -0.267 OA
HETATM   10  H   UNL     1      22.323  46.813  48.934  1.00  0.00     0.169 HD
BRANCH   8  11
HETATM   11  C   UNL     1      21.361  49.089  48.570  1.00  0.00     0.037 A 
HETATM   12  C   UNL     1      20.912  50.413  48.547  1.00  0.00     0.054 A 
HETATM   13  C   UNL     1      19.649  50.720  48.045  1.00  0.00     0.071 A 
HETATM   14  C   UNL     1      18.850  49.693  47.543  1.00  0.00     0.073 A 
HETATM   15  C   UNL     1      19.303  48.366  47.538  1.00  0.00     0.071 A 
HETATM   16  C   UNL     1      20.564  48.062  48.051  1.00  0.00     0.054 A 
BRANCH  13  17
HETATM   17  O   UNL     1      19.317  52.044  48.106  1.00  0.00    -0.356 OA
HETATM   18  C   UNL     1      18.336  52.419  49.065  1.00  0.00     0.210 C 
ENDBRANCH  13  17
BRANCH  15  19
HETATM   19  O   UNL     1      18.414  47.468  47.010  1.00  0.00    -0.356 OA
HETATM   20  C   UNL     1      17.987  46.402  47.849  1.00  0.00     0.210 C 
ENDBRANCH  15  19
ENDBRANCH   8  11
ENDBRANCH   4   7
BRANCH   1  21
HETATM   21  C   UNL     1      27.101  45.036  52.392  1.00  0.00     0.180 A 
HETATM   22  O   UNL     1      27.898  44.066  51.835  1.00  0.00    -0.289 OA
HETATM   23  C   UNL     1      28.762  43.735  52.836  1.00  0.00     0.106 A 
HETATM   24  C   UNL     1      28.442  44.500  53.943  1.00  0.00     0.094 A 
HETATM   25  C   UNL     1      29.800  42.815  52.782  1.00  0.00     0.040 A 
HETATM   26  C   UNL     1      29.205  44.358  55.110  1.00  0.00     0.041 A 
HETATM   27  N   UNL     1      27.378  45.316  53.655  1.00  0.00    -0.221 NA
HETATM   28  C   UNL     1      30.276  43.443  55.108  1.00  0.00    -0.060 A 
HETATM   29  C   UNL     1      31.136  43.279  56.328  1.00  0.00     0.048 C 
HETATM   30  C   UNL     1      30.559  42.687  53.953  1.00  0.00     0.009 A 
ENDBRANCH   1  21
TORSDOF 5
ENDMDL
MODEL 5
REMARK VINA RESULT:      -9.1      1.482      1.903
REMARK  5 active torsions:
REMARK  status: ('A' for Active; 'I' for Inactive)
REMARK    1  A    between atoms: C_7  and  C_8 
REMARK    2  A    between atoms: C_11  and  N_12 
REMARK       I    between atoms: N_12  and  C_13 
REMARK    3  A    between atoms: C_13  and  C_14 
REMARK    4  A    between atoms: C_16  and  O_17 
REMARK    5  A    between atoms: C_20  and  O_21 
ROOT
HETATM    1  C   UNL     1      26.788  44.614  52.252  1.00  0.00     0.017 A 
HETATM    2  C   UNL     1      27.031  44.671  50.874  1.00  0.00     0.018 A 
HETATM    3  C   UNL     1      25.983  44.863  49.964  1.00  0.00     0.030 A 
HETATM    4  C   UNL     1      24.671  45.010  50.414  1.00  0.00     0.035 A 
HETATM    5  C   UNL     1      24.415  44.906  51.785  1.00  0.00     0.030 A 
HETATM    6  C   UNL     1      25.461  44.710  52.694  1.00  0.00     0.018 A 
ENDROOT
BRANCH   4   7
HETATM    7  N   UNL     1      23.575  45.307  49.576  1.00  0.00    -0.323 N 
HETATM    8  C   UNL     1      23.175  46.557  49.139  1.00  0.00     0.256 C 
HETATM    9  O   UNL     1      23.749  47.624  49.314  1.00  0.00    -0.267 OA
HETATM   10  H   UNL     1      22.949  44.534  49.395  1.00  0.00     0.169 HD
BRANCH   8  11
HETATM   11  C   UNL     1      21.862  46.570  48.440  1.00  0.00     0.037 A 
HETATM   12  C   UNL     1      21.421  47.782  47.900  1.00  0.00     0.054 A 
HETATM   13  C   UNL     1      20.171  47.868  47.290  1.00  0.00     0.071 A 
HETATM   14  C   UNL     1      19.378  46.724  47.203  1.00  0.00     0.073 A 
HETATM   15  C   UNL     1      19.823  45.499  47.718  1.00  0.00     0.071 A 
HETATM   16  C   UNL     1      21.071  45.419  48.338  1.00  0.00     0.054 A 
BRANCH  13  17
HETATM   17  O   UNL     1      19.845  49.113  46.830  1.00  0.00    -0.356 OA
HETATM   18  C   UNL     1      19.918  50.184  47.763  1.00  0.00     0.210 C 
ENDBRANCH  13  17
BRANCH  15  19
HETATM   19  O   UNL     1      18.942  44.464  47.555  1.00  0.00    -0.356 OA
HETATM   20  C   UNL     1      17.796  44.703  46.746  1.00  0.00     0.210 C 
ENDBRANCH  15  19
ENDBRANCH   8  11
ENDBRANCH   4   7
BRANCH   1  21
HETATM   21  C   UNL     1      27.868  44.511  53.230  1.00  0.00     0.180 A 
HETATM   22  O   UNL     1      27.945  45.508  54.171  1.00  0.00    -0.289 OA
HETATM   23  C   UNL     1      28.954  45.107  54.995  1.00  0.00     0.106 A 
HETATM   24  C   UNL     1      29.444  43.907  54.512  1.00  0.00     0.094 A 
HETATM   25  C   UNL     1      29.418  45.751  56.133  1.00  0.00     0.040 A 
HETATM   26  C   UNL     1      30.485  43.271  55.202  1.00  0.00     0.041 A 
HETATM   27  N   UNL     1      28.755  43.542  53.383  1.00  0.00    -0.221 NA
HETATM   28  C   UNL     1      30.989  43.878  56.368  1.00  0.00    -0.060 A 
HETATM   29  C   UNL     1      32.086  43.218  57.153  1.00  0.00     0.048 C 
HETATM   30  C   UNL     1      30.455  45.102  56.818  1.00  0.00     0.009 A 
ENDBRANCH   1  21
TORSDOF 5
ENDMDL
MODEL 6
REMARK VINA RESULT:      -9.0      1.596      2.717
REMARK  5 active torsions:
REMARK  status: ('A' for Active; 'I' for Inactive)
REMARK    1  A    between atoms: C_7  and  C_8 
REMARK    2  A    between atoms: C_11  and  N_12 
REMARK       I    between atoms: N_12  and  C_13 
REMARK    3  A    between atoms: C_13  and  C_14 
REMARK    4  A    between atoms: C_16  and  O_17 
REMARK    5  A    between atoms: C_20  and  O_21 
ROOT
HETATM    1  C   UNL     1      26.816  44.682  52.277  1.00  0.00     0.017 A 
HETATM    2  C   UNL     1      27.070  44.793  50.905  1.00  0.00     0.018 A 
HETATM    3  C   UNL     1      26.028  45.012  49.993  1.00  0.00     0.030 A 
HETATM    4  C   UNL     1      24.711  45.131  50.437  1.00  0.00     0.035 A 
HETATM    5  C   UNL     1      24.445  44.973  51.801  1.00  0.00     0.030 A 
HETATM    6  C   UNL     1      25.485  44.751  52.711  1.00  0.00     0.018 A 
ENDROOT
BRANCH   4   7
HETATM    7  N   UNL     1      23.620  45.451  49.602  1.00  0.00    -0.323 N 
HETATM    8  C   UNL     1      23.293  46.697  49.099  1.00  0.00     0.256 C 
HETATM    9  O   UNL     1      23.938  47.733  49.203  1.00  0.00    -0.267 OA
HETATM   10  H   UNL     1      22.941  44.712  49.477  1.00  0.00     0.169 HD
BRANCH   8  11
HETATM   11  C   UNL     1      21.969  46.757  48.423  1.00  0.00     0.037 A 
HETATM   12  C   UNL     1      21.277  45.556  48.236  1.00  0.00     0.054 A 
HETATM   13  C   UNL     1      20.062  45.543  47.552  1.00  0.00     0.071 A 
HETATM   14  C   UNL     1      19.536  46.746  47.080  1.00  0.00     0.073 A 
HETATM   15  C   UNL     1      20.210  47.957  47.286  1.00  0.00     0.071 A 
HETATM   16  C   UNL     1      21.431  47.965  47.962  1.00  0.00     0.054 A 
BRANCH  13  17
HETATM   17  O   UNL     1      19.501  44.305  47.409  1.00  0.00    -0.356 OA
HETATM   18  C   UNL     1      18.685  44.096  46.263  1.00  0.00     0.210 C 
ENDBRANCH  13  17
BRANCH  15  19
HETATM   19  O   UNL     1      19.572  49.053  46.773  1.00  0.00    -0.356 OA
HETATM   20  C   UNL     1      18.164  48.965  46.594  1.00  0.00     0.210 C 
ENDBRANCH  15  19
ENDBRANCH   8  11
ENDBRANCH   4   7
BRANCH   1  21
HETATM   21  C   UNL     1      27.889  44.550  53.260  1.00  0.00     0.180 A 
HETATM   22  O   UNL     1      27.995  45.550  54.195  1.00  0.00    -0.289 OA
HETATM   23  C   UNL     1      28.988  45.121  55.025  1.00  0.00     0.106 A 
HETATM   24  C   UNL     1      29.441  43.904  54.550  1.00  0.00     0.094 A 
HETATM   25  C   UNL     1      29.468  45.757  56.161  1.00  0.00     0.040 A 
HETATM   26  C   UNL     1      30.459  43.239  55.247  1.00  0.00     0.041 A 
HETATM   27  N   UNL     1      28.745  43.554  53.421  1.00  0.00    -0.221 NA
HETATM   28  C   UNL     1      30.978  43.836  56.412  1.00  0.00    -0.060 A 
HETATM   29  C   UNL     1      32.051  43.146  57.205  1.00  0.00     0.048 C 
HETATM   30  C   UNL     1      30.481  45.079  56.853  1.00  0.00     0.009 A 
ENDBRANCH   1  21
TORSDOF 5
ENDMDL
MODEL 7
REMARK VINA RESULT:      -8.9      2.464     11.149
REMARK  5 active torsions:
REMARK  status: ('A' for Active; 'I' for Inactive)
REMARK    1  A    between atoms: C_7  and  C_8 
REMARK    2  A    between atoms: C_11  and  N_12 
REMARK       I    between atoms: N_12  and  C_13 
REMARK    3  A    between atoms: C_13  and  C_14 
REMARK    4  A    between atoms: C_16  and  O_17 
REMARK    5  A    between atoms: C_20  and  O_21 
ROOT
HETATM    1  C   UNL     1      22.882  47.562  49.126  1.00  0.00     0.017 A 
HETATM    2  C   UNL     1      22.887  46.200  48.803  1.00  0.00     0.018 A 
HETATM    3  C   UNL     1      23.874  45.342  49.308  1.00  0.00     0.030 A 
HETATM    4  C   UNL     1      24.873  45.829  50.152  1.00  0.00     0.035 A 
HETATM    5  C   UNL     1      24.901  47.198  50.439  1.00  0.00     0.030 A 
HETATM    6  C   UNL     1      23.918  48.055  49.932  1.00  0.00     0.018 A 
ENDROOT
BRANCH   4   7
HETATM    7  N   UNL     1      25.841  45.019  50.782  1.00  0.00    -0.323 N 
HETATM    8  C   UNL     1      25.691  44.299  51.953  1.00  0.00     0.256 C 
HETATM    9  O   UNL     1      24.666  44.150  52.607  1.00  0.00    -0.267 OA
HETATM   10  H   UNL     1      26.775  45.090  50.402  1.00  0.00     0.169 HD
BRANCH   8  11
HETATM   11  C   UNL     1      26.953  43.712  52.477  1.00  0.00     0.037 A 
HETATM   12  C   UNL     1      27.351  42.467  51.979  1.00  0.00     0.054 A 
HETATM   13  C   UNL     1      28.490  41.840  52.479  1.00  0.00     0.071 A 
HETATM   14  C   UNL     1      29.241  42.482  53.465  1.00  0.00     0.073 A 
HETATM   15  C   UNL     1      28.864  43.741  53.952  1.00  0.00     0.071 A 
HETATM   16  C   UNL     1      27.716  44.361  53.455  1.00  0.00     0.054 A 
BRANCH  13  17
HETATM   17  O   UNL     1      28.755  40.616  51.932  1.00  0.00    -0.356 OA
HETATM   18  C   UNL     1      28.193  40.347  50.654  1.00  0.00     0.210 C 
ENDBRANCH  13  17
BRANCH  15  19
HETATM   19  O   UNL     1      29.697  44.249  54.911  1.00  0.00    -0.356 OA
HETATM   20  C   UNL     1      30.693  43.380  55.438  1.00  0.00     0.210 C 
ENDBRANCH  15  19
ENDBRANCH   8  11
ENDBRANCH   4   7
BRANCH   1  21
HETATM   21  C   UNL     1      21.814  48.461  48.695  1.00  0.00     0.180 A 
HETATM   22  O   UNL     1      21.693  49.647  49.377  1.00  0.00    -0.289 OA
HETATM   23  C   UNL     1      20.710  50.314  48.708  1.00  0.00     0.106 A 
HETATM   24  C   UNL     1      20.277  49.503  47.674  1.00  0.00     0.094 A 
HETATM   25  C   UNL     1      20.222  51.584  48.977  1.00  0.00     0.040 A 
HETATM   26  C   UNL     1      19.273  49.974  46.817  1.00  0.00     0.041 A 
HETATM   27  N   UNL     1      20.977  48.323  47.681  1.00  0.00    -0.221 NA
HETATM   28  C   UNL     1      18.747  51.261  47.040  1.00  0.00    -0.060 A 
HETATM   29  C   UNL     1      17.688  51.816  46.130  1.00  0.00     0.048 C 
HETATM   30  C   UNL     1      19.223  52.046  48.109  1.00  0.00     0.009 A 
ENDBRANCH   1  21
TORSDOF 5
ENDMDL
MODEL 8
REMARK VINA RESULT:      -8.8      5.056     12.567
REMARK  5 active torsions:
REMARK  status: ('A' for Active; 'I' for Inactive)
REMARK    1  A    between atoms: C_7  and  C_8 
REMARK    2  A    between atoms: C_11  and  N_12 
REMARK       I    between atoms: N_12  and  C_13 
REMARK    3  A    between atoms: C_13  and  C_14 
REMARK    4  A    between atoms: C_16  and  O_17 
REMARK    5  A    between atoms: C_20  and  O_21 
ROOT
HETATM    1  C   UNL     1      18.188  51.645  49.383  1.00  0.00     0.017 A 
HETATM    2  C   UNL     1      19.295  52.169  48.704  1.00  0.00     0.018 A 
HETATM    3  C   UNL     1      20.534  51.515  48.731  1.00  0.00     0.030 A 
HETATM    4  C   UNL     1      20.690  50.320  49.433  1.00  0.00     0.035 A 
HETATM    5  C   UNL     1      19.602  49.817  50.153  1.00  0.00     0.030 A 
HETATM    6  C   UNL     1      18.365  50.472  50.129  1.00  0.00     0.018 A 
ENDROOT
BRANCH   4   7
HETATM    7  N   UNL     1      21.871  49.547  49.428  1.00  0.00    -0.323 N 
HETATM    8  C   UNL     1      22.104  48.386  48.714  1.00  0.00     0.256 C 
HETATM    9  O   UNL     1      21.373  47.866  47.882  1.00  0.00    -0.267 OA
HETATM   10  H   UNL     1      22.557  49.805  50.125  1.00  0.00     0.169 HD
BRANCH   8  11
HETATM   11  C   UNL     1      23.366  47.687  49.078  1.00  0.00     0.037 A 
HETATM   12  C   UNL     1      23.348  46.290  49.124  1.00  0.00     0.054 A 
HETATM   13  C   UNL     1      24.483  45.584  49.520  1.00  0.00     0.071 A 
HETATM   14  C   UNL     1      25.642  46.289  49.845  1.00  0.00     0.073 A 
HETATM   15  C   UNL     1      25.677  47.689  49.776  1.00  0.00     0.071 A 
HETATM   16  C   UNL     1      24.535  48.392  49.389  1.00  0.00     0.054 A 
BRANCH  13  17
HETATM   17  O   UNL     1      24.328  44.227  49.553  1.00  0.00    -0.356 OA
HETATM   18  C   UNL     1      23.081  43.731  50.023  1.00  0.00     0.210 C 
ENDBRANCH  13  17
BRANCH  15  19
HETATM   19  O   UNL     1      26.881  48.241  50.116  1.00  0.00    -0.356 OA
HETATM   20  C   UNL     1      27.642  48.843  49.076  1.00  0.00     0.210 C 
ENDBRANCH  15  19
ENDBRANCH   8  11
ENDBRANCH   4   7
BRANCH   1  21
HETATM   21  C   UNL     1      16.862  52.251  49.295  1.00  0.00     0.180 A 
HETATM   22  O   UNL     1      16.195  52.449  50.479  1.00  0.00    -0.289 OA
HETATM   23  C   UNL     1      15.060  53.109  50.112  1.00  0.00     0.106 A 
HETATM   24  C   UNL     1      15.086  53.264  48.738  1.00  0.00     0.094 A 
HETATM   25  C   UNL     1      14.050  53.574  50.943  1.00  0.00     0.040 A 
HETATM   26  C   UNL     1      14.028  53.936  48.110  1.00  0.00     0.041 A 
HETATM   27  N   UNL     1      16.229  52.705  48.226  1.00  0.00    -0.221 NA
HETATM   28  C   UNL     1      12.980  54.435  48.908  1.00  0.00    -0.060 A 
HETATM   29  C   UNL     1      11.840  55.185  48.279  1.00  0.00     0.048 C 
HETATM   30  C   UNL     1      13.002  54.250  50.304  1.00  0.00     0.009 A 
ENDBRANCH   1  21
TORSDOF 5
ENDMDL
MODEL 9
REMARK VINA RESULT:      -8.6      2.614     10.898
REMARK  5 active torsions:
REMARK  status: ('A' for Active; 'I' for Inactive)
REMARK    1  A    between atoms: C_7  and  C_8 
REMARK    2  A    between atoms: C_11  and  N_12 
REMARK       I    between atoms: N_12  and  C_13 
REMARK    3  A    between atoms: C_13  and  C_14 
REMARK    4  A    between atoms: C_16  and  O_17 
REMARK    5  A    between atoms: C_20  and  O_21 
ROOT
HETATM    1  C   UNL     1      22.528  47.594  48.868  1.00  0.00     0.017 A 
HETATM    2  C   UNL     1      22.470  46.238  48.522  1.00  0.00     0.018 A 
HETATM    3  C   UNL     1      23.439  45.334  48.979  1.00  0.00     0.030 A 
HETATM    4  C   UNL     1      24.482  45.767  49.798  1.00  0.00     0.035 A 
HETATM    5  C   UNL     1      24.572  47.128  50.107  1.00  0.00     0.030 A 
HETATM    6  C   UNL     1      23.607  48.031  49.648  1.00  0.00     0.018 A 
ENDROOT
BRANCH   4   7
HETATM    7  N   UNL     1      25.438  44.910  50.383  1.00  0.00    -0.323 N 
HETATM    8  C   UNL     1      25.317  44.214  51.572  1.00  0.00     0.256 C 
HETATM    9  O   UNL     1      24.327  44.134  52.288  1.00  0.00    -0.267 OA
HETATM   10  H   UNL     1      26.350  44.920  49.946  1.00  0.00     0.169 HD
BRANCH   8  11
HETATM   11  C   UNL     1      26.572  43.561  52.029  1.00  0.00     0.037 A 
HETATM   12  C   UNL     1      27.349  44.230  52.980  1.00  0.00     0.054 A 
HETATM   13  C   UNL     1      28.566  43.696  53.398  1.00  0.00     0.071 A 
HETATM   14  C   UNL     1      28.986  42.473  52.875  1.00  0.00     0.073 A 
HETATM   15  C   UNL     1      28.202  41.782  51.941  1.00  0.00     0.071 A 
HETATM   16  C   UNL     1      26.988  42.326  51.517  1.00  0.00     0.054 A 
BRANCH  13  17
HETATM   17  O   UNL     1      29.243  44.460  54.307  1.00  0.00    -0.356 OA
HETATM   18  C   UNL     1      28.476  45.380  55.074  1.00  0.00     0.210 C 
ENDBRANCH  13  17
BRANCH  15  19
HETATM   19  O   UNL     1      28.738  40.595  51.521  1.00  0.00    -0.356 OA
HETATM   20  C   UNL     1      28.135  39.967  50.396  1.00  0.00     0.210 C 
ENDBRANCH  15  19
ENDBRANCH   8  11
ENDBRANCH   4   7
BRANCH   1  21
HETATM   21  C   UNL     1      21.482  48.540  48.488  1.00  0.00     0.180 A 
HETATM   22  O   UNL     1      21.364  49.671  49.258  1.00  0.00    -0.289 OA
HETATM   23  C   UNL     1      20.405  50.403  48.623  1.00  0.00     0.106 A 
HETATM   24  C   UNL     1      19.982  49.683  47.521  1.00  0.00     0.094 A 
HETATM   25  C   UNL     1      19.929  51.656  48.981  1.00  0.00     0.040 A 
HETATM   26  C   UNL     1      19.003  50.235  46.683  1.00  0.00     0.041 A 
HETATM   27  N   UNL     1      20.664  48.495  47.449  1.00  0.00    -0.221 NA
HETATM   28  C   UNL     1      18.491  51.509  46.996  1.00  0.00    -0.060 A 
HETATM   29  C   UNL     1      17.459  52.150  46.112  1.00  0.00     0.048 C 
HETATM   30  C   UNL     1      18.955  52.200  48.133  1.00  0.00     0.009 A 
ENDBRANCH   1  21
TORSDOF 5
ENDMDL
MODEL 10
REMARK VINA RESULT:      -8.3      4.175     12.310
REMARK  5 active torsions:
REMARK  status: ('A' for Active; 'I' for Inactive)
REMARK    1  A    between atoms: C_7  and  C_8 
REMARK    2  A    between atoms: C_11  and  N_12 
REMARK       I    between atoms: N_12  and  C_13 
REMARK    3  A    between atoms: C_13  and  C_14 
REMARK    4  A    between atoms: C_16  and  O_17 
REMARK    5  A    between atoms: C_20  and  O_21 
ROOT
HETATM    1  C   UNL     1      18.198  51.150  49.423  1.00  0.00     0.017 A 
HETATM    2  C   UNL     1      19.436  51.675  49.032  1.00  0.00     0.018 A 
HETATM    3  C   UNL     1      20.606  50.909  49.123  1.00  0.00     0.030 A 
HETATM    4  C   UNL     1      20.561  49.600  49.603  1.00  0.00     0.035 A 
HETATM    5  C   UNL     1      19.335  49.087  50.041  1.00  0.00     0.030 A 
HETATM    6  C   UNL     1      18.168  49.853  49.952  1.00  0.00     0.018 A 
ENDROOT
BRANCH   4   7
HETATM    7  N   UNL     1      21.670  48.729  49.633  1.00  0.00    -0.323 N 
HETATM    8  C   UNL     1      22.196  48.012  48.574  1.00  0.00     0.256 C 
HETATM    9  O   UNL     1      21.863  48.073  47.398  1.00  0.00    -0.267 OA
HETATM   10  H   UNL     1      22.023  48.512  50.556  1.00  0.00     0.169 HD
BRANCH   8  11
HETATM   11  C   UNL     1      23.235  47.020  48.961  1.00  0.00     0.037 A 
HETATM   12  C   UNL     1      24.257  47.444  49.816  1.00  0.00     0.054 A 
HETATM   13  C   UNL     1      25.292  46.577  50.161  1.00  0.00     0.071 A 
HETATM   14  C   UNL     1      25.280  45.273  49.664  1.00  0.00     0.073 A 
HETATM   15  C   UNL     1      24.245  44.832  48.828  1.00  0.00     0.071 A 
HETATM   16  C   UNL     1      23.216  45.707  48.475  1.00  0.00     0.054 A 
BRANCH  13  17
HETATM   17  O   UNL     1      26.244  47.120  50.977  1.00  0.00    -0.356 OA
HETATM   18  C   UNL     1      26.011  47.045  52.378  1.00  0.00     0.210 C 
ENDBRANCH  13  17
BRANCH  15  19
HETATM   19  O   UNL     1      24.363  43.530  48.423  1.00  0.00    -0.356 OA
HETATM   20  C   UNL     1      23.323  42.633  48.793  1.00  0.00     0.210 C 
ENDBRANCH  15  19
ENDBRANCH   8  11
ENDBRANCH   4   7
BRANCH   1  21
HETATM   21  C   UNL     1      16.949  51.888  49.250  1.00  0.00     0.180 A 
HETATM   22  O   UNL     1      16.233  52.164  50.388  1.00  0.00    -0.289 OA
HETATM   23  C   UNL     1      15.197  52.934  49.948  1.00  0.00     0.106 A 
HETATM   24  C   UNL     1      15.326  53.073  48.578  1.00  0.00     0.094 A 
HETATM   25  C   UNL     1      14.190  53.506  50.712  1.00  0.00     0.040 A 
HETATM   26  C   UNL     1      14.385  53.845  47.882  1.00  0.00     0.041 A 
HETATM   27  N   UNL     1      16.435  52.395  48.141  1.00  0.00    -0.221 NA
HETATM   28  C   UNL     1      13.345  54.455  48.611  1.00  0.00    -0.060 A 
HETATM   29  C   UNL     1      12.330  55.312  47.909  1.00  0.00     0.048 C 
HETATM   30  C   UNL     1      13.259  54.280  50.006  1.00  0.00     0.009 A 
ENDBRANCH   1  21
TORSDOF 5
ENDMDL
