MODEL 1
REMARK VINA RESULT:      -9.3      0.000      0.000
REMARK  7 active torsions:
REMARK  status: ('A' for Active; 'I' for Inactive)
REMARK    1  A    between atoms: O_2  and  C_3 
REMARK    2  A    between atoms: C_6  and  C_7 
REMARK    3  A    between atoms: C_7  and  N_8 
REMARK    4  A    between atoms: C_7  and  C_25 
REMARK    5  A    between atoms: N_8  and  C_11 
REMARK    6  A    between atoms: C_11  and  C_12 
REMARK       I    between atoms: C_12  and  N_13 
REMARK    7  A    between atoms: N_13  and  C_14 
ROOT
HETATM    1  N   UNL     1      25.705  45.280  49.246  1.00  0.00    -0.055 N 
HETATM    2  H   UNL     1      25.958  45.686  48.331  1.00  0.00     0.278 HD
HETATM    3  H   UNL     1      26.542  44.747  49.508  1.00  0.00     0.278 HD
ENDROOT
BRANCH   1   4
HETATM    4  C   UNL     1      25.494  46.360  50.259  1.00  0.00     0.252 C 
BRANCH   4   5
HETATM    5  C   UNL     1      26.035  46.068  51.658  1.00  0.00    -0.023 A 
HETATM    6  C   UNL     1      26.832  44.923  51.871  1.00  0.00     0.012 A 
HETATM    7  C   UNL     1      27.388  44.635  53.124  1.00  0.00     0.037 A 
HETATM    8  C   UNL     1      27.185  45.500  54.194  1.00  0.00     0.068 A 
HETATM    9  C   UNL     1      26.425  46.651  53.995  1.00  0.00     0.037 A 
HETATM   10  C   UNL     1      25.865  46.942  52.746  1.00  0.00     0.012 A 
BRANCH   8  11
HETATM   11  O   UNL     1      27.670  45.347  55.460  1.00  0.00    -0.356 OA
HETATM   12  C   UNL     1      29.044  45.657  55.673  1.00  0.00     0.210 C 
ENDBRANCH   8  11
ENDBRANCH   4   5
BRANCH   4  13
HETATM   13  C   UNL     1      25.885  47.704  49.652  1.00  0.00    -0.023 A 
HETATM   14  C   UNL     1      24.883  48.547  49.137  1.00  0.00     0.009 A 
HETATM   15  C   UNL     1      25.216  49.756  48.524  1.00  0.00     0.001 A 
HETATM   16  C   UNL     1      26.550  50.136  48.409  1.00  0.00     0.000 A 
HETATM   17  C   UNL     1      27.555  49.313  48.909  1.00  0.00     0.001 A 
HETATM   18  C   UNL     1      27.228  48.103  49.524  1.00  0.00     0.009 A 
ENDBRANCH   4  13
ENDBRANCH   1   4
BRANCH   1  19
HETATM   19  C   UNL     1      24.587  44.291  49.014  1.00  0.00     0.336 C 
BRANCH  19  20
HETATM   20  C   UNL     1      25.138  42.872  49.158  1.00  0.00     0.248 C 
HETATM   21  N   UNL     1      26.483  42.750  48.886  1.00  0.00    -0.326 N 
HETATM   22  H   UNL     1      27.005  43.581  48.626  1.00  0.00     0.169 HD
HETATM   23  O   UNL     1      24.350  41.988  49.492  1.00  0.00    -0.271 OA
BRANCH  21  24
HETATM   24  C   UNL     1      27.253  41.562  48.921  1.00  0.00     0.037 A 
HETATM   25  C   UNL     1      27.759  41.000  50.099  1.00  0.00     0.061 A 
HETATM   26  C   UNL     1      28.487  39.836  49.978  1.00  0.00     0.065 A 
HETATM   27  C   UNL     1      28.723  39.225  48.749  1.00  0.00     0.063 A 
HETATM   28  N   UNL     1      29.099  39.067  50.961  1.00  0.00    -0.306 N 
HETATM   29  N   UNL     1      29.480  38.082  48.975  1.00  0.00    -0.307 N 
HETATM   30  C   UNL     1      28.245  39.746  47.575  1.00  0.00     0.034 A 
HETATM   31  C   UNL     1      29.723  37.968  50.352  1.00  0.00     0.325 A 
HETATM   32  H   UNL     1      29.816  37.420  48.295  1.00  0.00     0.170 HD
HETATM   33  O   UNL     1      30.353  37.089  50.910  1.00  0.00    -0.247 OA
HETATM   34  C   UNL     1      27.502  40.931  47.671  1.00  0.00     0.032 A 
HETATM   35  H   UNL     1      29.120  39.233  51.954  1.00  0.00     0.170 HD
ENDBRANCH  21  24
ENDBRANCH  19  20
ENDBRANCH   1  19
TORSDOF 7
ENDMDL
MODEL 2
REMARK VINA RESULT:      -8.8      4.955      9.348
REMARK  7 active torsions:
REMARK  status: ('A' for Active; 'I' for Inactive)
REMARK    1  A    between atoms: O_2  and  C_3 
REMARK    2  A    between atoms: C_6  and  C_7 
REMARK    3  A    between atoms: C_7  and  N_8 
REMARK    4  A    between atoms: C_7  and  C_25 
REMARK    5  A    between atoms: N_8  and  C_11 
REMARK    6  A    between atoms: C_11  and  C_12 
REMARK       I    between atoms: C_12  and  N_13 
REMARK    7  A    between atoms: N_13  and  C_14 
ROOT
HETATM    1  N   UNL     1      24.064  46.100  48.979  1.00  0.00    -0.055 N 
HETATM    2  H   UNL     1      24.336  46.516  48.074  1.00  0.00     0.278 HD
HETATM    3  H   UNL     1      24.498  45.169  48.951  1.00  0.00     0.278 HD
ENDROOT
BRANCH   1   4
HETATM    4  C   UNL     1      24.665  46.869  50.112  1.00  0.00     0.252 C 
BRANCH   4   5
HETATM    5  C   UNL     1      25.345  46.031  51.194  1.00  0.00    -0.023 A 
HETATM    6  C   UNL     1      25.388  46.510  52.520  1.00  0.00     0.012 A 
HETATM    7  C   UNL     1      25.959  45.759  53.557  1.00  0.00     0.037 A 
HETATM    8  C   UNL     1      26.480  44.496  53.299  1.00  0.00     0.068 A 
HETATM    9  C   UNL     1      26.420  43.995  51.999  1.00  0.00     0.037 A 
HETATM   10  C   UNL     1      25.852  44.742  50.960  1.00  0.00     0.012 A 
BRANCH   8  11
HETATM   11  O   UNL     1      27.057  43.658  54.208  1.00  0.00    -0.356 OA
HETATM   12  C   UNL     1      28.446  43.833  54.464  1.00  0.00     0.210 C 
ENDBRANCH   8  11
ENDBRANCH   4   5
BRANCH   4  13
HETATM   13  C   UNL     1      25.475  48.037  49.555  1.00  0.00    -0.023 A 
HETATM   14  C   UNL     1      24.814  49.070  48.865  1.00  0.00     0.009 A 
HETATM   15  C   UNL     1      25.535  50.120  48.296  1.00  0.00     0.001 A 
HETATM   16  C   UNL     1      26.923  50.151  48.400  1.00  0.00     0.000 A 
HETATM   17  C   UNL     1      27.594  49.136  49.075  1.00  0.00     0.001 A 
HETATM   18  C   UNL     1      26.878  48.083  49.648  1.00  0.00     0.009 A 
ENDBRANCH   4  13
ENDBRANCH   1   4
BRANCH   1  19
HETATM   19  C   UNL     1      22.566  45.907  48.961  1.00  0.00     0.336 C 
BRANCH  19  20
HETATM   20  C   UNL     1      21.904  47.193  48.468  1.00  0.00     0.248 C 
HETATM   21  N   UNL     1      21.322  47.954  49.458  1.00  0.00    -0.326 N 
HETATM   22  H   UNL     1      21.377  47.629  50.417  1.00  0.00     0.169 HD
HETATM   23  O   UNL     1      21.945  47.425  47.260  1.00  0.00    -0.271 OA
BRANCH  21  24
HETATM   24  C   UNL     1      20.627  49.177  49.292  1.00  0.00     0.037 A 
HETATM   25  C   UNL     1      19.338  49.409  49.787  1.00  0.00     0.061 A 
HETATM   26  C   UNL     1      18.791  50.652  49.553  1.00  0.00     0.065 A 
HETATM   27  C   UNL     1      19.467  51.650  48.857  1.00  0.00     0.063 A 
HETATM   28  N   UNL     1      17.549  51.158  49.923  1.00  0.00    -0.306 N 
HETATM   29  N   UNL     1      18.644  52.768  48.798  1.00  0.00    -0.307 N 
HETATM   30  C   UNL     1      20.729  51.458  48.356  1.00  0.00     0.034 A 
HETATM   31  C   UNL     1      17.441  52.477  49.459  1.00  0.00     0.325 A 
HETATM   32  H   UNL     1      18.838  53.656  48.364  1.00  0.00     0.170 HD
HETATM   33  O   UNL     1      16.491  53.223  49.603  1.00  0.00    -0.247 OA
HETATM   34  C   UNL     1      21.308  50.201  48.580  1.00  0.00     0.032 A 
HETATM   35  H   UNL     1      16.818  50.691  50.435  1.00  0.00     0.170 HD
ENDBRANCH  21  24
ENDBRANCH  19  20
ENDBRANCH   1  19
TORSDOF 7
ENDMDL
MODEL 3
REMARK VINA RESULT:      -8.5      2.721      5.581
REMARK  7 active torsions:
REMARK  status: ('A' for Active; 'I' for Inactive)
REMARK    1  A    between atoms: O_2  and  C_3 
REMARK    2  A    between atoms: C_6  and  C_7 
REMARK    3  A    between atoms: C_7  and  N_8 
REMARK    4  A    between atoms: C_7  and  C_25 
REMARK    5  A    between atoms: N_8  and  C_11 
REMARK    6  A    between atoms: C_11  and  C_12 
REMARK       I    between atoms: C_12  and  N_13 
REMARK    7  A    between atoms: N_13  and  C_14 
ROOT
HETATM    1  N   UNL     1      27.787  41.983  53.480  1.00  0.00    -0.055 N 
HETATM    2  H   UNL     1      27.923  41.910  54.501  1.00  0.00     0.278 HD
HETATM    3  H   UNL     1      26.769  41.902  53.371  1.00  0.00     0.278 HD
ENDROOT
BRANCH   1   4
HETATM    4  C   UNL     1      28.211  43.331  52.988  1.00  0.00     0.252 C 
BRANCH   4   5
HETATM    5  C   UNL     1      27.143  44.128  52.241  1.00  0.00    -0.023 A 
HETATM    6  C   UNL     1      27.410  44.598  50.938  1.00  0.00     0.012 A 
HETATM    7  C   UNL     1      26.449  45.295  50.194  1.00  0.00     0.037 A 
HETATM    8  C   UNL     1      25.182  45.517  50.724  1.00  0.00     0.068 A 
HETATM    9  C   UNL     1      24.891  45.034  51.999  1.00  0.00     0.037 A 
HETATM   10  C   UNL     1      25.849  44.340  52.747  1.00  0.00     0.012 A 
BRANCH   8  11
HETATM   11  O   UNL     1      24.153  46.171  50.112  1.00  0.00    -0.356 OA
HETATM   12  C   UNL     1      24.276  47.582  49.962  1.00  0.00     0.210 C 
ENDBRANCH   8  11
ENDBRANCH   4   5
BRANCH   4  13
HETATM   13  C   UNL     1      28.944  44.067  54.106  1.00  0.00    -0.023 A 
HETATM   14  C   UNL     1      30.076  43.476  54.697  1.00  0.00     0.009 A 
HETATM   15  C   UNL     1      30.732  44.100  55.759  1.00  0.00     0.001 A 
HETATM   16  C   UNL     1      30.264  45.315  56.251  1.00  0.00     0.000 A 
HETATM   17  C   UNL     1      29.143  45.913  55.682  1.00  0.00     0.001 A 
HETATM   18  C   UNL     1      28.484  45.294  54.618  1.00  0.00     0.009 A 
ENDBRANCH   4  13
ENDBRANCH   1   4
BRANCH   1  19
HETATM   19  C   UNL     1      28.413  40.763  52.847  1.00  0.00     0.336 C 
BRANCH  19  20
HETATM   20  C   UNL     1      27.819  40.564  51.452  1.00  0.00     0.248 C 
HETATM   21  N   UNL     1      28.729  40.185  50.490  1.00  0.00    -0.326 N 
HETATM   22  H   UNL     1      29.699  40.057  50.762  1.00  0.00     0.169 HD
HETATM   23  O   UNL     1      26.612  40.760  51.317  1.00  0.00    -0.271 OA
BRANCH  21  24
HETATM   24  C   UNL     1      28.468  39.949  49.119  1.00  0.00     0.037 A 
HETATM   25  C   UNL     1      28.089  40.952  48.218  1.00  0.00     0.061 A 
HETATM   26  C   UNL     1      27.874  40.572  46.911  1.00  0.00     0.065 A 
HETATM   27  C   UNL     1      28.020  39.257  46.478  1.00  0.00     0.063 A 
HETATM   28  N   UNL     1      27.495  41.341  45.815  1.00  0.00    -0.306 N 
HETATM   29  N   UNL     1      27.733  39.216  45.120  1.00  0.00    -0.307 N 
HETATM   30  C   UNL     1      28.389  38.249  47.332  1.00  0.00     0.034 A 
HETATM   31  C   UNL     1      27.404  40.510  44.690  1.00  0.00     0.325 A 
HETATM   32  H   UNL     1      27.747  38.415  44.510  1.00  0.00     0.170 HD
HETATM   33  O   UNL     1      27.098  40.846  43.561  1.00  0.00    -0.247 OA
HETATM   34  C   UNL     1      28.613  38.609  48.668  1.00  0.00     0.032 A 
HETATM   35  H   UNL     1      27.307  42.330  45.789  1.00  0.00     0.170 HD
ENDBRANCH  21  24
ENDBRANCH  19  20
ENDBRANCH   1  19
TORSDOF 7
ENDMDL
MODEL 4
REMARK VINA RESULT:      -8.5      3.452      5.668
REMARK  7 active torsions:
REMARK  status: ('A' for Active; 'I' for Inactive)
REMARK    1  A    between atoms: O_2  and  C_3 
REMARK    2  A    between atoms: C_6  and  C_7 
REMARK    3  A    between atoms: C_7  and  N_8 
REMARK    4  A    between atoms: C_7  and  C_25 
REMARK    5  A    between atoms: N_8  and  C_11 
REMARK    6  A    between atoms: C_11  and  C_12 
REMARK       I    between atoms: C_12  and  N_13 
REMARK    7  A    between atoms: N_13  and  C_14 
ROOT
HETATM    1  N   UNL     1      22.931  47.075  49.377  1.00  0.00    -0.055 N 
HETATM    2  H   UNL     1      23.617  46.968  50.141  1.00  0.00     0.278 HD
HETATM    3  H   UNL     1      22.047  47.239  49.873  1.00  0.00     0.278 HD
ENDROOT
BRANCH   1   4
HETATM    4  C   UNL     1      23.245  48.286  48.556  1.00  0.00     0.252 C 
BRANCH   4   5
HETATM    5  C   UNL     1      22.215  49.413  48.621  1.00  0.00    -0.023 A 
HETATM    6  C   UNL     1      21.332  49.611  47.538  1.00  0.00     0.012 A 
HETATM    7  C   UNL     1      20.341  50.601  47.567  1.00  0.00     0.037 A 
HETATM    8  C   UNL     1      20.189  51.404  48.692  1.00  0.00     0.068 A 
HETATM    9  C   UNL     1      21.033  51.203  49.782  1.00  0.00     0.037 A 
HETATM   10  C   UNL     1      22.026  50.217  49.758  1.00  0.00     0.012 A 
BRANCH   8  11
HETATM   11  O   UNL     1      19.267  52.396  48.858  1.00  0.00    -0.356 OA
HETATM   12  C   UNL     1      18.189  52.141  49.753  1.00  0.00     0.210 C 
ENDBRANCH   8  11
ENDBRANCH   4   5
BRANCH   4  13
HETATM   13  C   UNL     1      24.699  48.687  48.785  1.00  0.00    -0.023 A 
HETATM   14  C   UNL     1      25.235  49.778  48.077  1.00  0.00     0.009 A 
HETATM   15  C   UNL     1      26.577  50.132  48.223  1.00  0.00     0.001 A 
HETATM   16  C   UNL     1      27.404  49.399  49.069  1.00  0.00     0.000 A 
HETATM   17  C   UNL     1      26.892  48.313  49.776  1.00  0.00     0.001 A 
HETATM   18  C   UNL     1      25.550  47.956  49.634  1.00  0.00     0.009 A 
ENDBRANCH   4  13
ENDBRANCH   1   4
BRANCH   1  19
HETATM   19  C   UNL     1      22.821  45.744  48.672  1.00  0.00     0.336 C 
BRANCH  19  20
HETATM   20  C   UNL     1      23.606  44.696  49.460  1.00  0.00     0.248 C 
HETATM   21  N   UNL     1      24.897  44.497  49.021  1.00  0.00    -0.326 N 
HETATM   22  H   UNL     1      25.234  45.046  48.237  1.00  0.00     0.169 HD
HETATM   23  O   UNL     1      23.028  44.135  50.391  1.00  0.00    -0.271 OA
BRANCH  21  24
HETATM   24  C   UNL     1      25.842  43.583  49.547  1.00  0.00     0.037 A 
HETATM   25  C   UNL     1      26.035  42.291  49.042  1.00  0.00     0.061 A 
HETATM   26  C   UNL     1      26.997  41.516  49.653  1.00  0.00     0.065 A 
HETATM   27  C   UNL     1      27.756  41.972  50.727  1.00  0.00     0.063 A 
HETATM   28  N   UNL     1      27.399  40.215  49.368  1.00  0.00    -0.306 N 
HETATM   29  N   UNL     1      28.625  40.955  51.102  1.00  0.00    -0.307 N 
HETATM   30  C   UNL     1      27.594  43.229  51.248  1.00  0.00     0.034 A 
HETATM   31  C   UNL     1      28.415  39.850  50.263  1.00  0.00     0.325 A 
HETATM   32  H   UNL     1      29.306  40.967  51.844  1.00  0.00     0.170 HD
HETATM   33  O   UNL     1      29.000  38.784  50.304  1.00  0.00    -0.247 OA
HETATM   34  C   UNL     1      26.621  44.038  50.645  1.00  0.00     0.032 A 
HETATM   35  H   UNL     1      27.048  39.601  48.651  1.00  0.00     0.170 HD
ENDBRANCH  21  24
ENDBRANCH  19  20
ENDBRANCH   1  19
TORSDOF 7
ENDMDL
MODEL 5
REMARK VINA RESULT:      -8.4      2.894      4.793
REMARK  7 active torsions:
REMARK  status: ('A' for Active; 'I' for Inactive)
REMARK    1  A    between atoms: O_2  and  C_3 
REMARK    2  A    between atoms: C_6  and  C_7 
REMARK    3  A    between atoms: C_7  and  N_8 
REMARK    4  A    between atoms: C_7  and  C_25 
REMARK    5  A    between atoms: N_8  and  C_11 
REMARK    6  A    between atoms: C_11  and  C_12 
REMARK       I    between atoms: C_12  and  N_13 
REMARK    7  A    between atoms: N_13  and  C_14 
ROOT
HETATM    1  N   UNL     1      29.037  42.140  52.098  1.00  0.00    -0.055 N 
HETATM    2  H   UNL     1      29.106  42.509  51.136  1.00  0.00     0.278 HD
HETATM    3  H   UNL     1      29.993  42.239  52.458  1.00  0.00     0.278 HD
ENDROOT
BRANCH   1   4
HETATM    4  C   UNL     1      28.127  42.992  52.925  1.00  0.00     0.252 C 
BRANCH   4   5
HETATM    5  C   UNL     1      28.804  43.803  54.029  1.00  0.00    -0.023 A 
HETATM    6  C   UNL     1      28.210  45.004  54.473  1.00  0.00     0.012 A 
HETATM    7  C   UNL     1      28.767  45.761  55.512  1.00  0.00     0.037 A 
HETATM    8  C   UNL     1      29.920  45.322  56.155  1.00  0.00     0.068 A 
HETATM    9  C   UNL     1      30.503  44.123  55.749  1.00  0.00     0.037 A 
HETATM   10  C   UNL     1      29.952  43.365  54.709  1.00  0.00     0.012 A 
BRANCH   8  11
HETATM   11  O   UNL     1      30.563  45.952  57.181  1.00  0.00    -0.356 OA
HETATM   12  C   UNL     1      30.891  45.167  58.322  1.00  0.00     0.210 C 
ENDBRANCH   8  11
ENDBRANCH   4   5
BRANCH   4  13
HETATM   13  C   UNL     1      27.183  43.761  52.005  1.00  0.00    -0.023 A 
HETATM   14  C   UNL     1      25.822  43.870  52.346  1.00  0.00     0.009 A 
HETATM   15  C   UNL     1      24.925  44.517  51.495  1.00  0.00     0.001 A 
HETATM   16  C   UNL     1      25.369  45.057  50.292  1.00  0.00     0.000 A 
HETATM   17  C   UNL     1      26.711  44.955  49.936  1.00  0.00     0.001 A 
HETATM   18  C   UNL     1      27.614  44.309  50.783  1.00  0.00     0.009 A 
ENDBRANCH   4  13
ENDBRANCH   1   4
BRANCH   1  19
HETATM   19  C   UNL     1      28.737  40.662  51.998  1.00  0.00     0.336 C 
BRANCH  19  20
HETATM   20  C   UNL     1      28.018  40.388  50.678  1.00  0.00     0.248 C 
HETATM   21  N   UNL     1      28.853  40.206  49.597  1.00  0.00    -0.326 N 
HETATM   22  H   UNL     1      29.856  40.255  49.744  1.00  0.00     0.169 HD
HETATM   23  O   UNL     1      26.787  40.358  50.697  1.00  0.00    -0.271 OA
BRANCH  21  24
HETATM   24  C   UNL     1      28.467  39.955  48.258  1.00  0.00     0.037 A 
HETATM   25  C   UNL     1      28.083  40.959  47.361  1.00  0.00     0.061 A 
HETATM   26  C   UNL     1      27.739  40.564  46.086  1.00  0.00     0.065 A 
HETATM   27  C   UNL     1      27.765  39.232  45.682  1.00  0.00     0.063 A 
HETATM   28  N   UNL     1      27.325  41.331  45.002  1.00  0.00    -0.306 N 
HETATM   29  N   UNL     1      27.367  39.178  44.352  1.00  0.00    -0.307 N 
HETATM   30  C   UNL     1      28.134  38.222  46.532  1.00  0.00     0.034 A 
HETATM   31  C   UNL     1      27.089  40.481  43.911  1.00  0.00     0.325 A 
HETATM   32  H   UNL     1      27.281  38.364  43.766  1.00  0.00     0.170 HD
HETATM   33  O   UNL     1      26.716  40.810  42.801  1.00  0.00    -0.247 OA
HETATM   34  C   UNL     1      28.488  38.598  47.836  1.00  0.00     0.032 A 
HETATM   35  H   UNL     1      27.200  42.329  44.962  1.00  0.00     0.170 HD
ENDBRANCH  21  24
ENDBRANCH  19  20
ENDBRANCH   1  19
TORSDOF 7
ENDMDL
MODEL 6
REMARK VINA RESULT:      -8.3      3.848      5.956
REMARK  7 active torsions:
REMARK  status: ('A' for Active; 'I' for Inactive)
REMARK    1  A    between atoms: O_2  and  C_3 
REMARK    2  A    between atoms: C_6  and  C_7 
REMARK    3  A    between atoms: C_7  and  N_8 
REMARK    4  A    between atoms: C_7  and  C_25 
REMARK    5  A    between atoms: N_8  and  C_11 
REMARK    6  A    between atoms: C_11  and  C_12 
REMARK       I    between atoms: C_12  and  N_13 
REMARK    7  A    between atoms: N_13  and  C_14 
ROOT
HETATM    1  N   UNL     1      20.826  47.560  47.733  1.00  0.00    -0.055 N 
HETATM    2  H   UNL     1      20.004  47.905  47.213  1.00  0.00     0.278 HD
HETATM    3  H   UNL     1      21.529  47.418  46.999  1.00  0.00     0.278 HD
ENDROOT
BRANCH   1   4
HETATM    4  C   UNL     1      21.328  48.609  48.674  1.00  0.00     0.252 C 
BRANCH   4   5
HETATM    5  C   UNL     1      22.829  48.891  48.609  1.00  0.00    -0.023 A 
HETATM    6  C   UNL     1      23.302  49.956  47.814  1.00  0.00     0.012 A 
HETATM    7  C   UNL     1      24.663  50.283  47.755  1.00  0.00     0.037 A 
HETATM    8  C   UNL     1      25.586  49.571  48.513  1.00  0.00     0.068 A 
HETATM    9  C   UNL     1      25.132  48.534  49.327  1.00  0.00     0.037 A 
HETATM   10  C   UNL     1      23.774  48.202  49.387  1.00  0.00     0.012 A 
BRANCH   8  11
HETATM   11  O   UNL     1      26.933  49.785  48.558  1.00  0.00    -0.356 OA
HETATM   12  C   UNL     1      27.737  48.756  49.124  1.00  0.00     0.210 C 
ENDBRANCH   8  11
ENDBRANCH   4   5
BRANCH   4  13
HETATM   13  C   UNL     1      20.410  49.826  48.610  1.00  0.00    -0.023 A 
HETATM   14  C   UNL     1      19.817  50.181  47.385  1.00  0.00     0.009 A 
HETATM   15  C   UNL     1      19.019  51.321  47.284  1.00  0.00     0.001 A 
HETATM   16  C   UNL     1      18.807  52.126  48.400  1.00  0.00     0.000 A 
HETATM   17  C   UNL     1      19.389  51.793  49.620  1.00  0.00     0.001 A 
HETATM   18  C   UNL     1      20.188  50.653  49.727  1.00  0.00     0.009 A 
ENDBRANCH   4  13
ENDBRANCH   1   4
BRANCH   1  19
HETATM   19  C   UNL     1      20.474  46.204  48.298  1.00  0.00     0.336 C 
BRANCH  19  20
HETATM   20  C   UNL     1      21.729  45.332  48.320  1.00  0.00     0.248 C 
HETATM   21  N   UNL     1      21.958  44.687  49.516  1.00  0.00    -0.326 N 
HETATM   22  H   UNL     1      21.297  44.820  50.274  1.00  0.00     0.169 HD
HETATM   23  O   UNL     1      22.409  45.289  47.295  1.00  0.00    -0.271 OA
BRANCH  21  24
HETATM   24  C   UNL     1      23.046  43.836  49.828  1.00  0.00     0.037 A 
HETATM   25  C   UNL     1      23.323  42.648  49.140  1.00  0.00     0.061 A 
HETATM   26  C   UNL     1      24.421  41.925  49.554  1.00  0.00     0.065 A 
HETATM   27  C   UNL     1      25.235  42.334  50.606  1.00  0.00     0.063 A 
HETATM   28  N   UNL     1      24.929  40.727  49.063  1.00  0.00    -0.306 N 
HETATM   29  N   UNL     1      26.242  41.391  50.764  1.00  0.00    -0.307 N 
HETATM   30  C   UNL     1      24.993  43.490  51.304  1.00  0.00     0.034 A 
HETATM   31  C   UNL     1      26.066  40.380  49.807  1.00  0.00     0.325 A 
HETATM   32  H   UNL     1      26.991  41.394  51.437  1.00  0.00     0.170 HD
HETATM   33  O   UNL     1      26.763  39.394  49.652  1.00  0.00    -0.247 OA
HETATM   34  C   UNL     1      23.881  44.244  50.903  1.00  0.00     0.032 A 
HETATM   35  H   UNL     1      24.573  40.168  48.305  1.00  0.00     0.170 HD
ENDBRANCH  21  24
ENDBRANCH  19  20
ENDBRANCH   1  19
TORSDOF 7
ENDMDL
MODEL 7
REMARK VINA RESULT:      -8.3      1.860      4.409
REMARK  7 active torsions:
REMARK  status: ('A' for Active; 'I' for Inactive)
REMARK    1  A    between atoms: O_2  and  C_3 
REMARK    2  A    between atoms: C_6  and  C_7 
REMARK    3  A    between atoms: C_7  and  N_8 
REMARK    4  A    between atoms: C_7  and  C_25 
REMARK    5  A    between atoms: N_8  and  C_11 
REMARK    6  A    between atoms: C_11  and  C_12 
REMARK       I    between atoms: C_12  and  N_13 
REMARK    7  A    between atoms: N_13  and  C_14 
ROOT
HETATM    1  N   UNL     1      24.728  44.654  50.245  1.00  0.00    -0.055 N 
HETATM    2  H   UNL     1      24.929  43.929  50.951  1.00  0.00     0.278 HD
HETATM    3  H   UNL     1      23.767  44.941  50.468  1.00  0.00     0.278 HD
ENDROOT
BRANCH   1   4
HETATM    4  C   UNL     1      25.629  45.833  50.431  1.00  0.00     0.252 C 
BRANCH   4   5
HETATM    5  C   UNL     1      25.156  47.135  49.786  1.00  0.00    -0.023 A 
HETATM    6  C   UNL     1      23.773  47.388  49.664  1.00  0.00     0.012 A 
HETATM    7  C   UNL     1      23.288  48.586  49.121  1.00  0.00     0.037 A 
HETATM    8  C   UNL     1      24.174  49.576  48.712  1.00  0.00     0.068 A 
HETATM    9  C   UNL     1      25.543  49.355  48.852  1.00  0.00     0.037 A 
HETATM   10  C   UNL     1      26.033  48.160  49.391  1.00  0.00     0.012 A 
BRANCH   8  11
HETATM   11  O   UNL     1      23.842  50.786  48.175  1.00  0.00    -0.356 OA
HETATM   12  C   UNL     1      22.480  51.187  48.267  1.00  0.00     0.210 C 
ENDBRANCH   8  11
ENDBRANCH   4   5
BRANCH   4  13
HETATM   13  C   UNL     1      26.051  45.919  51.895  1.00  0.00    -0.023 A 
HETATM   14  C   UNL     1      25.672  47.037  52.659  1.00  0.00     0.009 A 
HETATM   15  C   UNL     1      26.092  47.170  53.983  1.00  0.00     0.001 A 
HETATM   16  C   UNL     1      26.901  46.196  54.560  1.00  0.00     0.000 A 
HETATM   17  C   UNL     1      27.290  45.084  53.818  1.00  0.00     0.001 A 
HETATM   18  C   UNL     1      26.872  44.945  52.493  1.00  0.00     0.009 A 
ENDBRANCH   4  13
ENDBRANCH   1   4
BRANCH   1  19
HETATM   19  C   UNL     1      24.702  43.981  48.893  1.00  0.00     0.336 C 
BRANCH  19  20
HETATM   20  C   UNL     1      25.218  42.549  49.039  1.00  0.00     0.248 C 
HETATM   21  N   UNL     1      26.585  42.419  48.926  1.00  0.00    -0.326 N 
HETATM   22  H   UNL     1      27.142  43.252  48.768  1.00  0.00     0.169 HD
HETATM   23  O   UNL     1      24.387  41.663  49.236  1.00  0.00    -0.271 OA
BRANCH  21  24
HETATM   24  C   UNL     1      27.333  41.219  49.000  1.00  0.00     0.037 A 
HETATM   25  C   UNL     1      27.781  40.657  50.202  1.00  0.00     0.061 A 
HETATM   26  C   UNL     1      28.495  39.481  50.118  1.00  0.00     0.065 A 
HETATM   27  C   UNL     1      28.772  38.858  48.904  1.00  0.00     0.063 A 
HETATM   28  N   UNL     1      29.054  38.709  51.131  1.00  0.00    -0.306 N 
HETATM   29  N   UNL     1      29.500  37.705  49.169  1.00  0.00    -0.307 N 
HETATM   30  C   UNL     1      28.351  39.379  47.708  1.00  0.00     0.034 A 
HETATM   31  C   UNL     1      29.685  37.597  50.555  1.00  0.00     0.325 A 
HETATM   32  H   UNL     1      29.854  37.033  48.508  1.00  0.00     0.170 HD
HETATM   33  O   UNL     1      30.277  36.711  51.144  1.00  0.00    -0.247 OA
HETATM   34  C   UNL     1      27.624  40.576  47.766  1.00  0.00     0.032 A 
HETATM   35  H   UNL     1      29.035  38.882  52.123  1.00  0.00     0.170 HD
ENDBRANCH  21  24
ENDBRANCH  19  20
ENDBRANCH   1  19
TORSDOF 7
ENDMDL
MODEL 8
REMARK VINA RESULT:      -8.2      4.521      7.623
REMARK  7 active torsions:
REMARK  status: ('A' for Active; 'I' for Inactive)
REMARK    1  A    between atoms: O_2  and  C_3 
REMARK    2  A    between atoms: C_6  and  C_7 
REMARK    3  A    between atoms: C_7  and  N_8 
REMARK    4  A    between atoms: C_7  and  C_25 
REMARK    5  A    between atoms: N_8  and  C_11 
REMARK    6  A    between atoms: C_11  and  C_12 
REMARK       I    between atoms: C_12  and  N_13 
REMARK    7  A    between atoms: N_13  and  C_14 
ROOT
HETATM    1  N   UNL     1      22.221  48.951  49.457  1.00  0.00    -0.055 N 
HETATM    2  H   UNL     1      21.987  49.582  50.239  1.00  0.00     0.278 HD
HETATM    3  H   UNL     1      22.249  48.025  49.900  1.00  0.00     0.278 HD
ENDROOT
BRANCH   1   4
HETATM    4  C   UNL     1      21.129  48.954  48.434  1.00  0.00     0.252 C 
BRANCH   4   5
HETATM    5  C   UNL     1      20.547  47.585  48.084  1.00  0.00    -0.023 A 
HETATM    6  C   UNL     1      19.788  47.433  46.904  1.00  0.00     0.012 A 
HETATM    7  C   UNL     1      19.271  46.190  46.515  1.00  0.00     0.037 A 
HETATM    8  C   UNL     1      19.523  45.059  47.283  1.00  0.00     0.068 A 
HETATM    9  C   UNL     1      20.295  45.185  48.436  1.00  0.00     0.037 A 
HETATM   10  C   UNL     1      20.812  46.424  48.830  1.00  0.00     0.012 A 
BRANCH   8  11
HETATM   11  O   UNL     1      19.089  43.791  47.021  1.00  0.00    -0.356 OA
HETATM   12  C   UNL     1      19.609  43.153  45.859  1.00  0.00     0.210 C 
ENDBRANCH   8  11
ENDBRANCH   4   5
BRANCH   4  13
HETATM   13  C   UNL     1      20.121  50.048  48.777  1.00  0.00    -0.023 A 
HETATM   14  C   UNL     1      20.273  51.329  48.215  1.00  0.00     0.009 A 
HETATM   15  C   UNL     1      19.401  52.363  48.555  1.00  0.00     0.001 A 
HETATM   16  C   UNL     1      18.371  52.138  49.464  1.00  0.00     0.000 A 
HETATM   17  C   UNL     1      18.207  50.877  50.033  1.00  0.00     0.001 A 
HETATM   18  C   UNL     1      19.077  49.838  49.696  1.00  0.00     0.009 A 
ENDBRANCH   4  13
ENDBRANCH   1   4
BRANCH   1  19
HETATM   19  C   UNL     1      23.623  49.284  49.005  1.00  0.00     0.336 C 
BRANCH  19  20
HETATM   20  C   UNL     1      24.586  48.227  49.548  1.00  0.00     0.248 C 
HETATM   21  N   UNL     1      23.994  47.263  50.334  1.00  0.00    -0.326 N 
HETATM   22  H   UNL     1      22.992  47.309  50.489  1.00  0.00     0.169 HD
HETATM   23  O   UNL     1      25.774  48.333  49.245  1.00  0.00    -0.271 OA
BRANCH  21  24
HETATM   24  C   UNL     1      24.639  46.181  50.980  1.00  0.00     0.037 A 
HETATM   25  C   UNL     1      25.641  46.339  51.945  1.00  0.00     0.061 A 
HETATM   26  C   UNL     1      26.172  45.191  52.492  1.00  0.00     0.065 A 
HETATM   27  C   UNL     1      25.750  43.918  52.119  1.00  0.00     0.063 A 
HETATM   28  N   UNL     1      27.164  45.045  53.457  1.00  0.00    -0.306 N 
HETATM   29  N   UNL     1      26.479  42.990  52.852  1.00  0.00    -0.307 N 
HETATM   30  C   UNL     1      24.773  43.724  51.177  1.00  0.00     0.034 A 
HETATM   31  C   UNL     1      27.367  43.678  53.693  1.00  0.00     0.325 A 
HETATM   32  H   UNL     1      26.413  41.986  52.818  1.00  0.00     0.170 HD
HETATM   33  O   UNL     1      28.159  43.185  54.475  1.00  0.00    -0.247 OA
HETATM   34  C   UNL     1      24.216  44.876  50.605  1.00  0.00     0.032 A 
HETATM   35  H   UNL     1      27.677  45.770  53.931  1.00  0.00     0.170 HD
ENDBRANCH  21  24
ENDBRANCH  19  20
ENDBRANCH   1  19
TORSDOF 7
ENDMDL
MODEL 9
REMARK VINA RESULT:      -8.2      2.912      4.640
REMARK  7 active torsions:
REMARK  status: ('A' for Active; 'I' for Inactive)
REMARK    1  A    between atoms: O_2  and  C_3 
REMARK    2  A    between atoms: C_6  and  C_7 
REMARK    3  A    between atoms: C_7  and  N_8 
REMARK    4  A    between atoms: C_7  and  C_25 
REMARK    5  A    between atoms: N_8  and  C_11 
REMARK    6  A    between atoms: C_11  and  C_12 
REMARK       I    between atoms: C_12  and  N_13 
REMARK    7  A    between atoms: N_13  and  C_14 
ROOT
HETATM    1  N   UNL     1      28.889  42.121  51.984  1.00  0.00    -0.055 N 
HETATM    2  H   UNL     1      28.788  42.418  51.001  1.00  0.00     0.278 HD
HETATM    3  H   UNL     1      29.863  42.359  52.204  1.00  0.00     0.278 HD
ENDROOT
BRANCH   1   4
HETATM    4  C   UNL     1      27.993  42.928  52.870  1.00  0.00     0.252 C 
BRANCH   4   5
HETATM    5  C   UNL     1      28.687  43.673  54.009  1.00  0.00    -0.023 A 
HETATM    6  C   UNL     1      29.900  43.175  54.529  1.00  0.00     0.012 A 
HETATM    7  C   UNL     1      30.599  43.845  55.542  1.00  0.00     0.037 A 
HETATM    8  C   UNL     1      30.115  45.048  56.045  1.00  0.00     0.068 A 
HETATM    9  C   UNL     1      28.933  45.570  55.524  1.00  0.00     0.037 A 
HETATM   10  C   UNL     1      28.230  44.903  54.513  1.00  0.00     0.012 A 
BRANCH   8  11
HETATM   11  O   UNL     1      30.693  45.806  57.022  1.00  0.00    -0.356 OA
HETATM   12  C   UNL     1      30.294  45.551  58.365  1.00  0.00     0.210 C 
ENDBRANCH   8  11
ENDBRANCH   4   5
BRANCH   4  13
HETATM   13  C   UNL     1      27.039  43.750  52.008  1.00  0.00    -0.023 A 
HETATM   14  C   UNL     1      27.522  44.370  50.841  1.00  0.00     0.009 A 
HETATM   15  C   UNL     1      26.686  45.174  50.065  1.00  0.00     0.001 A 
HETATM   16  C   UNL     1      25.363  45.378  50.446  1.00  0.00     0.000 A 
HETATM   17  C   UNL     1      24.869  44.776  51.600  1.00  0.00     0.001 A 
HETATM   18  C   UNL     1      25.700  43.969  52.380  1.00  0.00     0.009 A 
ENDBRANCH   4  13
ENDBRANCH   1   4
BRANCH   1  19
HETATM   19  C   UNL     1      28.764  40.616  52.023  1.00  0.00     0.336 C 
BRANCH  19  20
HETATM   20  C   UNL     1      28.325  40.117  50.646  1.00  0.00     0.248 C 
HETATM   21  N   UNL     1      28.440  38.756  50.466  1.00  0.00    -0.326 N 
HETATM   22  H   UNL     1      28.787  38.192  51.235  1.00  0.00     0.169 HD
HETATM   23  O   UNL     1      27.921  40.956  49.841  1.00  0.00    -0.271 OA
BRANCH  21  24
HETATM   24  C   UNL     1      28.126  38.024  49.296  1.00  0.00     0.037 A 
HETATM   25  C   UNL     1      28.939  37.996  48.157  1.00  0.00     0.061 A 
HETATM   26  C   UNL     1      28.506  37.233  47.094  1.00  0.00     0.065 A 
HETATM   27  C   UNL     1      27.316  36.512  47.125  1.00  0.00     0.063 A 
HETATM   28  N   UNL     1      29.100  37.021  45.855  1.00  0.00    -0.306 N 
HETATM   29  N   UNL     1      27.176  35.858  45.908  1.00  0.00    -0.307 N 
HETATM   30  C   UNL     1      26.493  36.517  48.222  1.00  0.00     0.034 A 
HETATM   31  C   UNL     1      28.283  36.165  45.102  1.00  0.00     0.325 A 
HETATM   32  H   UNL     1      26.425  35.255  45.613  1.00  0.00     0.170 HD
HETATM   33  O   UNL     1      28.494  35.767  43.972  1.00  0.00    -0.247 OA
HETATM   34  C   UNL     1      26.911  37.286  49.317  1.00  0.00     0.032 A 
HETATM   35  H   UNL     1      29.968  37.400  45.511  1.00  0.00     0.170 HD
ENDBRANCH  21  24
ENDBRANCH  19  20
ENDBRANCH   1  19
TORSDOF 7
ENDMDL
MODEL 10
REMARK VINA RESULT:      -8.2      3.071      5.943
REMARK  7 active torsions:
REMARK  status: ('A' for Active; 'I' for Inactive)
REMARK    1  A    between atoms: O_2  and  C_3 
REMARK    2  A    between atoms: C_6  and  C_7 
REMARK    3  A    between atoms: C_7  and  N_8 
REMARK    4  A    between atoms: C_7  and  C_25 
REMARK    5  A    between atoms: N_8  and  C_11 
REMARK    6  A    between atoms: C_11  and  C_12 
REMARK       I    between atoms: C_12  and  N_13 
REMARK    7  A    between atoms: N_13  and  C_14 
ROOT
HETATM    1  N   UNL     1      27.520  42.151  53.796  1.00  0.00    -0.055 N 
HETATM    2  H   UNL     1      27.606  42.182  54.824  1.00  0.00     0.278 HD
HETATM    3  H   UNL     1      26.504  42.165  53.644  1.00  0.00     0.278 HD
ENDROOT
BRANCH   1   4
HETATM    4  C   UNL     1      28.109  43.381  53.181  1.00  0.00     0.252 C 
BRANCH   4   5
HETATM    5  C   UNL     1      27.171  44.185  52.283  1.00  0.00    -0.023 A 
HETATM    6  C   UNL     1      27.545  44.454  50.950  1.00  0.00     0.012 A 
HETATM    7  C   UNL     1      26.702  45.149  50.073  1.00  0.00     0.037 A 
HETATM    8  C   UNL     1      25.447  45.570  50.499  1.00  0.00     0.068 A 
HETATM    9  C   UNL     1      25.048  45.288  51.804  1.00  0.00     0.037 A 
HETATM   10  C   UNL     1      25.888  44.597  52.684  1.00  0.00     0.012 A 
BRANCH   8  11
HETATM   11  O   UNL     1      24.525  46.247  49.753  1.00  0.00    -0.356 OA
HETATM   12  C   UNL     1      23.463  45.488  49.186  1.00  0.00     0.210 C 
ENDBRANCH   8  11
ENDBRANCH   4   5
BRANCH   4  13
HETATM   13  C   UNL     1      28.859  44.169  54.251  1.00  0.00    -0.023 A 
HETATM   14  C   UNL     1      30.019  43.620  54.829  1.00  0.00     0.009 A 
HETATM   15  C   UNL     1      30.692  44.292  55.849  1.00  0.00     0.001 A 
HETATM   16  C   UNL     1      30.216  45.515  56.313  1.00  0.00     0.000 A 
HETATM   17  C   UNL     1      29.068  46.072  55.756  1.00  0.00     0.001 A 
HETATM   18  C   UNL     1      28.390  45.404  54.734  1.00  0.00     0.009 A 
ENDBRANCH   4  13
ENDBRANCH   1   4
BRANCH   1  19
HETATM   19  C   UNL     1      28.032  40.806  53.336  1.00  0.00     0.336 C 
BRANCH  19  20
HETATM   20  C   UNL     1      27.852  40.697  51.822  1.00  0.00     0.248 C 
HETATM   21  N   UNL     1      26.549  40.810  51.389  1.00  0.00    -0.326 N 
HETATM   22  H   UNL     1      25.820  40.963  52.078  1.00  0.00     0.169 HD
HETATM   23  O   UNL     1      28.863  40.518  51.142  1.00  0.00    -0.271 OA
BRANCH  21  24
HETATM   24  C   UNL     1      26.087  40.730  50.053  1.00  0.00     0.037 A 
HETATM   25  C   UNL     1      25.364  41.749  49.420  1.00  0.00     0.061 A 
HETATM   26  C   UNL     1      24.985  41.531  48.113  1.00  0.00     0.065 A 
HETATM   27  C   UNL     1      25.295  40.359  47.429  1.00  0.00     0.063 A 
HETATM   28  N   UNL     1      24.272  42.354  47.249  1.00  0.00    -0.306 N 
HETATM   29  N   UNL     1      24.773  40.459  46.145  1.00  0.00    -0.307 N 
HETATM   30  C   UNL     1      26.000  39.340  48.016  1.00  0.00     0.034 A 
HETATM   31  C   UNL     1      24.131  41.700  46.016  1.00  0.00     0.325 A 
HETATM   32  H   UNL     1      24.825  39.781  45.403  1.00  0.00     0.170 HD
HETATM   33  O   UNL     1      23.562  42.126  45.028  1.00  0.00    -0.247 OA
HETATM   34  C   UNL     1      26.396  39.536  49.346  1.00  0.00     0.032 A 
HETATM   35  H   UNL     1      23.898  43.270  47.434  1.00  0.00     0.170 HD
ENDBRANCH  21  24
ENDBRANCH  19  20
ENDBRANCH   1  19
TORSDOF 7
ENDMDL
