MODEL 1
REMARK VINA RESULT:     -10.3      0.000      0.000
REMARK  7 active torsions:
REMARK  status: ('A' for Active; 'I' for Inactive)
REMARK    1  A    between atoms: C_2  and  C_3 
REMARK       I    between atoms: C_3  and  N_4 
REMARK    2  A    between atoms: N_7  and  C_8 
REMARK    3  A    between atoms: C_11  and  N_12 
REMARK    4  A    between atoms: N_12  and  C_13 
REMARK    5  A    between atoms: C_13  and  N_14 
REMARK       I    between atoms: N_14  and  C_15 
REMARK    6  A    between atoms: C_15  and  C_16 
REMARK    7  A    between atoms: C_18  and  C_19 
ROOT
HETATM    1  C   UNL     1      22.376  47.489  48.879  1.00  0.00     0.179 C 
HETATM    2  S   UNL     1      21.817  46.839  47.439  1.00  0.00    -0.040 SA
ENDROOT
BRANCH   1   3
HETATM    3  N   UNL     1      22.025  48.676  49.475  1.00  0.00    -0.333 N 
HETATM    4  H   UNL     1      22.774  49.131  49.994  1.00  0.00     0.168 HD
BRANCH   3   5
HETATM    5  C   UNL     1      20.831  49.415  49.329  1.00  0.00     0.034 A 
HETATM    6  C   UNL     1      20.810  50.715  48.838  1.00  0.00     0.032 A 
HETATM    7  C   UNL     1      19.603  51.408  48.715  1.00  0.00     0.031 A 
HETATM    8  C   UNL     1      18.375  50.845  49.096  1.00  0.00     0.030 A 
HETATM    9  C   UNL     1      18.408  49.509  49.518  1.00  0.00     0.031 A 
HETATM   10  C   UNL     1      19.617  48.796  49.619  1.00  0.00     0.032 A 
BRANCH   8  11
HETATM   11  N   UNL     1      17.205  51.608  48.989  1.00  0.00    -0.378 N 
HETATM   12  C   UNL     1      16.914  52.103  47.619  1.00  0.00     0.143 C 
HETATM   13  C   UNL     1      15.439  52.507  47.503  1.00  0.00     0.145 C 
HETATM   14  N   UNL     1      15.006  53.439  48.550  1.00  0.00    -0.349 N 
HETATM   15  C   UNL     1      13.862  54.186  48.279  1.00  0.00     0.219 C 
HETATM   16  C   UNL     1      15.434  53.086  49.913  1.00  0.00     0.145 C 
HETATM   17  O   UNL     1      13.357  54.220  47.156  1.00  0.00    -0.273 OA
HETATM   18  C   UNL     1      16.905  52.627  50.012  1.00  0.00     0.143 C 
BRANCH  15  19
HETATM   19  C   UNL     1      13.274  54.983  49.432  1.00  0.00     0.098 C 
HETATM   20  C   UNL     1      11.916  54.453  49.866  1.00  0.00     0.014 C 
ENDBRANCH  15  19
ENDBRANCH   8  11
ENDBRANCH   3   5
ENDBRANCH   1   3
BRANCH   1  21
HETATM   21  N   UNL     1      23.319  46.740  49.542  1.00  0.00    -0.298 N 
HETATM   22  C   UNL     1      24.405  47.134  50.312  1.00  0.00     0.281 C 
HETATM   23  O   UNL     1      24.922  48.246  50.236  1.00  0.00    -0.265 OA
HETATM   24  H   UNL     1      23.066  45.763  49.628  1.00  0.00     0.171 HD
BRANCH  22  25
HETATM   25  C   UNL     1      24.877  46.065  51.168  1.00  0.00     0.144 A 
HETATM   26  O   UNL     1      25.847  46.365  52.088  1.00  0.00    -0.304 OA
HETATM   27  C   UNL     1      26.178  45.220  52.751  1.00  0.00     0.086 A 
HETATM   28  C   UNL     1      25.405  44.181  52.269  1.00  0.00     0.041 A 
HETATM   29  C   UNL     1      24.568  44.723  51.256  1.00  0.00     0.046 A 
BRANCH  27  30
HETATM   30  C   UNL     1      27.237  45.354  53.749  1.00  0.00    -0.001 A 
HETATM   31  C   UNL     1      28.170  44.327  53.952  1.00  0.00     0.038 A 
HETATM   32  C   UNL     1      29.172  44.441  54.922  1.00  0.00     0.040 A 
HETATM   33 CL   UNL     1      30.270  43.118  55.106  1.00  0.00    -0.084 Cl
HETATM   34  C   UNL     1      29.270  45.590  55.715  1.00  0.00    -0.040 A 
HETATM   35  C   UNL     1      30.324  45.735  56.776  1.00  0.00     0.050 C 
HETATM   36  C   UNL     1      28.341  46.620  55.513  1.00  0.00     0.009 A 
HETATM   37  C   UNL     1      27.339  46.504  54.541  1.00  0.00     0.015 A 
ENDBRANCH  27  30
ENDBRANCH  22  25
ENDBRANCH   1  21
TORSDOF 7
ENDMDL
MODEL 2
REMARK VINA RESULT:     -10.3      2.274      3.666
REMARK  7 active torsions:
REMARK  status: ('A' for Active; 'I' for Inactive)
REMARK    1  A    between atoms: C_2  and  C_3 
REMARK       I    between atoms: C_3  and  N_4 
REMARK    2  A    between atoms: N_7  and  C_8 
REMARK    3  A    between atoms: C_11  and  N_12 
REMARK    4  A    between atoms: N_12  and  C_13 
REMARK    5  A    between atoms: C_13  and  N_14 
REMARK       I    between atoms: N_14  and  C_15 
REMARK    6  A    between atoms: C_15  and  C_16 
REMARK    7  A    between atoms: C_18  and  C_19 
ROOT
HETATM    1  C   UNL     1      24.197  43.697  49.160  1.00  0.00     0.179 C 
HETATM    2  S   UNL     1      23.785  42.089  48.931  1.00  0.00    -0.040 SA
ENDROOT
BRANCH   1   3
HETATM    3  N   UNL     1      23.901  44.778  48.365  1.00  0.00    -0.333 N 
HETATM    4  H   UNL     1      24.418  44.819  47.489  1.00  0.00     0.168 HD
BRANCH   3   5
HETATM    5  C   UNL     1      22.874  45.733  48.527  1.00  0.00     0.034 A 
HETATM    6  C   UNL     1      23.132  47.071  48.800  1.00  0.00     0.032 A 
HETATM    7  C   UNL     1      22.082  47.979  48.955  1.00  0.00     0.031 A 
HETATM    8  C   UNL     1      20.737  47.589  48.867  1.00  0.00     0.030 A 
HETATM    9  C   UNL     1      20.498  46.253  48.518  1.00  0.00     0.031 A 
HETATM   10  C   UNL     1      21.552  45.338  48.334  1.00  0.00     0.032 A 
BRANCH   8  11
HETATM   11  N   UNL     1      19.728  48.539  49.077  1.00  0.00    -0.378 N 
HETATM   12  C   UNL     1      18.639  48.515  48.068  1.00  0.00     0.143 C 
HETATM   13  C   UNL     1      17.396  49.231  48.611  1.00  0.00     0.145 C 
HETATM   14  N   UNL     1      17.675  50.580  49.116  1.00  0.00    -0.349 N 
HETATM   15  C   UNL     1      16.586  51.444  49.207  1.00  0.00     0.219 C 
HETATM   16  C   UNL     1      18.864  50.688  49.976  1.00  0.00     0.145 C 
HETATM   17  O   UNL     1      15.494  51.171  48.706  1.00  0.00    -0.273 OA
HETATM   18  C   UNL     1      20.095  49.918  49.449  1.00  0.00     0.143 C 
BRANCH  15  19
HETATM   19  C   UNL     1      16.813  52.759  49.934  1.00  0.00     0.098 C 
HETATM   20  C   UNL     1      15.512  53.498  50.208  1.00  0.00     0.014 C 
ENDBRANCH  15  19
ENDBRANCH   8  11
ENDBRANCH   3   5
ENDBRANCH   1   3
BRANCH   1  21
HETATM   21  N   UNL     1      24.942  43.965  50.284  1.00  0.00    -0.298 N 
HETATM   22  C   UNL     1      26.232  44.461  50.414  1.00  0.00     0.281 C 
HETATM   23  O   UNL     1      27.072  44.408  49.519  1.00  0.00    -0.265 OA
HETATM   24  H   UNL     1      24.392  43.974  51.136  1.00  0.00     0.171 HD
BRANCH  22  25
HETATM   25  C   UNL     1      26.475  44.994  51.740  1.00  0.00     0.144 A 
HETATM   26  O   UNL     1      27.568  44.529  52.423  1.00  0.00    -0.304 OA
HETATM   27  C   UNL     1      27.586  45.117  53.653  1.00  0.00     0.086 A 
HETATM   28  C   UNL     1      26.511  45.979  53.756  1.00  0.00     0.041 A 
HETATM   29  C   UNL     1      25.800  45.902  52.527  1.00  0.00     0.046 A 
BRANCH  27  30
HETATM   30  C   UNL     1      28.674  44.699  54.535  1.00  0.00    -0.001 A 
HETATM   31  C   UNL     1      29.035  45.470  55.650  1.00  0.00     0.038 A 
HETATM   32  C   UNL     1      30.090  45.087  56.484  1.00  0.00     0.040 A 
HETATM   33 CL   UNL     1      30.466  46.107  57.829  1.00  0.00    -0.084 Cl
HETATM   34  C   UNL     1      30.813  43.916  56.228  1.00  0.00    -0.040 A 
HETATM   35  C   UNL     1      31.962  43.486  57.096  1.00  0.00     0.050 C 
HETATM   36  C   UNL     1      30.454  43.142  55.116  1.00  0.00     0.009 A 
HETATM   37  C   UNL     1      29.397  43.527  54.282  1.00  0.00     0.015 A 
ENDBRANCH  27  30
ENDBRANCH  22  25
ENDBRANCH   1  21
TORSDOF 7
ENDMDL
MODEL 3
REMARK VINA RESULT:     -10.0      1.809      2.432
REMARK  7 active torsions:
REMARK  status: ('A' for Active; 'I' for Inactive)
REMARK    1  A    between atoms: C_2  and  C_3 
REMARK       I    between atoms: C_3  and  N_4 
REMARK    2  A    between atoms: N_7  and  C_8 
REMARK    3  A    between atoms: C_11  and  N_12 
REMARK    4  A    between atoms: N_12  and  C_13 
REMARK    5  A    between atoms: C_13  and  N_14 
REMARK       I    between atoms: N_14  and  C_15 
REMARK    6  A    between atoms: C_15  and  C_16 
REMARK    7  A    between atoms: C_18  and  C_19 
ROOT
HETATM    1  C   UNL     1      24.525  48.162  49.469  1.00  0.00     0.179 C 
HETATM    2  S   UNL     1      25.232  49.424  48.623  1.00  0.00    -0.040 SA
ENDROOT
BRANCH   1   3
HETATM    3  N   UNL     1      23.190  47.874  49.618  1.00  0.00    -0.333 N 
HETATM    4  H   UNL     1      22.993  46.994  50.092  1.00  0.00     0.168 HD
BRANCH   3   5
HETATM    5  C   UNL     1      22.076  48.698  49.351  1.00  0.00     0.034 A 
HETATM    6  C   UNL     1      22.037  50.042  49.704  1.00  0.00     0.032 A 
HETATM    7  C   UNL     1      20.910  50.818  49.421  1.00  0.00     0.031 A 
HETATM    8  C   UNL     1      19.772  50.284  48.798  1.00  0.00     0.030 A 
HETATM    9  C   UNL     1      19.858  48.949  48.383  1.00  0.00     0.031 A 
HETATM   10  C   UNL     1      21.001  48.168  48.640  1.00  0.00     0.032 A 
BRANCH   8  11
HETATM   11  N   UNL     1      18.656  51.104  48.582  1.00  0.00    -0.378 N 
HETATM   12  C   UNL     1      17.786  51.287  49.772  1.00  0.00     0.143 C 
HETATM   13  C   UNL     1      16.892  52.520  49.591  1.00  0.00     0.145 C 
HETATM   14  N   UNL     1      16.141  52.516  48.331  1.00  0.00    -0.349 N 
HETATM   15  C   UNL     1      15.011  53.328  48.282  1.00  0.00     0.219 C 
HETATM   16  C   UNL     1      16.927  52.155  47.140  1.00  0.00     0.145 C 
HETATM   17  O   UNL     1      14.546  53.861  49.291  1.00  0.00    -0.273 OA
HETATM   18  C   UNL     1      17.865  50.946  47.348  1.00  0.00     0.143 C 
BRANCH  15  19
HETATM   19  C   UNL     1      14.355  53.510  46.923  1.00  0.00     0.098 C 
HETATM   20  C   UNL     1      13.629  54.841  46.806  1.00  0.00     0.014 C 
ENDBRANCH  15  19
ENDBRANCH   8  11
ENDBRANCH   3   5
ENDBRANCH   1   3
BRANCH   1  21
HETATM   21  N   UNL     1      25.397  47.314  50.109  1.00  0.00    -0.298 N 
HETATM   22  C   UNL     1      25.497  46.966  51.449  1.00  0.00     0.281 C 
HETATM   23  O   UNL     1      25.036  47.647  52.363  1.00  0.00    -0.265 OA
HETATM   24  H   UNL     1      25.917  46.720  49.473  1.00  0.00     0.171 HD
BRANCH  22  25
HETATM   25  C   UNL     1      26.249  45.741  51.635  1.00  0.00     0.144 A 
HETATM   26  O   UNL     1      27.082  45.663  52.720  1.00  0.00    -0.304 OA
HETATM   27  C   UNL     1      27.723  44.459  52.682  1.00  0.00     0.086 A 
HETATM   28  C   UNL     1      27.286  43.751  51.579  1.00  0.00     0.041 A 
HETATM   29  C   UNL     1      26.338  44.572  50.909  1.00  0.00     0.046 A 
BRANCH  27  30
HETATM   30  C   UNL     1      28.688  44.226  53.754  1.00  0.00    -0.001 A 
HETATM   31  C   UNL     1      28.752  45.081  54.865  1.00  0.00     0.038 A 
HETATM   32  C   UNL     1      29.689  44.876  55.882  1.00  0.00     0.040 A 
HETATM   33 CL   UNL     1      29.697  45.988  57.206  1.00  0.00    -0.084 Cl
HETATM   34  C   UNL     1      30.590  43.806  55.819  1.00  0.00    -0.040 A 
HETATM   35  C   UNL     1      31.619  43.570  56.888  1.00  0.00     0.050 C 
HETATM   36  C   UNL     1      30.528  42.948  54.712  1.00  0.00     0.009 A 
HETATM   37  C   UNL     1      29.587  43.155  53.694  1.00  0.00     0.015 A 
ENDBRANCH  27  30
ENDBRANCH  22  25
ENDBRANCH   1  21
TORSDOF 7
ENDMDL
MODEL 4
REMARK VINA RESULT:     -10.0      2.558      4.365
REMARK  7 active torsions:
REMARK  status: ('A' for Active; 'I' for Inactive)
REMARK    1  A    between atoms: C_2  and  C_3 
REMARK       I    between atoms: C_3  and  N_4 
REMARK    2  A    between atoms: N_7  and  C_8 
REMARK    3  A    between atoms: C_11  and  N_12 
REMARK    4  A    between atoms: N_12  and  C_13 
REMARK    5  A    between atoms: C_13  and  N_14 
REMARK       I    between atoms: N_14  and  C_15 
REMARK    6  A    between atoms: C_15  and  C_16 
REMARK    7  A    between atoms: C_18  and  C_19 
ROOT
HETATM    1  C   UNL     1      24.758  43.152  49.088  1.00  0.00     0.179 C 
HETATM    2  S   UNL     1      23.583  41.957  49.112  1.00  0.00    -0.040 SA
ENDROOT
BRANCH   1   3
HETATM    3  N   UNL     1      24.725  44.372  48.456  1.00  0.00    -0.333 N 
HETATM    4  H   UNL     1      25.447  44.507  47.750  1.00  0.00     0.168 HD
BRANCH   3   5
HETATM    5  C   UNL     1      23.741  45.380  48.539  1.00  0.00     0.034 A 
HETATM    6  C   UNL     1      22.486  45.253  47.954  1.00  0.00     0.032 A 
HETATM    7  C   UNL     1      21.546  46.280  48.061  1.00  0.00     0.031 A 
HETATM    8  C   UNL     1      21.822  47.481  48.732  1.00  0.00     0.030 A 
HETATM    9  C   UNL     1      23.063  47.560  49.378  1.00  0.00     0.031 A 
HETATM   10  C   UNL     1      24.006  46.518  49.298  1.00  0.00     0.032 A 
BRANCH   8  11
HETATM   11  N   UNL     1      20.852  48.491  48.766  1.00  0.00    -0.378 N 
HETATM   12  C   UNL     1      21.399  49.872  48.773  1.00  0.00     0.143 C 
HETATM   13  C   UNL     1      20.318  50.873  48.350  1.00  0.00     0.145 C 
HETATM   14  N   UNL     1      19.074  50.749  49.119  1.00  0.00    -0.349 N 
HETATM   15  C   UNL     1      18.234  51.860  49.121  1.00  0.00     0.219 C 
HETATM   16  C   UNL     1      18.590  49.371  49.299  1.00  0.00     0.145 C 
HETATM   17  O   UNL     1      18.596  52.951  48.679  1.00  0.00    -0.273 OA
HETATM   18  C   UNL     1      19.695  48.358  49.671  1.00  0.00     0.143 C 
BRANCH  15  19
HETATM   19  C   UNL     1      16.850  51.671  49.719  1.00  0.00     0.098 C 
HETATM   20  C   UNL     1      15.973  52.901  49.541  1.00  0.00     0.014 C 
ENDBRANCH  15  19
ENDBRANCH   8  11
ENDBRANCH   3   5
ENDBRANCH   1   3
BRANCH   1  21
HETATM   21  N   UNL     1      25.910  42.867  49.782  1.00  0.00    -0.298 N 
HETATM   22  C   UNL     1      26.959  43.690  50.166  1.00  0.00     0.281 C 
HETATM   23  O   UNL     1      27.206  44.768  49.630  1.00  0.00    -0.265 OA
HETATM   24  H   UNL     1      25.890  41.960  50.234  1.00  0.00     0.171 HD
BRANCH  22  25
HETATM   25  C   UNL     1      27.746  43.102  51.231  1.00  0.00     0.144 A 
HETATM   26  O   UNL     1      28.061  43.894  52.303  1.00  0.00    -0.304 OA
HETATM   27  C   UNL     1      28.837  43.169  53.159  1.00  0.00     0.086 A 
HETATM   28  C   UNL     1      29.007  41.898  52.645  1.00  0.00     0.041 A 
HETATM   29  C   UNL     1      28.304  41.854  51.409  1.00  0.00     0.046 A 
BRANCH  27  30
HETATM   30  C   UNL     1      29.300  43.882  54.348  1.00  0.00    -0.001 A 
HETATM   31  C   UNL     1      30.353  43.378  55.125  1.00  0.00     0.038 A 
HETATM   32  C   UNL     1      30.785  44.045  56.277  1.00  0.00     0.040 A 
HETATM   33 CL   UNL     1      32.085  43.342  57.175  1.00  0.00    -0.084 Cl
HETATM   34  C   UNL     1      30.176  45.238  56.682  1.00  0.00    -0.040 A 
HETATM   35  C   UNL     1      30.607  45.968  57.922  1.00  0.00     0.050 C 
HETATM   36  C   UNL     1      29.124  45.746  55.906  1.00  0.00     0.009 A 
HETATM   37  C   UNL     1      28.694  45.077  54.753  1.00  0.00     0.015 A 
ENDBRANCH  27  30
ENDBRANCH  22  25
ENDBRANCH   1  21
TORSDOF 7
ENDMDL
MODEL 5
REMARK VINA RESULT:      -9.9      3.871      6.128
REMARK  7 active torsions:
REMARK  status: ('A' for Active; 'I' for Inactive)
REMARK    1  A    between atoms: C_2  and  C_3 
REMARK       I    between atoms: C_3  and  N_4 
REMARK    2  A    between atoms: N_7  and  C_8 
REMARK    3  A    between atoms: C_11  and  N_12 
REMARK    4  A    between atoms: N_12  and  C_13 
REMARK    5  A    between atoms: C_13  and  N_14 
REMARK       I    between atoms: N_14  and  C_15 
REMARK    6  A    between atoms: C_15  and  C_16 
REMARK    7  A    between atoms: C_18  and  C_19 
ROOT
HETATM    1  C   UNL     1      25.650  40.915  48.292  1.00  0.00     0.179 C 
HETATM    2  S   UNL     1      26.155  40.374  46.788  1.00  0.00    -0.040 SA
ENDROOT
BRANCH   1   3
HETATM    3  N   UNL     1      24.385  41.268  48.695  1.00  0.00    -0.333 N 
HETATM    4  H   UNL     1      23.901  40.565  49.249  1.00  0.00     0.168 HD
BRANCH   3   5
HETATM    5  C   UNL     1      23.743  42.520  48.581  1.00  0.00     0.034 A 
HETATM    6  C   UNL     1      23.686  43.227  47.385  1.00  0.00     0.032 A 
HETATM    7  C   UNL     1      23.042  44.465  47.323  1.00  0.00     0.031 A 
HETATM    8  C   UNL     1      22.450  45.058  48.448  1.00  0.00     0.030 A 
HETATM    9  C   UNL     1      22.453  44.298  49.625  1.00  0.00     0.031 A 
HETATM   10  C   UNL     1      23.077  43.038  49.690  1.00  0.00     0.032 A 
BRANCH   8  11
HETATM   11  N   UNL     1      21.858  46.322  48.330  1.00  0.00    -0.378 N 
HETATM   12  C   UNL     1      21.317  46.626  46.980  1.00  0.00     0.143 C 
HETATM   13  C   UNL     1      20.312  47.782  47.059  1.00  0.00     0.145 C 
HETATM   14  N   UNL     1      20.841  48.968  47.741  1.00  0.00    -0.349 N 
HETATM   15  C   UNL     1      20.195  50.174  47.475  1.00  0.00     0.219 C 
HETATM   16  C   UNL     1      21.554  48.696  48.999  1.00  0.00     0.145 C 
HETATM   17  O   UNL     1      19.365  50.283  46.572  1.00  0.00    -0.273 OA
HETATM   18  C   UNL     1      22.524  47.496  48.927  1.00  0.00     0.143 C 
BRANCH  15  19
HETATM   19  C   UNL     1      20.581  51.364  48.339  1.00  0.00     0.098 C 
HETATM   20  C   UNL     1      19.417  51.870  49.176  1.00  0.00     0.014 C 
ENDBRANCH  15  19
ENDBRANCH   8  11
ENDBRANCH   3   5
ENDBRANCH   1   3
BRANCH   1  21
HETATM   21  N   UNL     1      26.637  41.032  49.243  1.00  0.00    -0.298 N 
HETATM   22  C   UNL     1      27.134  42.152  49.893  1.00  0.00     0.281 C 
HETATM   23  O   UNL     1      27.017  43.296  49.459  1.00  0.00    -0.265 OA
HETATM   24  H   UNL     1      26.902  40.145  49.656  1.00  0.00     0.171 HD
BRANCH  22  25
HETATM   25  C   UNL     1      27.846  41.802  51.106  1.00  0.00     0.144 A 
HETATM   26  O   UNL     1      28.110  42.804  52.002  1.00  0.00    -0.304 OA
HETATM   27  C   UNL     1      28.821  42.276  53.039  1.00  0.00     0.086 A 
HETATM   28  C   UNL     1      28.999  40.923  52.820  1.00  0.00     0.041 A 
HETATM   29  C   UNL     1      28.371  40.619  51.581  1.00  0.00     0.046 A 
BRANCH  27  30
HETATM   30  C   UNL     1      29.224  43.225  54.074  1.00  0.00    -0.001 A 
HETATM   31  C   UNL     1      30.265  42.921  54.964  1.00  0.00     0.038 A 
HETATM   32  C   UNL     1      30.640  43.817  55.971  1.00  0.00     0.040 A 
HETATM   33 CL   UNL     1      31.929  43.350  57.026  1.00  0.00    -0.084 Cl
HETATM   34  C   UNL     1      29.984  45.045  56.115  1.00  0.00    -0.040 A 
HETATM   35  C   UNL     1      30.353  46.020  57.198  1.00  0.00     0.050 C 
HETATM   36  C   UNL     1      28.944  45.352  55.227  1.00  0.00     0.009 A 
HETATM   37  C   UNL     1      28.571  44.455  54.218  1.00  0.00     0.015 A 
ENDBRANCH  27  30
ENDBRANCH  22  25
ENDBRANCH   1  21
TORSDOF 7
ENDMDL
MODEL 6
REMARK VINA RESULT:      -9.8      2.030      3.132
REMARK  7 active torsions:
REMARK  status: ('A' for Active; 'I' for Inactive)
REMARK    1  A    between atoms: C_2  and  C_3 
REMARK       I    between atoms: C_3  and  N_4 
REMARK    2  A    between atoms: N_7  and  C_8 
REMARK    3  A    between atoms: C_11  and  N_12 
REMARK    4  A    between atoms: N_12  and  C_13 
REMARK    5  A    between atoms: C_13  and  N_14 
REMARK       I    between atoms: N_14  and  C_15 
REMARK    6  A    between atoms: C_15  and  C_16 
REMARK    7  A    between atoms: C_18  and  C_19 
ROOT
HETATM    1  C   UNL     1      25.796  47.373  49.728  1.00  0.00     0.179 C 
HETATM    2  S   UNL     1      26.740  48.656  49.210  1.00  0.00    -0.040 SA
ENDROOT
BRANCH   1   3
HETATM    3  N   UNL     1      24.535  47.017  49.316  1.00  0.00    -0.333 N 
HETATM    4  H   UNL     1      24.392  46.016  49.195  1.00  0.00     0.168 HD
BRANCH   3   5
HETATM    5  C   UNL     1      23.386  47.828  49.200  1.00  0.00     0.034 A 
HETATM    6  C   UNL     1      23.384  49.178  49.533  1.00  0.00     0.032 A 
HETATM    7  C   UNL     1      22.220  49.939  49.404  1.00  0.00     0.031 A 
HETATM    8  C   UNL     1      21.009  49.386  48.961  1.00  0.00     0.030 A 
HETATM    9  C   UNL     1      21.049  48.044  48.560  1.00  0.00     0.031 A 
HETATM   10  C   UNL     1      22.225  47.277  48.662  1.00  0.00     0.032 A 
BRANCH   8  11
HETATM   11  N   UNL     1      19.866  50.193  48.896  1.00  0.00    -0.378 N 
HETATM   12  C   UNL     1      19.528  50.887  50.165  1.00  0.00     0.143 C 
HETATM   13  C   UNL     1      18.584  52.065  49.890  1.00  0.00     0.145 C 
HETATM   14  N   UNL     1      17.399  51.693  49.110  1.00  0.00    -0.349 N 
HETATM   15  C   UNL     1      16.307  52.554  49.195  1.00  0.00     0.219 C 
HETATM   16  C   UNL     1      17.666  50.842  47.940  1.00  0.00     0.145 C 
HETATM   17  O   UNL     1      16.256  53.462  50.026  1.00  0.00    -0.273 OA
HETATM   18  C   UNL     1      18.660  49.691  48.211  1.00  0.00     0.143 C 
BRANCH  15  19
HETATM   19  C   UNL     1      15.162  52.308  48.226  1.00  0.00     0.098 C 
HETATM   20  C   UNL     1      14.697  53.586  47.547  1.00  0.00     0.014 C 
ENDBRANCH  15  19
ENDBRANCH   8  11
ENDBRANCH   3   5
ENDBRANCH   1   3
BRANCH   1  21
HETATM   21  N   UNL     1      26.355  46.582  50.704  1.00  0.00    -0.298 N 
HETATM   22  C   UNL     1      25.855  45.460  51.351  1.00  0.00     0.281 C 
HETATM   23  O   UNL     1      24.657  45.190  51.412  1.00  0.00    -0.265 OA
HETATM   24  H   UNL     1      27.348  46.739  50.827  1.00  0.00     0.171 HD
BRANCH  22  25
HETATM   25  C   UNL     1      26.905  44.686  51.981  1.00  0.00     0.144 A 
HETATM   26  O   UNL     1      27.380  45.121  53.191  1.00  0.00    -0.304 OA
HETATM   27  C   UNL     1      28.385  44.286  53.582  1.00  0.00     0.086 A 
HETATM   28  C   UNL     1      28.547  43.299  52.630  1.00  0.00     0.041 A 
HETATM   29  C   UNL     1      27.596  43.553  51.604  1.00  0.00     0.046 A 
BRANCH  27  30
HETATM   30  C   UNL     1      29.035  44.633  54.844  1.00  0.00    -0.001 A 
HETATM   31  C   UNL     1      30.124  43.889  55.322  1.00  0.00     0.038 A 
HETATM   32  C   UNL     1      30.735  44.202  56.540  1.00  0.00     0.040 A 
HETATM   33 CL   UNL     1      32.066  43.221  57.050  1.00  0.00    -0.084 Cl
HETATM   34  C   UNL     1      30.275  45.272  57.316  1.00  0.00    -0.040 A 
HETATM   35  C   UNL     1      30.900  45.623  58.636  1.00  0.00     0.050 C 
HETATM   36  C   UNL     1      29.188  46.019  56.841  1.00  0.00     0.009 A 
HETATM   37  C   UNL     1      28.578  45.705  55.620  1.00  0.00     0.015 A 
ENDBRANCH  27  30
ENDBRANCH  22  25
ENDBRANCH   1  21
TORSDOF 7
ENDMDL
MODEL 7
REMARK VINA RESULT:      -9.7      2.698      4.472
REMARK  7 active torsions:
REMARK  status: ('A' for Active; 'I' for Inactive)
REMARK    1  A    between atoms: C_2  and  C_3 
REMARK       I    between atoms: C_3  and  N_4 
REMARK    2  A    between atoms: N_7  and  C_8 
REMARK    3  A    between atoms: C_11  and  N_12 
REMARK    4  A    between atoms: N_12  and  C_13 
REMARK    5  A    between atoms: C_13  and  N_14 
REMARK       I    between atoms: N_14  and  C_15 
REMARK    6  A    between atoms: C_15  and  C_16 
REMARK    7  A    between atoms: C_18  and  C_19 
ROOT
HETATM    1  C   UNL     1      25.455  43.916  49.827  1.00  0.00     0.179 C 
HETATM    2  S   UNL     1      25.779  42.301  50.134  1.00  0.00    -0.040 SA
ENDROOT
BRANCH   1   3
HETATM    3  N   UNL     1      24.913  44.481  48.698  1.00  0.00    -0.333 N 
HETATM    4  H   UNL     1      25.171  44.024  47.826  1.00  0.00     0.168 HD
BRANCH   3   5
HETATM    5  C   UNL     1      23.934  45.493  48.604  1.00  0.00     0.034 A 
HETATM    6  C   UNL     1      22.665  45.262  48.085  1.00  0.00     0.032 A 
HETATM    7  C   UNL     1      21.730  46.297  48.009  1.00  0.00     0.031 A 
HETATM    8  C   UNL     1      22.026  47.604  48.424  1.00  0.00     0.030 A 
HETATM    9  C   UNL     1      23.282  47.800  49.013  1.00  0.00     0.031 A 
HETATM   10  C   UNL     1      24.220  46.756  49.117  1.00  0.00     0.032 A 
BRANCH   8  11
HETATM   11  N   UNL     1      21.059  48.608  48.280  1.00  0.00    -0.378 N 
HETATM   12  C   UNL     1      21.080  49.641  49.347  1.00  0.00     0.143 C 
HETATM   13  C   UNL     1      20.340  50.901  48.880  1.00  0.00     0.145 C 
HETATM   14  N   UNL     1      18.989  50.630  48.375  1.00  0.00    -0.349 N 
HETATM   15  C   UNL     1      18.109  51.709  48.354  1.00  0.00     0.219 C 
HETATM   16  C   UNL     1      18.887  49.488  47.453  1.00  0.00     0.145 C 
HETATM   17  O   UNL     1      18.371  52.776  48.911  1.00  0.00    -0.273 OA
HETATM   18  C   UNL     1      19.681  48.242  47.903  1.00  0.00     0.143 C 
BRANCH  15  19
HETATM   19  C   UNL     1      16.788  51.503  47.630  1.00  0.00     0.098 C 
HETATM   20  C   UNL     1      15.671  51.092  48.576  1.00  0.00     0.014 C 
ENDBRANCH  15  19
ENDBRANCH   8  11
ENDBRANCH   3   5
ENDBRANCH   1   3
BRANCH   1  21
HETATM   21  N   UNL     1      25.789  44.790  50.835  1.00  0.00    -0.298 N 
HETATM   22  C   UNL     1      25.201  45.006  52.073  1.00  0.00     0.281 C 
HETATM   23  O   UNL     1      24.042  44.692  52.337  1.00  0.00    -0.265 OA
HETATM   24  H   UNL     1      26.710  45.198  50.722  1.00  0.00     0.171 HD
BRANCH  22  25
HETATM   25  C   UNL     1      26.096  45.686  52.986  1.00  0.00     0.144 A 
HETATM   26  O   UNL     1      27.099  44.951  53.563  1.00  0.00    -0.304 OA
HETATM   27  C   UNL     1      27.790  45.763  54.414  1.00  0.00     0.086 A 
HETATM   28  C   UNL     1      27.243  47.031  54.372  1.00  0.00     0.041 A 
HETATM   29  C   UNL     1      26.158  46.983  53.453  1.00  0.00     0.046 A 
BRANCH  27  30
HETATM   30  C   UNL     1      28.878  45.122  55.149  1.00  0.00    -0.001 A 
HETATM   31  C   UNL     1      29.362  45.673  56.345  1.00  0.00     0.038 A 
HETATM   32  C   UNL     1      30.419  45.076  57.040  1.00  0.00     0.040 A 
HETATM   33 CL   UNL     1      30.952  45.834  58.500  1.00  0.00    -0.084 Cl
HETATM   34  C   UNL     1      31.021  43.907  56.559  1.00  0.00    -0.040 A 
HETATM   35  C   UNL     1      32.169  43.253  57.275  1.00  0.00     0.050 C 
HETATM   36  C   UNL     1      30.539  43.353  55.366  1.00  0.00     0.009 A 
HETATM   37  C   UNL     1      29.480  43.951  54.671  1.00  0.00     0.015 A 
ENDBRANCH  27  30
ENDBRANCH  22  25
ENDBRANCH   1  21
TORSDOF 7
ENDMDL
MODEL 8
REMARK VINA RESULT:      -9.5      4.753     12.706
REMARK  7 active torsions:
REMARK  status: ('A' for Active; 'I' for Inactive)
REMARK    1  A    between atoms: C_2  and  C_3 
REMARK       I    between atoms: C_3  and  N_4 
REMARK    2  A    between atoms: N_7  and  C_8 
REMARK    3  A    between atoms: C_11  and  N_12 
REMARK    4  A    between atoms: N_12  and  C_13 
REMARK    5  A    between atoms: C_13  and  N_14 
REMARK       I    between atoms: N_14  and  C_15 
REMARK    6  A    between atoms: C_15  and  C_16 
REMARK    7  A    between atoms: C_18  and  C_19 
ROOT
HETATM    1  C   UNL     1      22.917  43.698  47.574  1.00  0.00     0.179 C 
HETATM    2  S   UNL     1      23.244  43.154  46.023  1.00  0.00    -0.040 SA
ENDROOT
BRANCH   1   3
HETATM    3  N   UNL     1      23.025  43.014  48.761  1.00  0.00    -0.333 N 
HETATM    4  H   UNL     1      22.407  42.209  48.847  1.00  0.00     0.168 HD
BRANCH   3   5
HETATM    5  C   UNL     1      23.975  43.182  49.790  1.00  0.00     0.034 A 
HETATM    6  C   UNL     1      23.909  44.222  50.710  1.00  0.00     0.032 A 
HETATM    7  C   UNL     1      24.877  44.349  51.709  1.00  0.00     0.031 A 
HETATM    8  C   UNL     1      25.958  43.462  51.820  1.00  0.00     0.030 A 
HETATM    9  C   UNL     1      25.968  42.379  50.931  1.00  0.00     0.031 A 
HETATM   10  C   UNL     1      24.981  42.229  49.938  1.00  0.00     0.032 A 
BRANCH   8  11
HETATM   11  N   UNL     1      26.920  43.669  52.817  1.00  0.00    -0.378 N 
HETATM   12  C   UNL     1      26.930  45.041  53.389  1.00  0.00     0.143 C 
HETATM   13  C   UNL     1      27.656  45.047  54.740  1.00  0.00     0.145 C 
HETATM   14  N   UNL     1      28.991  44.441  54.688  1.00  0.00    -0.349 N 
HETATM   15  C   UNL     1      29.870  44.792  55.710  1.00  0.00     0.219 C 
HETATM   16  C   UNL     1      29.065  43.162  53.964  1.00  0.00     0.145 C 
HETATM   17  O   UNL     1      29.623  45.708  56.496  1.00  0.00    -0.273 OA
HETATM   18  C   UNL     1      28.286  43.147  52.630  1.00  0.00     0.143 C 
BRANCH  15  19
HETATM   19  C   UNL     1      31.168  44.007  55.798  1.00  0.00     0.098 C 
HETATM   20  C   UNL     1      31.305  43.265  57.118  1.00  0.00     0.014 C 
ENDBRANCH  15  19
ENDBRANCH   8  11
ENDBRANCH   3   5
ENDBRANCH   1   3
BRANCH   1  21
HETATM   21  N   UNL     1      22.470  44.995  47.666  1.00  0.00    -0.298 N 
HETATM   22  C   UNL     1      21.421  45.537  48.395  1.00  0.00     0.281 C 
HETATM   23  O   UNL     1      20.473  44.876  48.813  1.00  0.00    -0.265 OA
HETATM   24  H   UNL     1      23.125  45.672  47.291  1.00  0.00     0.171 HD
BRANCH  22  25
HETATM   25  C   UNL     1      21.556  46.971  48.553  1.00  0.00     0.144 A 
HETATM   26  O   UNL     1      20.421  47.695  48.806  1.00  0.00    -0.304 OA
HETATM   27  C   UNL     1      20.759  49.015  48.872  1.00  0.00     0.086 A 
HETATM   28  C   UNL     1      22.122  49.140  48.680  1.00  0.00     0.041 A 
HETATM   29  C   UNL     1      22.634  47.829  48.478  1.00  0.00     0.046 A 
BRANCH  27  30
HETATM   30  C   UNL     1      19.650  49.938  49.098  1.00  0.00    -0.001 A 
HETATM   31  C   UNL     1      18.345  49.608  48.702  1.00  0.00     0.038 A 
HETATM   32  C   UNL     1      17.284  50.498  48.895  1.00  0.00     0.040 A 
HETATM   33 CL   UNL     1      15.713  50.005  48.367  1.00  0.00    -0.084 Cl
HETATM   34  C   UNL     1      17.497  51.746  49.493  1.00  0.00    -0.040 A 
HETATM   35  C   UNL     1      16.380  52.729  49.699  1.00  0.00     0.050 C 
HETATM   36  C   UNL     1      18.799  52.079  49.891  1.00  0.00     0.009 A 
HETATM   37  C   UNL     1      19.861  51.185  49.698  1.00  0.00     0.015 A 
ENDBRANCH  27  30
ENDBRANCH  22  25
ENDBRANCH   1  21
TORSDOF 7
ENDMDL
MODEL 9
REMARK VINA RESULT:      -9.4      4.558     13.418
REMARK  7 active torsions:
REMARK  status: ('A' for Active; 'I' for Inactive)
REMARK    1  A    between atoms: C_2  and  C_3 
REMARK       I    between atoms: C_3  and  N_4 
REMARK    2  A    between atoms: N_7  and  C_8 
REMARK    3  A    between atoms: C_11  and  N_12 
REMARK    4  A    between atoms: N_12  and  C_13 
REMARK    5  A    between atoms: C_13  and  N_14 
REMARK       I    between atoms: N_14  and  C_15 
REMARK    6  A    between atoms: C_15  and  C_16 
REMARK    7  A    between atoms: C_18  and  C_19 
ROOT
HETATM    1  C   UNL     1      22.026  46.474  48.800  1.00  0.00     0.179 C 
HETATM    2  S   UNL     1      20.797  45.335  48.770  1.00  0.00    -0.040 SA
ENDROOT
BRANCH   1   3
HETATM    3  N   UNL     1      23.384  46.269  48.757  1.00  0.00    -0.333 N 
HETATM    4  H   UNL     1      23.819  46.475  47.860  1.00  0.00     0.168 HD
BRANCH   3   5
HETATM    5  C   UNL     1      24.262  45.973  49.821  1.00  0.00     0.034 A 
HETATM    6  C   UNL     1      24.878  46.961  50.582  1.00  0.00     0.032 A 
HETATM    7  C   UNL     1      25.743  46.618  51.623  1.00  0.00     0.031 A 
HETATM    8  C   UNL     1      26.048  45.284  51.935  1.00  0.00     0.030 A 
HETATM    9  C   UNL     1      25.361  44.303  51.207  1.00  0.00     0.031 A 
HETATM   10  C   UNL     1      24.467  44.641  50.174  1.00  0.00     0.032 A 
BRANCH   8  11
HETATM   11  N   UNL     1      26.958  45.008  52.963  1.00  0.00    -0.378 N 
HETATM   12  C   UNL     1      27.401  46.199  53.732  1.00  0.00     0.143 C 
HETATM   13  C   UNL     1      27.999  45.770  55.078  1.00  0.00     0.145 C 
HETATM   14  N   UNL     1      29.048  44.751  54.952  1.00  0.00    -0.349 N 
HETATM   15  C   UNL     1      29.928  44.633  56.024  1.00  0.00     0.219 C 
HETATM   16  C   UNL     1      28.725  43.637  54.046  1.00  0.00     0.145 C 
HETATM   17  O   UNL     1      29.961  45.462  56.935  1.00  0.00    -0.273 OA
HETATM   18  C   UNL     1      28.073  44.074  52.716  1.00  0.00     0.143 C 
BRANCH  15  19
HETATM   19  C   UNL     1      30.872  43.442  56.009  1.00  0.00     0.098 C 
HETATM   20  C   UNL     1      31.918  43.522  57.110  1.00  0.00     0.014 C 
ENDBRANCH  15  19
ENDBRANCH   8  11
ENDBRANCH   3   5
ENDBRANCH   1   3
BRANCH   1  21
HETATM   21  N   UNL     1      21.619  47.784  48.892  1.00  0.00    -0.298 N 
HETATM   22  C   UNL     1      22.024  48.907  48.184  1.00  0.00     0.281 C 
HETATM   23  O   UNL     1      23.095  48.980  47.584  1.00  0.00    -0.265 OA
HETATM   24  H   UNL     1      20.767  47.902  49.429  1.00  0.00     0.171 HD
BRANCH  22  25
HETATM   25  C   UNL     1      21.062  49.986  48.283  1.00  0.00     0.144 A 
HETATM   26  O   UNL     1      19.886  49.857  47.591  1.00  0.00    -0.304 OA
HETATM   27  C   UNL     1      19.151  50.990  47.781  1.00  0.00     0.086 A 
HETATM   28  C   UNL     1      19.848  51.845  48.614  1.00  0.00     0.041 A 
HETATM   29  C   UNL     1      21.072  51.199  48.938  1.00  0.00     0.046 A 
BRANCH  27  30
HETATM   30  C   UNL     1      17.873  51.037  47.074  1.00  0.00    -0.001 A 
HETATM   31  C   UNL     1      16.933  50.005  47.217  1.00  0.00     0.038 A 
HETATM   32  C   UNL     1      15.718  50.034  46.524  1.00  0.00     0.040 A 
HETATM   33 CL   UNL     1      14.626  48.713  46.758  1.00  0.00    -0.084 Cl
HETATM   34  C   UNL     1      15.407  51.099  45.671  1.00  0.00    -0.040 A 
HETATM   35  C   UNL     1      14.117  51.149  44.901  1.00  0.00     0.050 C 
HETATM   36  C   UNL     1      16.343  52.132  45.527  1.00  0.00     0.009 A 
HETATM   37  C   UNL     1      17.559  52.102  46.222  1.00  0.00     0.015 A 
ENDBRANCH  27  30
ENDBRANCH  22  25
ENDBRANCH   1  21
TORSDOF 7
ENDMDL
MODEL 10
REMARK VINA RESULT:      -9.4      3.181      4.661
REMARK  7 active torsions:
REMARK  status: ('A' for Active; 'I' for Inactive)
REMARK    1  A    between atoms: C_2  and  C_3 
REMARK       I    between atoms: C_3  and  N_4 
REMARK    2  A    between atoms: N_7  and  C_8 
REMARK    3  A    between atoms: C_11  and  N_12 
REMARK    4  A    between atoms: N_12  and  C_13 
REMARK    5  A    between atoms: C_13  and  N_14 
REMARK       I    between atoms: N_14  and  C_15 
REMARK    6  A    between atoms: C_15  and  C_16 
REMARK    7  A    between atoms: C_18  and  C_19 
ROOT
HETATM    1  C   UNL     1      25.832  45.207  49.569  1.00  0.00     0.179 C 
HETATM    2  S   UNL     1      26.631  46.675  49.687  1.00  0.00    -0.040 SA
ENDROOT
BRANCH   1   3
HETATM    3  N   UNL     1      24.752  44.881  48.784  1.00  0.00    -0.333 N 
HETATM    4  H   UNL     1      24.854  44.016  48.256  1.00  0.00     0.168 HD
BRANCH   3   5
HETATM    5  C   UNL     1      23.480  45.491  48.740  1.00  0.00     0.034 A 
HETATM    6  C   UNL     1      22.311  44.771  48.521  1.00  0.00     0.032 A 
HETATM    7  C   UNL     1      21.075  45.420  48.482  1.00  0.00     0.031 A 
HETATM    8  C   UNL     1      20.954  46.809  48.638  1.00  0.00     0.030 A 
HETATM    9  C   UNL     1      22.133  47.507  48.932  1.00  0.00     0.031 A 
HETATM   10  C   UNL     1      23.380  46.856  48.999  1.00  0.00     0.032 A 
BRANCH   8  11
HETATM   11  N   UNL     1      19.690  47.406  48.545  1.00  0.00    -0.378 N 
HETATM   12  C   UNL     1      18.716  46.660  47.706  1.00  0.00     0.143 C 
HETATM   13  C   UNL     1      17.286  47.109  48.028  1.00  0.00     0.145 C 
HETATM   14  N   UNL     1      17.101  48.563  47.958  1.00  0.00    -0.349 N 
HETATM   15  C   UNL     1      15.794  49.014  47.794  1.00  0.00     0.219 C 
HETATM   16  C   UNL     1      18.151  49.355  48.620  1.00  0.00     0.145 C 
HETATM   17  O   UNL     1      14.870  48.248  47.519  1.00  0.00    -0.273 OA
HETATM   18  C   UNL     1      19.586  48.862  48.335  1.00  0.00     0.143 C 
BRANCH  15  19
HETATM   19  C   UNL     1      15.559  50.508  47.946  1.00  0.00     0.098 C 
HETATM   20  C   UNL     1      15.618  51.239  46.614  1.00  0.00     0.014 C 
ENDBRANCH  15  19
ENDBRANCH   8  11
ENDBRANCH   3   5
ENDBRANCH   1   3
BRANCH   1  21
HETATM   21  N   UNL     1      26.313  44.202  50.375  1.00  0.00    -0.298 N 
HETATM   22  C   UNL     1      27.100  43.101  50.070  1.00  0.00     0.281 C 
HETATM   23  O   UNL     1      27.207  42.636  48.937  1.00  0.00    -0.265 OA
HETATM   24  H   UNL     1      26.231  44.409  51.364  1.00  0.00     0.171 HD
BRANCH  22  25
HETATM   25  C   UNL     1      27.731  42.544  51.249  1.00  0.00     0.144 A 
HETATM   26  O   UNL     1      28.103  43.410  52.243  1.00  0.00    -0.304 OA
HETATM   27  C   UNL     1      28.713  42.694  53.231  1.00  0.00     0.086 A 
HETATM   28  C   UNL     1      28.718  41.358  52.880  1.00  0.00     0.041 A 
HETATM   29  C   UNL     1      28.085  41.260  51.610  1.00  0.00     0.046 A 
BRANCH  27  30
HETATM   30  C   UNL     1      29.212  43.477  54.359  1.00  0.00    -0.001 A 
HETATM   31  C   UNL     1      28.523  44.613  54.809  1.00  0.00     0.038 A 
HETATM   32  C   UNL     1      29.009  45.378  55.874  1.00  0.00     0.040 A 
HETATM   33 CL   UNL     1      28.094  46.767  56.351  1.00  0.00    -0.084 Cl
HETATM   34  C   UNL     1      30.198  45.026  56.523  1.00  0.00    -0.040 A 
HETATM   35  C   UNL     1      30.753  45.839  57.659  1.00  0.00     0.050 C 
HETATM   36  C   UNL     1      30.888  43.891  56.078  1.00  0.00     0.009 A 
HETATM   37  C   UNL     1      30.400  43.125  55.011  1.00  0.00     0.015 A 
ENDBRANCH  27  30
ENDBRANCH  22  25
ENDBRANCH   1  21
TORSDOF 7
ENDMDL
