MODEL 1
REMARK VINA RESULT:      -9.6      0.000      0.000
REMARK  8 active torsions:
REMARK  status: ('A' for Active; 'I' for Inactive)
REMARK    1  A    between atoms: C_2  and  N_3 
REMARK    2  A    between atoms: C_2  and  C_36 
REMARK       I    between atoms: N_3  and  C_4 
REMARK    3  A    between atoms: C_4  and  C_5 
REMARK    4  A    between atoms: C_5  and  N_6 
REMARK       I    between atoms: N_12  and  C_13 
REMARK    5  A    between atoms: C_13  and  C_14 
REMARK    6  A    between atoms: C_15  and  O_16 
REMARK    7  A    between atoms: C_21  and  O_22 
REMARK    8  A    between atoms: N_27  and  C_28 
ROOT
HETATM    1  N   UNL     1      21.151  45.642  48.719  1.00  0.00    -0.325 N 
HETATM    2  C   UNL     1      22.064  44.624  48.911  1.00  0.00     0.250 C 
HETATM    3  O   UNL     1      21.803  43.429  48.922  1.00  0.00    -0.270 OA
HETATM    4  C   UNL     1      23.436  45.272  49.190  1.00  0.00     0.118 C 
HETATM    5  C   UNL     1      24.496  44.588  48.305  1.00  0.00     0.061 C 
HETATM    6  C   UNL     1      25.067  43.324  48.934  1.00  0.00     0.129 C 
HETATM    7  N   UNL     1      25.379  43.531  50.340  1.00  0.00    -0.348 N 
HETATM    8  C   UNL     1      26.700  43.817  50.708  1.00  0.00     0.259 C 
HETATM    9  O   UNL     1      27.604  43.988  49.894  1.00  0.00    -0.267 OA
HETATM   10  C   UNL     1      24.214  43.838  51.156  1.00  0.00     0.129 C 
HETATM   11  C   UNL     1      23.631  45.181  50.720  1.00  0.00     0.061 C 
HETATM   12  N   UNL     1      23.193  46.681  48.766  1.00  0.00    -0.346 N 
HETATM   13  C   UNL     1      21.773  46.923  48.556  1.00  0.00     0.254 C 
ENDROOT
BRANCH  12  14
HETATM   14  C   UNL     1      24.085  47.738  48.764  1.00  0.00     0.032 A 
HETATM   15  C   UNL     1      25.385  47.649  49.291  1.00  0.00     0.029 A 
HETATM   16  C   UNL     1      26.287  48.722  49.264  1.00  0.00     0.002 A 
HETATM   17  C   UNL     1      25.916  49.934  48.703  1.00  0.00     0.000 A 
HETATM   18  C   UNL     1      24.642  50.068  48.171  1.00  0.00     0.002 A 
HETATM   19  C   UNL     1      23.749  48.986  48.204  1.00  0.00     0.029 A 
ENDBRANCH  12  14
BRANCH   1  20
HETATM   20  C   UNL     1      19.760  45.407  48.361  1.00  0.00     0.230 C 
BRANCH  20  21
HETATM   21  C   UNL     1      18.797  46.545  48.736  1.00  0.00     0.236 C 
HETATM   22  N   UNL     1      19.258  47.393  49.722  1.00  0.00    -0.351 N 
HETATM   23  H   UNL     1      20.055  47.115  50.280  1.00  0.00     0.163 HD
HETATM   24  O   UNL     1      17.683  46.669  48.233  1.00  0.00    -0.272 OA
BRANCH  22  25
HETATM   25  C   UNL     1      18.418  48.475  50.233  1.00  0.00     0.113 C 
HETATM   26  C   UNL     1      18.506  48.479  51.766  1.00  0.00     0.037 C 
BRANCH  25  27
HETATM   27  C   UNL     1      18.759  49.828  49.610  1.00  0.00    -0.036 A 
HETATM   28  C   UNL     1      17.997  50.983  49.864  1.00  0.00     0.009 A 
HETATM   29  C   UNL     1      18.345  52.218  49.306  1.00  0.00     0.001 A 
HETATM   30  C   UNL     1      19.476  52.329  48.503  1.00  0.00     0.000 A 
HETATM   31  C   UNL     1      20.266  51.210  48.267  1.00  0.00     0.001 A 
HETATM   32  C   UNL     1      19.915  49.976  48.822  1.00  0.00     0.009 A 
ENDBRANCH  25  27
ENDBRANCH  22  25
ENDBRANCH  20  21
ENDBRANCH   1  20
BRANCH   8  33
HETATM   33  C   UNL     1      27.050  43.792  52.149  1.00  0.00     0.098 A 
HETATM   34  C   UNL     1      27.472  42.574  52.708  1.00  0.00     0.086 A 
HETATM   35  C   UNL     1      27.825  42.503  54.055  1.00  0.00     0.038 A 
HETATM   36  C   UNL     1      27.734  43.637  54.856  1.00  0.00     0.005 A 
HETATM   37  C   UNL     1      27.328  44.856  54.303  1.00  0.00     0.038 A 
HETATM   38  C   UNL     1      26.998  44.951  52.944  1.00  0.00     0.086 A 
BRANCH  34  39
HETATM   39  O   UNL     1      27.671  41.454  51.942  1.00  0.00    -0.355 OA
HETATM   40  C   UNL     1      28.798  40.711  52.400  1.00  0.00     0.210 C 
ENDBRANCH  34  39
BRANCH  38  41
HETATM   41  O   UNL     1      26.639  46.117  52.326  1.00  0.00    -0.355 OA
HETATM   42  C   UNL     1      25.772  47.002  53.026  1.00  0.00     0.210 C 
ENDBRANCH  38  41
ENDBRANCH   8  33
TORSDOF 8
ENDMDL
MODEL 2
REMARK VINA RESULT:      -9.6      0.221      2.156
REMARK  8 active torsions:
REMARK  status: ('A' for Active; 'I' for Inactive)
REMARK    1  A    between atoms: C_2  and  N_3 
REMARK    2  A    between atoms: C_2  and  C_36 
REMARK       I    between atoms: N_3  and  C_4 
REMARK    3  A    between atoms: C_4  and  C_5 
REMARK    4  A    between atoms: C_5  and  N_6 
REMARK       I    between atoms: N_12  and  C_13 
REMARK    5  A    between atoms: C_13  and  C_14 
REMARK    6  A    between atoms: C_15  and  O_16 
REMARK    7  A    between atoms: C_21  and  O_22 
REMARK    8  A    between atoms: N_27  and  C_28 
ROOT
HETATM    1  N   UNL     1      21.265  45.770  48.764  1.00  0.00    -0.325 N 
HETATM    2  C   UNL     1      22.156  44.738  48.978  1.00  0.00     0.250 C 
HETATM    3  O   UNL     1      21.871  43.549  49.012  1.00  0.00    -0.270 OA
HETATM    4  C   UNL     1      23.541  45.363  49.245  1.00  0.00     0.118 C 
HETATM    5  C   UNL     1      24.588  44.640  48.377  1.00  0.00     0.061 C 
HETATM    6  C   UNL     1      25.132  43.377  49.031  1.00  0.00     0.129 C 
HETATM    7  N   UNL     1      25.446  43.605  50.433  1.00  0.00    -0.348 N 
HETATM    8  C   UNL     1      26.772  43.871  50.798  1.00  0.00     0.259 C 
HETATM    9  O   UNL     1      27.681  44.007  49.982  1.00  0.00    -0.267 OA
HETATM   10  C   UNL     1      24.286  43.952  51.241  1.00  0.00     0.129 C 
HETATM   11  C   UNL     1      23.732  45.298  50.778  1.00  0.00     0.061 C 
HETATM   12  N   UNL     1      23.327  46.767  48.794  1.00  0.00    -0.346 N 
HETATM   13  C   UNL     1      21.913  47.035  48.577  1.00  0.00     0.254 C 
ENDROOT
BRANCH  12  14
HETATM   14  C   UNL     1      24.242  47.806  48.773  1.00  0.00     0.032 A 
HETATM   15  C   UNL     1      25.546  47.693  49.284  1.00  0.00     0.029 A 
HETATM   16  C   UNL     1      26.470  48.747  49.237  1.00  0.00     0.002 A 
HETATM   17  C   UNL     1      26.117  49.963  48.672  1.00  0.00     0.000 A 
HETATM   18  C   UNL     1      24.840  50.119  48.155  1.00  0.00     0.002 A 
HETATM   19  C   UNL     1      23.925  49.057  48.208  1.00  0.00     0.029 A 
ENDBRANCH  12  14
BRANCH   1  20
HETATM   20  C   UNL     1      19.870  45.558  48.408  1.00  0.00     0.230 C 
BRANCH  20  21
HETATM   21  C   UNL     1      18.930  46.723  48.759  1.00  0.00     0.236 C 
HETATM   22  N   UNL     1      19.305  47.457  49.865  1.00  0.00    -0.351 N 
HETATM   23  H   UNL     1      20.007  47.084  50.491  1.00  0.00     0.163 HD
HETATM   24  O   UNL     1      17.899  46.959  48.135  1.00  0.00    -0.272 OA
BRANCH  22  25
HETATM   25  C   UNL     1      18.468  48.548  50.360  1.00  0.00     0.113 C 
HETATM   26  C   UNL     1      18.536  48.558  51.894  1.00  0.00     0.037 C 
BRANCH  25  27
HETATM   27  C   UNL     1      18.826  49.895  49.735  1.00  0.00    -0.036 A 
HETATM   28  C   UNL     1      20.061  50.124  49.103  1.00  0.00     0.009 A 
HETATM   29  C   UNL     1      20.356  51.357  48.513  1.00  0.00     0.001 A 
HETATM   30  C   UNL     1      19.412  52.379  48.519  1.00  0.00     0.000 A 
HETATM   31  C   UNL     1      18.170  52.166  49.105  1.00  0.00     0.001 A 
HETATM   32  C   UNL     1      17.878  50.934  49.698  1.00  0.00     0.009 A 
ENDBRANCH  25  27
ENDBRANCH  22  25
ENDBRANCH  20  21
ENDBRANCH   1  20
BRANCH   8  33
HETATM   33  C   UNL     1      27.119  43.867  52.240  1.00  0.00     0.098 A 
HETATM   34  C   UNL     1      27.071  45.086  52.937  1.00  0.00     0.086 A 
HETATM   35  C   UNL     1      27.375  45.131  54.297  1.00  0.00     0.038 A 
HETATM   36  C   UNL     1      27.755  43.968  54.961  1.00  0.00     0.005 A 
HETATM   37  C   UNL     1      27.792  42.750  54.276  1.00  0.00     0.038 A 
HETATM   38  C   UNL     1      27.460  42.682  52.916  1.00  0.00     0.086 A 
BRANCH  34  39
HETATM   39  O   UNL     1      26.610  46.238  52.354  1.00  0.00    -0.355 OA
HETATM   40  C   UNL     1      25.967  47.078  53.310  1.00  0.00     0.210 C 
ENDBRANCH  34  39
BRANCH  38  41
HETATM   41  O   UNL     1      27.429  41.520  52.195  1.00  0.00    -0.355 OA
HETATM   42  C   UNL     1      28.645  40.796  52.048  1.00  0.00     0.210 C 
ENDBRANCH  38  41
ENDBRANCH   8  33
TORSDOF 8
ENDMDL
MODEL 3
REMARK VINA RESULT:      -9.6      5.793     10.235
REMARK  8 active torsions:
REMARK  status: ('A' for Active; 'I' for Inactive)
REMARK    1  A    between atoms: C_2  and  N_3 
REMARK    2  A    between atoms: C_2  and  C_36 
REMARK       I    between atoms: N_3  and  C_4 
REMARK    3  A    between atoms: C_4  and  C_5 
REMARK    4  A    between atoms: C_5  and  N_6 
REMARK       I    between atoms: N_12  and  C_13 
REMARK    5  A    between atoms: C_13  and  C_14 
REMARK    6  A    between atoms: C_15  and  O_16 
REMARK    7  A    between atoms: C_21  and  O_22 
REMARK    8  A    between atoms: N_27  and  C_28 
ROOT
HETATM    1  N   UNL     1      28.028  41.013  51.782  1.00  0.00    -0.325 N 
HETATM    2  C   UNL     1      28.302  40.002  50.882  1.00  0.00     0.250 C 
HETATM    3  O   UNL     1      29.214  39.193  50.980  1.00  0.00    -0.270 OA
HETATM    4  C   UNL     1      27.310  40.137  49.709  1.00  0.00     0.118 C 
HETATM    5  C   UNL     1      26.697  38.755  49.416  1.00  0.00     0.061 C 
HETATM    6  C   UNL     1      27.552  37.914  48.476  1.00  0.00     0.129 C 
HETATM    7  N   UNL     1      28.029  38.704  47.352  1.00  0.00    -0.348 N 
HETATM    8  C   UNL     1      27.346  38.630  46.131  1.00  0.00     0.259 C 
HETATM    9  O   UNL     1      26.306  37.993  45.979  1.00  0.00    -0.267 OA
HETATM   10  C   UNL     1      28.902  39.802  47.739  1.00  0.00     0.129 C 
HETATM   11  C   UNL     1      28.109  40.809  48.570  1.00  0.00     0.061 C 
HETATM   12  N   UNL     1      26.301  41.076  50.278  1.00  0.00    -0.346 N 
HETATM   13  C   UNL     1      26.784  41.673  51.514  1.00  0.00     0.254 C 
ENDROOT
BRANCH  12  14
HETATM   14  C   UNL     1      25.146  41.551  49.681  1.00  0.00     0.032 A 
HETATM   15  C   UNL     1      24.665  41.079  48.448  1.00  0.00     0.029 A 
HETATM   16  C   UNL     1      23.482  41.555  47.865  1.00  0.00     0.002 A 
HETATM   17  C   UNL     1      22.731  42.530  48.503  1.00  0.00     0.000 A 
HETATM   18  C   UNL     1      23.168  43.026  49.722  1.00  0.00     0.002 A 
HETATM   19  C   UNL     1      24.353  42.542  50.295  1.00  0.00     0.029 A 
ENDBRANCH  12  14
BRANCH   1  20
HETATM   20  C   UNL     1      28.720  41.157  53.053  1.00  0.00     0.230 C 
BRANCH  20  21
HETATM   21  C   UNL     1      29.309  42.553  53.312  1.00  0.00     0.236 C 
HETATM   22  N   UNL     1      28.674  43.277  54.300  1.00  0.00    -0.351 N 
HETATM   23  H   UNL     1      27.768  42.971  54.631  1.00  0.00     0.163 HD
HETATM   24  O   UNL     1      30.244  43.014  52.661  1.00  0.00    -0.272 OA
BRANCH  22  25
HETATM   25  C   UNL     1      29.078  44.648  54.603  1.00  0.00     0.113 C 
HETATM   26  C   UNL     1      27.827  45.538  54.598  1.00  0.00     0.037 C 
BRANCH  25  27
HETATM   27  C   UNL     1      29.883  44.753  55.897  1.00  0.00    -0.036 A 
HETATM   28  C   UNL     1      29.626  45.744  56.861  1.00  0.00     0.009 A 
HETATM   29  C   UNL     1      30.356  45.803  58.053  1.00  0.00     0.001 A 
HETATM   30  C   UNL     1      31.341  44.856  58.318  1.00  0.00     0.000 A 
HETATM   31  C   UNL     1      31.589  43.844  57.397  1.00  0.00     0.001 A 
HETATM   32  C   UNL     1      30.861  43.789  56.205  1.00  0.00     0.009 A 
ENDBRANCH  25  27
ENDBRANCH  22  25
ENDBRANCH  20  21
ENDBRANCH   1  20
BRANCH   8  33
HETATM   33  C   UNL     1      27.972  39.247  44.936  1.00  0.00     0.098 A 
HETATM   34  C   UNL     1      28.957  38.516  44.251  1.00  0.00     0.086 A 
HETATM   35  C   UNL     1      29.564  39.048  43.114  1.00  0.00     0.038 A 
HETATM   36  C   UNL     1      29.212  40.319  42.671  1.00  0.00     0.005 A 
HETATM   37  C   UNL     1      28.222  41.046  43.341  1.00  0.00     0.038 A 
HETATM   38  C   UNL     1      27.581  40.514  44.467  1.00  0.00     0.086 A 
BRANCH  34  39
HETATM   39  O   UNL     1      29.268  37.224  44.588  1.00  0.00    -0.355 OA
HETATM   40  C   UNL     1      30.213  36.667  43.677  1.00  0.00     0.210 C 
ENDBRANCH  34  39
BRANCH  38  41
HETATM   41  O   UNL     1      26.574  41.147  45.142  1.00  0.00    -0.355 OA
HETATM   42  C   UNL     1      25.325  41.304  44.480  1.00  0.00     0.210 C 
ENDBRANCH  38  41
ENDBRANCH   8  33
TORSDOF 8
ENDMDL
MODEL 4
REMARK VINA RESULT:      -9.4      5.777     10.399
REMARK  8 active torsions:
REMARK  status: ('A' for Active; 'I' for Inactive)
REMARK    1  A    between atoms: C_2  and  N_3 
REMARK    2  A    between atoms: C_2  and  C_36 
REMARK       I    between atoms: N_3  and  C_4 
REMARK    3  A    between atoms: C_4  and  C_5 
REMARK    4  A    between atoms: C_5  and  N_6 
REMARK       I    between atoms: N_12  and  C_13 
REMARK    5  A    between atoms: C_13  and  C_14 
REMARK    6  A    between atoms: C_15  and  O_16 
REMARK    7  A    between atoms: C_21  and  O_22 
REMARK    8  A    between atoms: N_27  and  C_28 
ROOT
HETATM    1  N   UNL     1      28.080  41.007  51.787  1.00  0.00    -0.325 N 
HETATM    2  C   UNL     1      28.304  39.963  50.911  1.00  0.00     0.250 C 
HETATM    3  O   UNL     1      29.195  39.132  51.011  1.00  0.00    -0.270 OA
HETATM    4  C   UNL     1      27.288  40.094  49.757  1.00  0.00     0.118 C 
HETATM    5  C   UNL     1      26.629  38.722  49.519  1.00  0.00     0.061 C 
HETATM    6  C   UNL     1      27.438  37.830  48.585  1.00  0.00     0.129 C 
HETATM    7  N   UNL     1      27.909  38.574  47.427  1.00  0.00    -0.348 N 
HETATM    8  C   UNL     1      27.196  38.485  46.225  1.00  0.00     0.259 C 
HETATM    9  O   UNL     1      26.135  37.874  46.116  1.00  0.00    -0.267 OA
HETATM   10  C   UNL     1      28.822  39.657  47.762  1.00  0.00     0.129 C 
HETATM   11  C   UNL     1      28.078  40.710  48.581  1.00  0.00     0.061 C 
HETATM   12  N   UNL     1      26.319  41.077  50.322  1.00  0.00    -0.346 N 
HETATM   13  C   UNL     1      26.850  41.695  51.529  1.00  0.00     0.254 C 
ENDROOT
BRANCH  12  14
HETATM   14  C   UNL     1      25.164  41.568  49.739  1.00  0.00     0.032 A 
HETATM   15  C   UNL     1      24.666  41.107  48.509  1.00  0.00     0.029 A 
HETATM   16  C   UNL     1      23.483  41.599  47.940  1.00  0.00     0.002 A 
HETATM   17  C   UNL     1      22.750  42.580  48.589  1.00  0.00     0.000 A 
HETATM   18  C   UNL     1      23.204  43.066  49.806  1.00  0.00     0.002 A 
HETATM   19  C   UNL     1      24.389  42.565  50.365  1.00  0.00     0.029 A 
ENDBRANCH  12  14
BRANCH   1  20
HETATM   20  C   UNL     1      28.807  41.168  53.037  1.00  0.00     0.230 C 
BRANCH  20  21
HETATM   21  C   UNL     1      29.351  42.583  53.289  1.00  0.00     0.236 C 
HETATM   22  N   UNL     1      28.727  43.271  54.310  1.00  0.00    -0.351 N 
HETATM   23  H   UNL     1      27.847  42.927  54.671  1.00  0.00     0.163 HD
HETATM   24  O   UNL     1      30.242  43.087  52.609  1.00  0.00    -0.272 OA
BRANCH  22  25
HETATM   25  C   UNL     1      29.090  44.654  54.613  1.00  0.00     0.113 C 
HETATM   26  C   UNL     1      27.816  45.511  54.576  1.00  0.00     0.037 C 
BRANCH  25  27
HETATM   27  C   UNL     1      29.863  44.786  55.923  1.00  0.00    -0.036 A 
HETATM   28  C   UNL     1      29.557  45.773  56.877  1.00  0.00     0.009 A 
HETATM   29  C   UNL     1      30.261  45.856  58.084  1.00  0.00     0.001 A 
HETATM   30  C   UNL     1      31.267  44.940  58.373  1.00  0.00     0.000 A 
HETATM   31  C   UNL     1      31.564  43.933  57.461  1.00  0.00     0.001 A 
HETATM   32  C   UNL     1      30.862  43.852  56.254  1.00  0.00     0.009 A 
ENDBRANCH  25  27
ENDBRANCH  22  25
ENDBRANCH  20  21
ENDBRANCH   1  20
BRANCH   8  33
HETATM   33  C   UNL     1      27.809  39.049  44.999  1.00  0.00     0.098 A 
HETATM   34  C   UNL     1      27.396  40.324  44.578  1.00  0.00     0.086 A 
HETATM   35  C   UNL     1      27.954  40.904  43.438  1.00  0.00     0.038 A 
HETATM   36  C   UNL     1      28.904  40.205  42.700  1.00  0.00     0.005 A 
HETATM   37  C   UNL     1      29.330  38.941  43.122  1.00  0.00     0.038 A 
HETATM   38  C   UNL     1      28.801  38.358  44.281  1.00  0.00     0.086 A 
BRANCH  34  39
HETATM   39  O   UNL     1      26.538  41.093  45.321  1.00  0.00    -0.355 OA
HETATM   40  C   UNL     1      25.287  41.257  44.658  1.00  0.00     0.210 C 
ENDBRANCH  34  39
BRANCH  38  41
HETATM   41  O   UNL     1      29.202  37.148  44.778  1.00  0.00    -0.355 OA
HETATM   42  C   UNL     1      30.295  36.496  44.140  1.00  0.00     0.210 C 
ENDBRANCH  38  41
ENDBRANCH   8  33
TORSDOF 8
ENDMDL
MODEL 5
REMARK VINA RESULT:      -8.9      2.740      9.430
REMARK  8 active torsions:
REMARK  status: ('A' for Active; 'I' for Inactive)
REMARK    1  A    between atoms: C_2  and  N_3 
REMARK    2  A    between atoms: C_2  and  C_36 
REMARK       I    between atoms: N_3  and  C_4 
REMARK    3  A    between atoms: C_4  and  C_5 
REMARK    4  A    between atoms: C_5  and  N_6 
REMARK       I    between atoms: N_12  and  C_13 
REMARK    5  A    between atoms: C_13  and  C_14 
REMARK    6  A    between atoms: C_15  and  O_16 
REMARK    7  A    between atoms: C_21  and  O_22 
REMARK    8  A    between atoms: N_27  and  C_28 
ROOT
HETATM    1  N   UNL     1      24.032  47.284  49.258  1.00  0.00    -0.325 N 
HETATM    2  C   UNL     1      23.117  46.333  48.853  1.00  0.00     0.250 C 
HETATM    3  O   UNL     1      23.348  45.140  48.715  1.00  0.00    -0.270 OA
HETATM    4  C   UNL     1      21.795  47.061  48.532  1.00  0.00     0.118 C 
HETATM    5  C   UNL     1      20.637  46.313  49.219  1.00  0.00     0.061 C 
HETATM    6  C   UNL     1      20.098  45.159  48.384  1.00  0.00     0.129 C 
HETATM    7  N   UNL     1      19.931  45.551  46.994  1.00  0.00    -0.348 N 
HETATM    8  C   UNL     1      18.660  45.929  46.542  1.00  0.00     0.259 C 
HETATM    9  O   UNL     1      17.685  46.031  47.284  1.00  0.00    -0.267 OA
HETATM   10  C   UNL     1      21.177  45.913  46.335  1.00  0.00     0.129 C 
HETATM   11  C   UNL     1      21.749  47.169  46.991  1.00  0.00     0.061 C 
HETATM   12  N   UNL     1      22.032  48.397  49.152  1.00  0.00    -0.346 N 
HETATM   13  C   UNL     1      23.430  48.558  49.523  1.00  0.00     0.254 C 
ENDROOT
BRANCH  12  14
HETATM   14  C   UNL     1      21.170  49.478  49.205  1.00  0.00     0.032 A 
HETATM   15  C   UNL     1      21.341  50.637  48.428  1.00  0.00     0.029 A 
HETATM   16  C   UNL     1      20.448  51.717  48.476  1.00  0.00     0.002 A 
HETATM   17  C   UNL     1      19.342  51.675  49.311  1.00  0.00     0.000 A 
HETATM   18  C   UNL     1      19.134  50.550  50.096  1.00  0.00     0.002 A 
HETATM   19  C   UNL     1      20.034  49.476  50.039  1.00  0.00     0.029 A 
ENDBRANCH  12  14
BRANCH   1  20
HETATM   20  C   UNL     1      25.375  46.956  49.711  1.00  0.00     0.230 C 
BRANCH  20  21
HETATM   21  C   UNL     1      25.511  46.749  51.229  1.00  0.00     0.236 C 
HETATM   22  N   UNL     1      26.212  45.620  51.600  1.00  0.00    -0.351 N 
HETATM   23  H   UNL     1      26.395  44.904  50.909  1.00  0.00     0.163 HD
HETATM   24  O   UNL     1      24.998  47.502  52.053  1.00  0.00    -0.272 OA
BRANCH  22  25
HETATM   25  C   UNL     1      26.356  45.257  53.008  1.00  0.00     0.113 C 
HETATM   26  C   UNL     1      25.125  44.441  53.429  1.00  0.00     0.037 C 
BRANCH  25  27
HETATM   27  C   UNL     1      27.676  44.545  53.300  1.00  0.00    -0.036 A 
HETATM   28  C   UNL     1      28.300  44.610  54.558  1.00  0.00     0.009 A 
HETATM   29  C   UNL     1      29.494  43.926  54.812  1.00  0.00     0.001 A 
HETATM   30  C   UNL     1      30.075  43.141  53.820  1.00  0.00     0.000 A 
HETATM   31  C   UNL     1      29.457  43.030  52.579  1.00  0.00     0.001 A 
HETATM   32  C   UNL     1      28.266  43.718  52.326  1.00  0.00     0.009 A 
ENDBRANCH  25  27
ENDBRANCH  22  25
ENDBRANCH  20  21
ENDBRANCH   1  20
BRANCH   8  33
HETATM   33  C   UNL     1      18.451  46.096  45.084  1.00  0.00     0.098 A 
HETATM   34  C   UNL     1      18.182  44.950  44.317  1.00  0.00     0.086 A 
HETATM   35  C   UNL     1      17.965  45.057  42.943  1.00  0.00     0.038 A 
HETATM   36  C   UNL     1      18.042  46.301  42.325  1.00  0.00     0.005 A 
HETATM   37  C   UNL     1      18.296  47.448  43.085  1.00  0.00     0.038 A 
HETATM   38  C   UNL     1      18.486  47.361  44.470  1.00  0.00     0.086 A 
BRANCH  34  39
HETATM   39  O   UNL     1      18.000  43.718  44.891  1.00  0.00    -0.355 OA
HETATM   40  C   UNL     1      19.043  42.819  44.525  1.00  0.00     0.210 C 
ENDBRANCH  34  39
BRANCH  38  41
HETATM   41  O   UNL     1      18.692  48.443  45.282  1.00  0.00    -0.355 OA
HETATM   42  C   UNL     1      17.602  49.332  45.495  1.00  0.00     0.210 C 
ENDBRANCH  38  41
ENDBRANCH   8  33
TORSDOF 8
ENDMDL
MODEL 6
REMARK VINA RESULT:      -8.8      2.790      9.699
REMARK  8 active torsions:
REMARK  status: ('A' for Active; 'I' for Inactive)
REMARK    1  A    between atoms: C_2  and  N_3 
REMARK    2  A    between atoms: C_2  and  C_36 
REMARK       I    between atoms: N_3  and  C_4 
REMARK    3  A    between atoms: C_4  and  C_5 
REMARK    4  A    between atoms: C_5  and  N_6 
REMARK       I    between atoms: N_12  and  C_13 
REMARK    5  A    between atoms: C_13  and  C_14 
REMARK    6  A    between atoms: C_15  and  O_16 
REMARK    7  A    between atoms: C_21  and  O_22 
REMARK    8  A    between atoms: N_27  and  C_28 
ROOT
HETATM    1  N   UNL     1      23.941  47.230  49.204  1.00  0.00    -0.325 N 
HETATM    2  C   UNL     1      23.011  46.294  48.798  1.00  0.00     0.250 C 
HETATM    3  O   UNL     1      23.225  45.100  48.645  1.00  0.00    -0.270 OA
HETATM    4  C   UNL     1      21.695  47.042  48.498  1.00  0.00     0.118 C 
HETATM    5  C   UNL     1      20.534  46.301  49.189  1.00  0.00     0.061 C 
HETATM    6  C   UNL     1      19.973  45.163  48.347  1.00  0.00     0.129 C 
HETATM    7  N   UNL     1      19.797  45.571  46.962  1.00  0.00    -0.348 N 
HETATM    8  C   UNL     1      18.527  45.970  46.527  1.00  0.00     0.259 C 
HETATM    9  O   UNL     1      17.560  46.076  47.279  1.00  0.00    -0.267 OA
HETATM   10  C   UNL     1      21.042  45.925  46.295  1.00  0.00     0.129 C 
HETATM   11  C   UNL     1      21.635  47.166  46.959  1.00  0.00     0.061 C 
HETATM   12  N   UNL     1      21.954  48.368  49.130  1.00  0.00    -0.346 N 
HETATM   13  C   UNL     1      23.357  48.508  49.489  1.00  0.00     0.254 C 
ENDROOT
BRANCH  12  14
HETATM   14  C   UNL     1      21.106  49.459  49.202  1.00  0.00     0.032 A 
HETATM   15  C   UNL     1      21.283  50.624  48.436  1.00  0.00     0.029 A 
HETATM   16  C   UNL     1      20.404  51.714  48.504  1.00  0.00     0.002 A 
HETATM   17  C   UNL     1      19.306  51.676  49.350  1.00  0.00     0.000 A 
HETATM   18  C   UNL     1      19.092  50.547  50.125  1.00  0.00     0.002 A 
HETATM   19  C   UNL     1      19.979  49.463  50.048  1.00  0.00     0.029 A 
ENDBRANCH  12  14
BRANCH   1  20
HETATM   20  C   UNL     1      25.284  46.880  49.642  1.00  0.00     0.230 C 
BRANCH  20  21
HETATM   21  C   UNL     1      25.444  46.710  51.161  1.00  0.00     0.236 C 
HETATM   22  N   UNL     1      26.125  45.575  51.549  1.00  0.00    -0.351 N 
HETATM   23  H   UNL     1      26.278  44.836  50.875  1.00  0.00     0.163 HD
HETATM   24  O   UNL     1      24.965  47.497  51.975  1.00  0.00    -0.272 OA
BRANCH  22  25
HETATM   25  C   UNL     1      26.287  45.244  52.963  1.00  0.00     0.113 C 
HETATM   26  C   UNL     1      25.033  44.494  53.436  1.00  0.00     0.037 C 
BRANCH  25  27
HETATM   27  C   UNL     1      27.582  44.485  53.246  1.00  0.00    -0.036 A 
HETATM   28  C   UNL     1      28.233  43.721  52.260  1.00  0.00     0.009 A 
HETATM   29  C   UNL     1      29.434  43.058  52.533  1.00  0.00     0.001 A 
HETATM   30  C   UNL     1      30.023  43.164  53.789  1.00  0.00     0.000 A 
HETATM   31  C   UNL     1      29.418  43.943  54.770  1.00  0.00     0.001 A 
HETATM   32  C   UNL     1      28.215  44.602  54.497  1.00  0.00     0.009 A 
ENDBRANCH  25  27
ENDBRANCH  22  25
ENDBRANCH  20  21
ENDBRANCH   1  20
BRANCH   8  33
HETATM   33  C   UNL     1      18.307  46.155  45.072  1.00  0.00     0.098 A 
HETATM   34  C   UNL     1      18.386  47.456  44.549  1.00  0.00     0.086 A 
HETATM   35  C   UNL     1      18.201  47.679  43.185  1.00  0.00     0.038 A 
HETATM   36  C   UNL     1      17.909  46.612  42.342  1.00  0.00     0.005 A 
HETATM   37  C   UNL     1      17.842  45.312  42.854  1.00  0.00     0.038 A 
HETATM   38  C   UNL     1      18.055  45.067  44.217  1.00  0.00     0.086 A 
BRANCH  34  39
HETATM   39  O   UNL     1      18.767  48.526  45.318  1.00  0.00    -0.355 OA
HETATM   40  C   UNL     1      17.744  49.518  45.363  1.00  0.00     0.210 C 
ENDBRANCH  34  39
BRANCH  38  41
HETATM   41  O   UNL     1      18.051  43.819  44.778  1.00  0.00    -0.355 OA
HETATM   42  C   UNL     1      18.007  42.697  43.905  1.00  0.00     0.210 C 
ENDBRANCH  38  41
ENDBRANCH   8  33
TORSDOF 8
ENDMDL
MODEL 7
REMARK VINA RESULT:      -8.7      3.089      5.797
REMARK  8 active torsions:
REMARK  status: ('A' for Active; 'I' for Inactive)
REMARK    1  A    between atoms: C_2  and  N_3 
REMARK    2  A    between atoms: C_2  and  C_36 
REMARK       I    between atoms: N_3  and  C_4 
REMARK    3  A    between atoms: C_4  and  C_5 
REMARK    4  A    between atoms: C_5  and  N_6 
REMARK       I    between atoms: N_12  and  C_13 
REMARK    5  A    between atoms: C_13  and  C_14 
REMARK    6  A    between atoms: C_15  and  O_16 
REMARK    7  A    between atoms: C_21  and  O_22 
REMARK    8  A    between atoms: N_27  and  C_28 
ROOT
HETATM    1  N   UNL     1      19.504  49.153  49.748  1.00  0.00    -0.325 N 
HETATM    2  C   UNL     1      19.377  48.192  48.765  1.00  0.00     0.250 C 
HETATM    3  O   UNL     1      18.323  47.704  48.382  1.00  0.00    -0.270 OA
HETATM    4  C   UNL     1      20.797  47.797  48.309  1.00  0.00     0.118 C 
HETATM    5  C   UNL     1      20.846  47.811  46.770  1.00  0.00     0.061 C 
HETATM    6  C   UNL     1      20.381  46.501  46.149  1.00  0.00     0.129 C 
HETATM    7  N   UNL     1      20.956  45.358  46.842  1.00  0.00    -0.348 N 
HETATM    8  C   UNL     1      22.088  44.735  46.302  1.00  0.00     0.259 C 
HETATM    9  O   UNL     1      22.680  45.156  45.310  1.00  0.00    -0.267 OA
HETATM   10  C   UNL     1      20.548  45.255  48.235  1.00  0.00     0.129 C 
HETATM   11  C   UNL     1      21.094  46.452  49.011  1.00  0.00     0.061 C 
HETATM   12  N   UNL     1      21.615  48.897  48.896  1.00  0.00    -0.346 N 
HETATM   13  C   UNL     1      20.834  49.679  49.842  1.00  0.00     0.254 C 
ENDROOT
BRANCH  12  14
HETATM   14  C   UNL     1      22.982  49.091  48.795  1.00  0.00     0.032 A 
HETATM   15  C   UNL     1      23.924  48.291  49.464  1.00  0.00     0.029 A 
HETATM   16  C   UNL     1      25.307  48.485  49.337  1.00  0.00     0.002 A 
HETATM   17  C   UNL     1      25.800  49.497  48.527  1.00  0.00     0.000 A 
HETATM   18  C   UNL     1      24.906  50.311  47.847  1.00  0.00     0.002 A 
HETATM   19  C   UNL     1      23.525  50.106  47.983  1.00  0.00     0.029 A 
ENDBRANCH  12  14
BRANCH   1  20
HETATM   20  C   UNL     1      18.366  49.817  50.365  1.00  0.00     0.230 C 
BRANCH  20  21
HETATM   21  C   UNL     1      17.958  51.145  49.706  1.00  0.00     0.236 C 
HETATM   22  N   UNL     1      16.830  51.077  48.915  1.00  0.00    -0.351 N 
HETATM   23  H   UNL     1      16.476  50.170  48.636  1.00  0.00     0.163 HD
HETATM   24  O   UNL     1      18.608  52.180  49.833  1.00  0.00    -0.272 OA
BRANCH  22  25
HETATM   25  C   UNL     1      16.367  52.244  48.167  1.00  0.00     0.113 C 
HETATM   26  C   UNL     1      16.061  51.809  46.726  1.00  0.00     0.037 C 
BRANCH  25  27
HETATM   27  C   UNL     1      15.193  52.949  48.843  1.00  0.00    -0.036 A 
HETATM   28  C   UNL     1      14.880  52.750  50.200  1.00  0.00     0.009 A 
HETATM   29  C   UNL     1      13.817  53.430  50.805  1.00  0.00     0.001 A 
HETATM   30  C   UNL     1      13.061  54.340  50.074  1.00  0.00     0.000 A 
HETATM   31  C   UNL     1      13.374  54.582  48.741  1.00  0.00     0.001 A 
HETATM   32  C   UNL     1      14.434  53.899  48.136  1.00  0.00     0.009 A 
ENDBRANCH  25  27
ENDBRANCH  22  25
ENDBRANCH  20  21
ENDBRANCH   1  20
BRANCH   8  33
HETATM   33  C   UNL     1      22.522  43.440  46.879  1.00  0.00     0.098 A 
HETATM   34  C   UNL     1      23.567  43.449  47.817  1.00  0.00     0.086 A 
HETATM   35  C   UNL     1      24.001  42.258  48.399  1.00  0.00     0.038 A 
HETATM   36  C   UNL     1      23.414  41.052  48.028  1.00  0.00     0.005 A 
HETATM   37  C   UNL     1      22.364  41.038  47.105  1.00  0.00     0.038 A 
HETATM   38  C   UNL     1      21.896  42.229  46.534  1.00  0.00     0.086 A 
BRANCH  34  39
HETATM   39  O   UNL     1      24.111  44.616  48.288  1.00  0.00    -0.355 OA
HETATM   40  C   UNL     1      24.613  44.455  49.612  1.00  0.00     0.210 C 
ENDBRANCH  34  39
BRANCH  38  41
HETATM   41  O   UNL     1      20.845  42.295  45.661  1.00  0.00    -0.355 OA
HETATM   42  C   UNL     1      20.272  41.072  45.215  1.00  0.00     0.210 C 
ENDBRANCH  38  41
ENDBRANCH   8  33
TORSDOF 8
ENDMDL
MODEL 8
REMARK VINA RESULT:      -8.6      3.176      5.881
REMARK  8 active torsions:
REMARK  status: ('A' for Active; 'I' for Inactive)
REMARK    1  A    between atoms: C_2  and  N_3 
REMARK    2  A    between atoms: C_2  and  C_36 
REMARK       I    between atoms: N_3  and  C_4 
REMARK    3  A    between atoms: C_4  and  C_5 
REMARK    4  A    between atoms: C_5  and  N_6 
REMARK       I    between atoms: N_12  and  C_13 
REMARK    5  A    between atoms: C_13  and  C_14 
REMARK    6  A    between atoms: C_15  and  O_16 
REMARK    7  A    between atoms: C_21  and  O_22 
REMARK    8  A    between atoms: N_27  and  C_28 
ROOT
HETATM    1  N   UNL     1      19.459  49.123  49.730  1.00  0.00    -0.325 N 
HETATM    2  C   UNL     1      19.311  48.194  48.719  1.00  0.00     0.250 C 
HETATM    3  O   UNL     1      18.247  47.742  48.320  1.00  0.00    -0.270 OA
HETATM    4  C   UNL     1      20.723  47.779  48.254  1.00  0.00     0.118 C 
HETATM    5  C   UNL     1      20.776  47.838  46.716  1.00  0.00     0.061 C 
HETATM    6  C   UNL     1      20.281  46.557  46.057  1.00  0.00     0.129 C 
HETATM    7  N   UNL     1      20.828  45.381  46.716  1.00  0.00    -0.348 N 
HETATM    8  C   UNL     1      21.947  44.748  46.160  1.00  0.00     0.259 C 
HETATM    9  O   UNL     1      22.550  45.184  45.182  1.00  0.00    -0.267 OA
HETATM   10  C   UNL     1      20.415  45.247  48.105  1.00  0.00     0.129 C 
HETATM   11  C   UNL     1      20.987  46.408  48.917  1.00  0.00     0.061 C 
HETATM   12  N   UNL     1      21.565  48.842  48.874  1.00  0.00    -0.346 N 
HETATM   13  C   UNL     1      20.800  49.614  49.842  1.00  0.00     0.254 C 
ENDROOT
BRANCH  12  14
HETATM   14  C   UNL     1      22.936  49.007  48.781  1.00  0.00     0.032 A 
HETATM   15  C   UNL     1      23.541  49.987  47.976  1.00  0.00     0.029 A 
HETATM   16  C   UNL     1      24.931  50.157  47.907  1.00  0.00     0.002 A 
HETATM   17  C   UNL     1      25.773  49.342  48.649  1.00  0.00     0.000 A 
HETATM   18  C   UNL     1      25.220  48.360  49.457  1.00  0.00     0.002 A 
HETATM   19  C   UNL     1      23.828  48.201  49.517  1.00  0.00     0.029 A 
ENDBRANCH  12  14
BRANCH   1  20
HETATM   20  C   UNL     1      18.335  49.795  50.365  1.00  0.00     0.230 C 
BRANCH  20  21
HETATM   21  C   UNL     1      17.942  51.137  49.727  1.00  0.00     0.236 C 
HETATM   22  N   UNL     1      16.836  51.085  48.902  1.00  0.00    -0.351 N 
HETATM   23  H   UNL     1      16.494  50.185  48.592  1.00  0.00     0.163 HD
HETATM   24  O   UNL     1      18.584  52.170  49.897  1.00  0.00    -0.272 OA
BRANCH  22  25
HETATM   25  C   UNL     1      16.392  52.269  48.170  1.00  0.00     0.113 C 
HETATM   26  C   UNL     1      16.129  51.869  46.710  1.00  0.00     0.037 C 
BRANCH  25  27
HETATM   27  C   UNL     1      15.195  52.954  48.828  1.00  0.00    -0.036 A 
HETATM   28  C   UNL     1      14.875  52.762  50.184  1.00  0.00     0.009 A 
HETATM   29  C   UNL     1      13.792  53.423  50.773  1.00  0.00     0.001 A 
HETATM   30  C   UNL     1      13.021  54.308  50.026  1.00  0.00     0.000 A 
HETATM   31  C   UNL     1      13.340  54.542  48.693  1.00  0.00     0.001 A 
HETATM   32  C   UNL     1      14.421  53.879  48.104  1.00  0.00     0.009 A 
ENDBRANCH  25  27
ENDBRANCH  22  25
ENDBRANCH  20  21
ENDBRANCH   1  20
BRANCH   8  33
HETATM   33  C   UNL     1      22.349  43.427  46.699  1.00  0.00     0.098 A 
HETATM   34  C   UNL     1      21.695  42.284  46.210  1.00  0.00     0.086 A 
HETATM   35  C   UNL     1      22.047  41.017  46.677  1.00  0.00     0.038 A 
HETATM   36  C   UNL     1      23.032  40.888  47.650  1.00  0.00     0.005 A 
HETATM   37  C   UNL     1      23.697  42.020  48.132  1.00  0.00     0.038 A 
HETATM   38  C   UNL     1      23.376  43.297  47.652  1.00  0.00     0.086 A 
BRANCH  34  39
HETATM   39  O   UNL     1      20.789  42.349  45.183  1.00  0.00    -0.355 OA
HETATM   40  C   UNL     1      21.300  41.731  44.005  1.00  0.00     0.210 C 
ENDBRANCH  34  39
BRANCH  38  41
HETATM   41  O   UNL     1      24.014  44.442  48.042  1.00  0.00    -0.355 OA
HETATM   42  C   UNL     1      24.747  44.413  49.261  1.00  0.00     0.210 C 
ENDBRANCH  38  41
ENDBRANCH   8  33
TORSDOF 8
ENDMDL
MODEL 9
REMARK VINA RESULT:      -8.6      3.056      9.395
REMARK  8 active torsions:
REMARK  status: ('A' for Active; 'I' for Inactive)
REMARK    1  A    between atoms: C_2  and  N_3 
REMARK    2  A    between atoms: C_2  and  C_36 
REMARK       I    between atoms: N_3  and  C_4 
REMARK    3  A    between atoms: C_4  and  C_5 
REMARK    4  A    between atoms: C_5  and  N_6 
REMARK       I    between atoms: N_12  and  C_13 
REMARK    5  A    between atoms: C_13  and  C_14 
REMARK    6  A    between atoms: C_15  and  O_16 
REMARK    7  A    between atoms: C_21  and  O_22 
REMARK    8  A    between atoms: N_27  and  C_28 
ROOT
HETATM    1  N   UNL     1      23.468  45.742  48.780  1.00  0.00    -0.325 N 
HETATM    2  C   UNL     1      22.317  45.154  48.296  1.00  0.00     0.250 C 
HETATM    3  O   UNL     1      22.176  43.964  48.050  1.00  0.00    -0.270 OA
HETATM    4  C   UNL     1      21.287  46.276  48.048  1.00  0.00     0.118 C 
HETATM    5  C   UNL     1      19.941  45.860  48.671  1.00  0.00     0.061 C 
HETATM    6  C   UNL     1      19.095  45.003  47.738  1.00  0.00     0.129 C 
HETATM    7  N   UNL     1      19.087  45.547  46.389  1.00  0.00    -0.348 N 
HETATM    8  C   UNL     1      18.002  46.333  45.979  1.00  0.00     0.259 C 
HETATM    9  O   UNL     1      17.088  46.663  46.732  1.00  0.00    -0.267 OA
HETATM   10  C   UNL     1      20.399  45.567  45.760  1.00  0.00     0.129 C 
HETATM   11  C   UNL     1      21.311  46.526  46.523  1.00  0.00     0.061 C 
HETATM   12  N   UNL     1      21.904  47.416  48.784  1.00  0.00    -0.346 N 
HETATM   13  C   UNL     1      23.277  47.110  49.161  1.00  0.00     0.254 C 
ENDROOT
BRANCH  12  14
HETATM   14  C   UNL     1      21.412  48.700  48.938  1.00  0.00     0.032 A 
HETATM   15  C   UNL     1      20.224  48.991  49.630  1.00  0.00     0.029 A 
HETATM   16  C   UNL     1      19.747  50.299  49.797  1.00  0.00     0.002 A 
HETATM   17  C   UNL     1      20.449  51.372  49.270  1.00  0.00     0.000 A 
HETATM   18  C   UNL     1      21.627  51.132  48.578  1.00  0.00     0.002 A 
HETATM   19  C   UNL     1      22.093  49.819  48.419  1.00  0.00     0.029 A 
ENDBRANCH  12  14
BRANCH   1  20
HETATM   20  C   UNL     1      24.637  44.981  49.196  1.00  0.00     0.230 C 
BRANCH  20  21
HETATM   21  C   UNL     1      24.656  44.591  50.683  1.00  0.00     0.236 C 
HETATM   22  N   UNL     1      25.890  44.694  51.293  1.00  0.00    -0.351 N 
HETATM   23  H   UNL     1      26.718  44.793  50.719  1.00  0.00     0.163 HD
HETATM   24  O   UNL     1      23.665  44.175  51.277  1.00  0.00    -0.272 OA
BRANCH  22  25
HETATM   25  C   UNL     1      26.075  44.285  52.684  1.00  0.00     0.113 C 
HETATM   26  C   UNL     1      27.003  43.062  52.714  1.00  0.00     0.037 C 
BRANCH  25  27
HETATM   27  C   UNL     1      26.561  45.428  53.573  1.00  0.00    -0.036 A 
HETATM   28  C   UNL     1      27.784  45.372  54.264  1.00  0.00     0.009 A 
HETATM   29  C   UNL     1      28.223  46.443  55.050  1.00  0.00     0.001 A 
HETATM   30  C   UNL     1      27.459  47.603  55.141  1.00  0.00     0.000 A 
HETATM   31  C   UNL     1      26.263  47.697  54.438  1.00  0.00     0.001 A 
HETATM   32  C   UNL     1      25.824  46.625  53.656  1.00  0.00     0.009 A 
ENDBRANCH  25  27
ENDBRANCH  22  25
ENDBRANCH  20  21
ENDBRANCH   1  20
BRANCH   8  33
HETATM   33  C   UNL     1      17.888  46.682  44.543  1.00  0.00     0.098 A 
HETATM   34  C   UNL     1      17.335  45.729  43.671  1.00  0.00     0.086 A 
HETATM   35  C   UNL     1      17.194  46.015  42.313  1.00  0.00     0.038 A 
HETATM   36  C   UNL     1      17.626  47.240  41.815  1.00  0.00     0.005 A 
HETATM   37  C   UNL     1      18.165  48.199  42.680  1.00  0.00     0.038 A 
HETATM   38  C   UNL     1      18.286  47.938  44.051  1.00  0.00     0.086 A 
BRANCH  34  39
HETATM   39  O   UNL     1      16.805  44.549  44.126  1.00  0.00    -0.355 OA
HETATM   40  C   UNL     1      15.390  44.520  43.959  1.00  0.00     0.210 C 
ENDBRANCH  34  39
BRANCH  38  41
HETATM   41  O   UNL     1      18.759  48.843  44.961  1.00  0.00    -0.355 OA
HETATM   42  C   UNL     1      18.369  50.203  44.812  1.00  0.00     0.210 C 
ENDBRANCH  38  41
ENDBRANCH   8  33
TORSDOF 8
ENDMDL
MODEL 10
REMARK VINA RESULT:      -8.4      5.258      9.200
REMARK  8 active torsions:
REMARK  status: ('A' for Active; 'I' for Inactive)
REMARK    1  A    between atoms: C_2  and  N_3 
REMARK    2  A    between atoms: C_2  and  C_36 
REMARK       I    between atoms: N_3  and  C_4 
REMARK    3  A    between atoms: C_4  and  C_5 
REMARK    4  A    between atoms: C_5  and  N_6 
REMARK       I    between atoms: N_12  and  C_13 
REMARK    5  A    between atoms: C_13  and  C_14 
REMARK    6  A    between atoms: C_15  and  O_16 
REMARK    7  A    between atoms: C_21  and  O_22 
REMARK    8  A    between atoms: N_27  and  C_28 
ROOT
HETATM    1  N   UNL     1      28.618  41.904  51.757  1.00  0.00    -0.325 N 
HETATM    2  C   UNL     1      28.467  40.651  51.196  1.00  0.00     0.250 C 
HETATM    3  O   UNL     1      29.073  39.644  51.534  1.00  0.00    -0.270 OA
HETATM    4  C   UNL     1      27.468  40.779  50.027  1.00  0.00     0.118 C 
HETATM    5  C   UNL     1      26.417  39.660  50.148  1.00  0.00     0.061 C 
HETATM    6  C   UNL     1      26.865  38.354  49.503  1.00  0.00     0.129 C 
HETATM    7  N   UNL     1      27.466  38.591  48.200  1.00  0.00    -0.348 N 
HETATM    8  C   UNL     1      26.688  38.413  47.049  1.00  0.00     0.259 C 
HETATM    9  O   UNL     1      25.488  38.148  47.083  1.00  0.00    -0.267 OA
HETATM   10  C   UNL     1      28.679  39.393  48.255  1.00  0.00     0.129 C 
HETATM   11  C   UNL     1      28.335  40.798  48.747  1.00  0.00     0.061 C 
HETATM   12  N   UNL     1      26.874  42.122  50.287  1.00  0.00    -0.346 N 
HETATM   13  C   UNL     1      27.636  42.841  51.298  1.00  0.00     0.254 C 
ENDROOT
BRANCH  12  14
HETATM   14  C   UNL     1      25.885  42.771  49.569  1.00  0.00     0.032 A 
HETATM   15  C   UNL     1      25.001  42.107  48.702  1.00  0.00     0.029 A 
HETATM   16  C   UNL     1      23.991  42.774  47.996  1.00  0.00     0.002 A 
HETATM   17  C   UNL     1      23.828  44.144  48.135  1.00  0.00     0.000 A 
HETATM   18  C   UNL     1      24.678  44.841  48.980  1.00  0.00     0.002 A 
HETATM   19  C   UNL     1      25.685  44.161  49.681  1.00  0.00     0.029 A 
ENDBRANCH  12  14
BRANCH   1  20
HETATM   20  C   UNL     1      29.433  42.156  52.936  1.00  0.00     0.230 C 
BRANCH  20  21
HETATM   21  C   UNL     1      28.734  42.957  54.045  1.00  0.00     0.236 C 
HETATM   22  N   UNL     1      29.300  44.186  54.318  1.00  0.00    -0.351 N 
HETATM   23  H   UNL     1      30.224  44.394  53.962  1.00  0.00     0.163 HD
HETATM   24  O   UNL     1      27.772  42.525  54.676  1.00  0.00    -0.272 OA
BRANCH  22  25
HETATM   25  C   UNL     1      28.786  45.025  55.399  1.00  0.00     0.113 C 
HETATM   26  C   UNL     1      29.971  45.726  56.077  1.00  0.00     0.037 C 
BRANCH  25  27
HETATM   27  C   UNL     1      27.705  45.996  54.927  1.00  0.00    -0.036 A 
HETATM   28  C   UNL     1      27.478  47.230  55.561  1.00  0.00     0.009 A 
HETATM   29  C   UNL     1      26.502  48.117  55.093  1.00  0.00     0.001 A 
HETATM   30  C   UNL     1      25.749  47.799  53.967  1.00  0.00     0.000 A 
HETATM   31  C   UNL     1      25.980  46.600  53.301  1.00  0.00     0.001 A 
HETATM   32  C   UNL     1      26.953  45.714  53.771  1.00  0.00     0.009 A 
ENDBRANCH  25  27
ENDBRANCH  22  25
ENDBRANCH  20  21
ENDBRANCH   1  20
BRANCH   8  33
HETATM   33  C   UNL     1      27.367  38.425  45.731  1.00  0.00     0.098 A 
HETATM   34  C   UNL     1      27.302  39.599  44.962  1.00  0.00     0.086 A 
HETATM   35  C   UNL     1      27.937  39.664  43.722  1.00  0.00     0.038 A 
HETATM   36  C   UNL     1      28.614  38.553  43.232  1.00  0.00     0.005 A 
HETATM   37  C   UNL     1      28.694  37.385  43.998  1.00  0.00     0.038 A 
HETATM   38  C   UNL     1      28.088  37.313  45.259  1.00  0.00     0.086 A 
BRANCH  34  39
HETATM   39  O   UNL     1      26.732  40.751  45.442  1.00  0.00    -0.355 OA
HETATM   40  C   UNL     1      25.565  41.096  44.700  1.00  0.00     0.210 C 
ENDBRANCH  34  39
BRANCH  38  41
HETATM   41  O   UNL     1      28.163  36.223  46.082  1.00  0.00    -0.355 OA
HETATM   42  C   UNL     1      27.520  35.026  45.661  1.00  0.00     0.210 C 
ENDBRANCH  38  41
ENDBRANCH   8  33
TORSDOF 8
ENDMDL
