MODEL 1
REMARK VINA RESULT:     -10.1      0.000      0.000
REMARK  6 active torsions:
REMARK  status: ('A' for Active; 'I' for Inactive)
REMARK    1  A    between atoms: O_2  and  C_3 
REMARK    2  A    between atoms: C_5  and  N_6 
REMARK    3  A    between atoms: C_8  and  C_9 
REMARK    4  A    between atoms: C_9  and  N_10 
REMARK       I    between atoms: N_10  and  C_11 
REMARK       I    between atoms: C_11  and  N_12 
REMARK    5  A    between atoms: N_12  and  C_13 
REMARK    6  A    between atoms: C_13  and  C_14 
ROOT
HETATM    1  N   UNL     1      25.972  41.935  51.356  1.00  0.00    -0.343 N 
HETATM    2  C   UNL     1      27.216  42.504  51.359  1.00  0.00     0.316 C 
HETATM    3  N   UNL     1      28.004  41.967  52.340  1.00  0.00    -0.339 N 
HETATM    4  O   UNL     1      27.590  43.349  50.558  1.00  0.00    -0.248 OA
HETATM    5  H   UNL     1      25.869  41.072  51.869  1.00  0.00     0.164 HD
HETATM    6  H   UNL     1      27.526  41.645  53.167  1.00  0.00     0.164 HD
ENDROOT
BRANCH   1   7
HETATM    7  C   UNL     1      25.011  42.202  50.301  1.00  0.00     0.130 C 
BRANCH   7   8
HETATM    8  C   UNL     1      23.809  43.039  50.770  1.00  0.00     0.023 C 
HETATM    9  C   UNL     1      24.206  44.461  51.180  1.00  0.00     0.129 C 
HETATM   10  N   UNL     1      24.184  45.213  49.926  1.00  0.00    -0.380 N 
HETATM   11  C   UNL     1      23.428  44.504  48.895  1.00  0.00     0.123 C 
HETATM   12  C   UNL     1      22.827  43.304  49.628  1.00  0.00     0.028 C 
BRANCH  10  13
HETATM   13  C   UNL     1      24.827  46.415  49.732  1.00  0.00     0.032 A 
HETATM   14  C   UNL     1      24.115  47.610  49.513  1.00  0.00     0.066 A 
HETATM   15  C   UNL     1      24.761  48.835  49.292  1.00  0.00     0.070 A 
HETATM   16  C   UNL     1      26.153  48.880  49.276  1.00  0.00     0.037 A 
HETATM   17  C   UNL     1      26.888  47.725  49.503  1.00  0.00     0.005 A 
HETATM   18  C   UNL     1      26.228  46.513  49.734  1.00  0.00     0.029 A 
BRANCH  15  19
HETATM   19  O   UNL     1      24.150  50.038  49.068  1.00  0.00    -0.356 OA
HETATM   20  C   UNL     1      23.552  50.227  47.792  1.00  0.00     0.210 C 
ENDBRANCH  15  19
ENDBRANCH  10  13
ENDBRANCH   7   8
ENDBRANCH   1   7
BRANCH   3  21
HETATM   21  C   UNL     1      29.359  42.435  52.520  1.00  0.00     0.162 C 
BRANCH  21  22
HETATM   22  C   UNL     1      29.466  43.333  53.724  1.00  0.00    -0.040 A 
HETATM   23  C   UNL     1      30.418  43.086  54.724  1.00  0.00     0.021 A 
HETATM   24  C   UNL     1      30.502  43.903  55.866  1.00  0.00    -0.025 A 
HETATM   25  C   UNL     1      29.614  44.993  56.007  1.00  0.00    -0.026 A 
HETATM   26  C   UNL     1      31.447  43.656  56.876  1.00  0.00     0.012 A 
HETATM   27  C   UNL     1      28.664  45.237  55.003  1.00  0.00     0.013 A 
HETATM   28  C   UNL     1      29.694  45.805  57.149  1.00  0.00     0.012 A 
HETATM   29  C   UNL     1      28.589  44.415  53.878  1.00  0.00     0.010 A 
HETATM   30  C   UNL     1      30.637  45.545  58.144  1.00  0.00     0.001 A 
HETATM   31  C   UNL     1      31.512  44.472  58.007  1.00  0.00     0.001 A 
ENDBRANCH  21  22
ENDBRANCH   3  21
TORSDOF 6
ENDMDL
MODEL 2
REMARK VINA RESULT:     -10.0      1.941      2.514
REMARK  6 active torsions:
REMARK  status: ('A' for Active; 'I' for Inactive)
REMARK    1  A    between atoms: O_2  and  C_3 
REMARK    2  A    between atoms: C_5  and  N_6 
REMARK    3  A    between atoms: C_8  and  C_9 
REMARK    4  A    between atoms: C_9  and  N_10 
REMARK       I    between atoms: N_10  and  C_11 
REMARK       I    between atoms: C_11  and  N_12 
REMARK    5  A    between atoms: N_12  and  C_13 
REMARK    6  A    between atoms: C_13  and  C_14 
ROOT
HETATM    1  N   UNL     1      26.335  41.232  51.325  1.00  0.00    -0.343 N 
HETATM    2  C   UNL     1      27.649  41.608  51.367  1.00  0.00     0.316 C 
HETATM    3  N   UNL     1      28.121  41.615  52.651  1.00  0.00    -0.339 N 
HETATM    4  O   UNL     1      28.326  41.860  50.380  1.00  0.00    -0.248 OA
HETATM    5  H   UNL     1      25.965  40.788  52.152  1.00  0.00     0.164 HD
HETATM    6  H   UNL     1      27.448  41.826  53.371  1.00  0.00     0.164 HD
ENDROOT
BRANCH   1   7
HETATM    7  C   UNL     1      25.653  40.972  50.069  1.00  0.00     0.130 C 
BRANCH   7   8
HETATM    8  C   UNL     1      24.322  41.731  49.932  1.00  0.00     0.023 C 
HETATM    9  C   UNL     1      24.186  42.869  50.948  1.00  0.00     0.129 C 
HETATM   10  N   UNL     1      24.849  44.003  50.305  1.00  0.00    -0.380 N 
HETATM   11  C   UNL     1      24.998  43.785  48.868  1.00  0.00     0.123 C 
HETATM   12  C   UNL     1      24.238  42.484  48.604  1.00  0.00     0.028 C 
BRANCH  10  13
HETATM   13  C   UNL     1      25.307  45.115  50.976  1.00  0.00     0.032 A 
HETATM   14  C   UNL     1      25.227  45.219  52.379  1.00  0.00     0.066 A 
HETATM   15  C   UNL     1      25.669  46.357  53.069  1.00  0.00     0.070 A 
HETATM   16  C   UNL     1      26.197  47.428  52.354  1.00  0.00     0.037 A 
HETATM   17  C   UNL     1      26.305  47.355  50.972  1.00  0.00     0.005 A 
HETATM   18  C   UNL     1      25.870  46.208  50.299  1.00  0.00     0.029 A 
BRANCH  15  19
HETATM   19  O   UNL     1      25.626  46.543  54.424  1.00  0.00    -0.356 OA
HETATM   20  C   UNL     1      26.162  47.762  54.922  1.00  0.00     0.210 C 
ENDBRANCH  15  19
ENDBRANCH  10  13
ENDBRANCH   7   8
ENDBRANCH   1   7
BRANCH   3  21
HETATM   21  C   UNL     1      29.491  41.991  52.918  1.00  0.00     0.162 C 
BRANCH  21  22
HETATM   22  C   UNL     1      29.561  43.055  53.982  1.00  0.00    -0.040 A 
HETATM   23  C   UNL     1      30.452  42.939  55.059  1.00  0.00     0.021 A 
HETATM   24  C   UNL     1      30.500  43.913  56.072  1.00  0.00    -0.025 A 
HETATM   25  C   UNL     1      29.638  45.031  56.001  1.00  0.00    -0.026 A 
HETATM   26  C   UNL     1      31.383  43.799  57.158  1.00  0.00     0.012 A 
HETATM   27  C   UNL     1      28.750  45.144  54.921  1.00  0.00     0.013 A 
HETATM   28  C   UNL     1      29.683  46.001  57.015  1.00  0.00     0.012 A 
HETATM   29  C   UNL     1      28.709  44.166  53.926  1.00  0.00     0.010 A 
HETATM   30  C   UNL     1      30.565  45.871  58.088  1.00  0.00     0.001 A 
HETATM   31  C   UNL     1      31.414  44.771  58.160  1.00  0.00     0.001 A 
ENDBRANCH  21  22
ENDBRANCH   3  21
TORSDOF 6
ENDMDL
MODEL 3
REMARK VINA RESULT:      -9.9      3.016     10.047
REMARK  6 active torsions:
REMARK  status: ('A' for Active; 'I' for Inactive)
REMARK    1  A    between atoms: O_2  and  C_3 
REMARK    2  A    between atoms: C_5  and  N_6 
REMARK    3  A    between atoms: C_8  and  C_9 
REMARK    4  A    between atoms: C_9  and  N_10 
REMARK       I    between atoms: N_10  and  C_11 
REMARK       I    between atoms: C_11  and  N_12 
REMARK    5  A    between atoms: N_12  and  C_13 
REMARK    6  A    between atoms: C_13  and  C_14 
ROOT
HETATM    1  N   UNL     1      24.923  46.899  51.523  1.00  0.00    -0.343 N 
HETATM    2  C   UNL     1      24.670  47.464  50.303  1.00  0.00     0.316 C 
HETATM    3  N   UNL     1      23.529  46.953  49.748  1.00  0.00    -0.339 N 
HETATM    4  O   UNL     1      25.350  48.346  49.797  1.00  0.00    -0.248 OA
HETATM    5  H   UNL     1      24.161  46.398  51.956  1.00  0.00     0.164 HD
HETATM    6  H   UNL     1      23.307  45.999  49.988  1.00  0.00     0.164 HD
ENDROOT
BRANCH   1   7
HETATM    7  C   UNL     1      25.972  47.398  52.395  1.00  0.00     0.130 C 
BRANCH   7   8
HETATM    8  C   UNL     1      25.680  47.173  53.888  1.00  0.00     0.023 C 
HETATM    9  C   UNL     1      26.156  45.802  54.380  1.00  0.00     0.129 C 
HETATM   10  N   UNL     1      27.560  46.016  54.730  1.00  0.00    -0.380 N 
HETATM   11  C   UNL     1      27.855  47.438  54.891  1.00  0.00     0.123 C 
HETATM   12  C   UNL     1      26.492  48.122  54.770  1.00  0.00     0.028 C 
BRANCH  10  13
HETATM   13  C   UNL     1      28.490  45.008  54.854  1.00  0.00     0.032 A 
HETATM   14  C   UNL     1      28.312  43.756  54.235  1.00  0.00     0.066 A 
HETATM   15  C   UNL     1      29.242  42.716  54.374  1.00  0.00     0.070 A 
HETATM   16  C   UNL     1      30.377  42.913  55.157  1.00  0.00     0.037 A 
HETATM   17  C   UNL     1      30.591  44.139  55.771  1.00  0.00     0.005 A 
HETATM   18  C   UNL     1      29.660  45.171  55.612  1.00  0.00     0.029 A 
BRANCH  15  19
HETATM   19  O   UNL     1      29.148  41.471  53.813  1.00  0.00    -0.356 OA
HETATM   20  C   UNL     1      28.872  41.415  52.420  1.00  0.00     0.210 C 
ENDBRANCH  15  19
ENDBRANCH  10  13
ENDBRANCH   7   8
ENDBRANCH   1   7
BRANCH   3  21
HETATM   21  C   UNL     1      23.085  47.412  48.452  1.00  0.00     0.162 C 
BRANCH  21  22
HETATM   22  C   UNL     1      22.224  48.641  48.579  1.00  0.00    -0.040 A 
HETATM   23  C   UNL     1      20.963  48.576  49.190  1.00  0.00     0.021 A 
HETATM   24  C   UNL     1      20.141  49.714  49.284  1.00  0.00    -0.025 A 
HETATM   25  C   UNL     1      20.595  50.944  48.758  1.00  0.00    -0.026 A 
HETATM   26  C   UNL     1      18.873  49.654  49.885  1.00  0.00     0.012 A 
HETATM   27  C   UNL     1      21.858  51.005  48.150  1.00  0.00     0.013 A 
HETATM   28  C   UNL     1      19.773  52.078  48.848  1.00  0.00     0.012 A 
HETATM   29  C   UNL     1      22.660  49.866  48.058  1.00  0.00     0.010 A 
HETATM   30  C   UNL     1      18.515  52.002  49.447  1.00  0.00     0.001 A 
HETATM   31  C   UNL     1      18.066  50.791  49.965  1.00  0.00     0.001 A 
ENDBRANCH  21  22
ENDBRANCH   3  21
TORSDOF 6
ENDMDL
MODEL 4
REMARK VINA RESULT:      -9.8      3.354     10.584
REMARK  6 active torsions:
REMARK  status: ('A' for Active; 'I' for Inactive)
REMARK    1  A    between atoms: O_2  and  C_3 
REMARK    2  A    between atoms: C_5  and  N_6 
REMARK    3  A    between atoms: C_8  and  C_9 
REMARK    4  A    between atoms: C_9  and  N_10 
REMARK       I    between atoms: N_10  and  C_11 
REMARK       I    between atoms: C_11  and  N_12 
REMARK    5  A    between atoms: N_12  and  C_13 
REMARK    6  A    between atoms: C_13  and  C_14 
ROOT
HETATM    1  N   UNL     1      24.752  46.773  50.645  1.00  0.00    -0.343 N 
HETATM    2  C   UNL     1      24.762  47.878  49.839  1.00  0.00     0.316 C 
HETATM    3  N   UNL     1      23.558  48.044  49.212  1.00  0.00    -0.339 N 
HETATM    4  O   UNL     1      25.710  48.644  49.730  1.00  0.00    -0.248 OA
HETATM    5  H   UNL     1      23.848  46.385  50.868  1.00  0.00     0.164 HD
HETATM    6  H   UNL     1      23.040  47.202  49.013  1.00  0.00     0.164 HD
ENDROOT
BRANCH   1   7
HETATM    7  C   UNL     1      25.845  46.480  51.555  1.00  0.00     0.130 C 
BRANCH   7   8
HETATM    8  C   UNL     1      25.390  46.294  53.012  1.00  0.00     0.023 C 
HETATM    9  C   UNL     1      26.067  45.100  53.693  1.00  0.00     0.129 C 
HETATM   10  N   UNL     1      27.325  45.646  54.201  1.00  0.00    -0.380 N 
HETATM   11  C   UNL     1      27.285  47.105  54.260  1.00  0.00     0.123 C 
HETATM   12  C   UNL     1      25.841  47.457  53.897  1.00  0.00     0.028 C 
BRANCH  10  13
HETATM   13  C   UNL     1      28.419  44.882  54.542  1.00  0.00     0.032 A 
HETATM   14  C   UNL     1      29.230  45.201  55.649  1.00  0.00     0.066 A 
HETATM   15  C   UNL     1      30.359  44.443  55.991  1.00  0.00     0.070 A 
HETATM   16  C   UNL     1      30.706  43.344  55.210  1.00  0.00     0.037 A 
HETATM   17  C   UNL     1      29.922  42.991  54.120  1.00  0.00     0.005 A 
HETATM   18  C   UNL     1      28.792  43.751  53.799  1.00  0.00     0.029 A 
BRANCH  15  19
HETATM   19  O   UNL     1      31.200  44.682  57.043  1.00  0.00    -0.356 OA
HETATM   20  C   UNL     1      30.630  45.288  58.196  1.00  0.00     0.210 C 
ENDBRANCH  15  19
ENDBRANCH  10  13
ENDBRANCH   7   8
ENDBRANCH   1   7
BRANCH   3  21
HETATM   21  C   UNL     1      23.358  49.153  48.306  1.00  0.00     0.162 C 
BRANCH  21  22
HETATM   22  C   UNL     1      22.105  49.913  48.651  1.00  0.00    -0.040 A 
HETATM   23  C   UNL     1      21.097  50.112  47.695  1.00  0.00     0.021 A 
HETATM   24  C   UNL     1      19.939  50.848  48.001  1.00  0.00    -0.025 A 
HETATM   25  C   UNL     1      19.786  51.395  49.296  1.00  0.00    -0.026 A 
HETATM   26  C   UNL     1      18.930  51.058  47.047  1.00  0.00     0.012 A 
HETATM   27  C   UNL     1      20.795  51.192  50.249  1.00  0.00     0.013 A 
HETATM   28  C   UNL     1      18.632  52.133  49.600  1.00  0.00     0.012 A 
HETATM   29  C   UNL     1      21.942  50.465  49.929  1.00  0.00     0.010 A 
HETATM   30  C   UNL     1      17.640  52.335  48.639  1.00  0.00     0.001 A 
HETATM   31  C   UNL     1      17.789  51.798  47.364  1.00  0.00     0.001 A 
ENDBRANCH  21  22
ENDBRANCH   3  21
TORSDOF 6
ENDMDL
MODEL 5
REMARK VINA RESULT:      -9.6      3.166      4.592
REMARK  6 active torsions:
REMARK  status: ('A' for Active; 'I' for Inactive)
REMARK    1  A    between atoms: O_2  and  C_3 
REMARK    2  A    between atoms: C_5  and  N_6 
REMARK    3  A    between atoms: C_8  and  C_9 
REMARK    4  A    between atoms: C_9  and  N_10 
REMARK       I    between atoms: N_10  and  C_11 
REMARK       I    between atoms: C_11  and  N_12 
REMARK    5  A    between atoms: N_12  and  C_13 
REMARK    6  A    between atoms: C_13  and  C_14 
ROOT
HETATM    1  N   UNL     1      25.646  46.710  50.537  1.00  0.00    -0.343 N 
HETATM    2  C   UNL     1      25.676  45.656  51.408  1.00  0.00     0.316 C 
HETATM    3  N   UNL     1      26.930  45.115  51.488  1.00  0.00    -0.339 N 
HETATM    4  O   UNL     1      24.717  45.276  52.064  1.00  0.00    -0.248 OA
HETATM    5  H   UNL     1      26.538  47.101  50.271  1.00  0.00     0.164 HD
HETATM    6  H   UNL     1      27.496  45.180  50.656  1.00  0.00     0.164 HD
ENDROOT
BRANCH   1   7
HETATM    7  C   UNL     1      24.479  47.565  50.410  1.00  0.00     0.130 C 
BRANCH   7   8
HETATM    8  C   UNL     1      24.127  47.901  48.952  1.00  0.00     0.023 C 
HETATM    9  C   UNL     1      22.620  47.843  48.681  1.00  0.00     0.129 C 
HETATM   10  N   UNL     1      22.139  49.172  49.058  1.00  0.00    -0.380 N 
HETATM   11  C   UNL     1      23.237  50.134  49.130  1.00  0.00     0.123 C 
HETATM   12  C   UNL     1      24.451  49.358  48.616  1.00  0.00     0.028 C 
BRANCH  10  13
HETATM   13  C   UNL     1      20.825  49.467  49.346  1.00  0.00     0.032 A 
HETATM   14  C   UNL     1      20.384  50.793  49.518  1.00  0.00     0.066 A 
HETATM   15  C   UNL     1      19.053  51.102  49.834  1.00  0.00     0.070 A 
HETATM   16  C   UNL     1      18.132  50.071  49.996  1.00  0.00     0.037 A 
HETATM   17  C   UNL     1      18.528  48.752  49.820  1.00  0.00     0.005 A 
HETATM   18  C   UNL     1      19.857  48.461  49.493  1.00  0.00     0.029 A 
BRANCH  15  19
HETATM   19  O   UNL     1      18.541  52.357  50.022  1.00  0.00    -0.356 OA
HETATM   20  C   UNL     1      17.157  52.533  49.752  1.00  0.00     0.210 C 
ENDBRANCH  15  19
ENDBRANCH  10  13
ENDBRANCH   7   8
ENDBRANCH   1   7
BRANCH   3  21
HETATM   21  C   UNL     1      27.178  43.983  52.351  1.00  0.00     0.162 C 
BRANCH  21  22
HETATM   22  C   UNL     1      27.971  44.391  53.565  1.00  0.00    -0.040 A 
HETATM   23  C   UNL     1      29.024  43.595  54.038  1.00  0.00     0.021 A 
HETATM   24  C   UNL     1      29.747  43.955  55.189  1.00  0.00    -0.025 A 
HETATM   25  C   UNL     1      29.409  45.141  55.880  1.00  0.00    -0.026 A 
HETATM   26  C   UNL     1      30.797  43.158  55.674  1.00  0.00     0.012 A 
HETATM   27  C   UNL     1      28.355  45.935  55.401  1.00  0.00     0.013 A 
HETATM   28  C   UNL     1      30.127  45.497  57.031  1.00  0.00     0.012 A 
HETATM   29  C   UNL     1      27.643  45.562  54.261  1.00  0.00     0.010 A 
HETATM   30  C   UNL     1      31.167  44.694  57.501  1.00  0.00     0.001 A 
HETATM   31  C   UNL     1      31.501  43.525  56.823  1.00  0.00     0.001 A 
ENDBRANCH  21  22
ENDBRANCH   3  21
TORSDOF 6
ENDMDL
MODEL 6
REMARK VINA RESULT:      -9.5      1.283      2.380
REMARK  6 active torsions:
REMARK  status: ('A' for Active; 'I' for Inactive)
REMARK    1  A    between atoms: O_2  and  C_3 
REMARK    2  A    between atoms: C_5  and  N_6 
REMARK    3  A    between atoms: C_8  and  C_9 
REMARK    4  A    between atoms: C_9  and  N_10 
REMARK       I    between atoms: N_10  and  C_11 
REMARK       I    between atoms: C_11  and  N_12 
REMARK    5  A    between atoms: N_12  and  C_13 
REMARK    6  A    between atoms: C_13  and  C_14 
ROOT
HETATM    1  N   UNL     1      25.136  42.754  51.427  1.00  0.00    -0.343 N 
HETATM    2  C   UNL     1      26.054  43.767  51.495  1.00  0.00     0.316 C 
HETATM    3  N   UNL     1      26.320  44.108  52.793  1.00  0.00    -0.339 N 
HETATM    4  O   UNL     1      26.601  44.268  50.523  1.00  0.00    -0.248 OA
HETATM    5  H   UNL     1      24.967  42.241  52.279  1.00  0.00     0.164 HD
HETATM    6  H   UNL     1      25.565  43.983  53.449  1.00  0.00     0.164 HD
ENDROOT
BRANCH   1   7
HETATM    7  C   UNL     1      24.820  42.091  50.175  1.00  0.00     0.130 C 
BRANCH   7   8
HETATM    8  C   UNL     1      23.342  42.223  49.773  1.00  0.00     0.023 C 
HETATM    9  C   UNL     1      22.766  43.607  50.091  1.00  0.00     0.129 C 
HETATM   10  N   UNL     1      23.112  44.414  48.921  1.00  0.00    -0.380 N 
HETATM   11  C   UNL     1      23.460  43.570  47.779  1.00  0.00     0.123 C 
HETATM   12  C   UNL     1      23.161  42.148  48.257  1.00  0.00     0.028 C 
BRANCH  10  13
HETATM   13  C   UNL     1      23.142  45.790  48.911  1.00  0.00     0.032 A 
HETATM   14  C   UNL     1      24.234  46.512  49.431  1.00  0.00     0.066 A 
HETATM   15  C   UNL     1      24.264  47.914  49.446  1.00  0.00     0.070 A 
HETATM   16  C   UNL     1      23.178  48.626  48.943  1.00  0.00     0.037 A 
HETATM   17  C   UNL     1      22.091  47.948  48.409  1.00  0.00     0.005 A 
HETATM   18  C   UNL     1      22.082  46.549  48.390  1.00  0.00     0.029 A 
BRANCH  15  19
HETATM   19  O   UNL     1      25.278  48.692  49.933  1.00  0.00    -0.356 OA
HETATM   20  C   UNL     1      26.578  48.117  49.949  1.00  0.00     0.210 C 
ENDBRANCH  15  19
ENDBRANCH  10  13
ENDBRANCH   7   8
ENDBRANCH   1   7
BRANCH   3  21
HETATM   21  C   UNL     1      27.262  45.164  53.087  1.00  0.00     0.162 C 
BRANCH  21  22
HETATM   22  C   UNL     1      28.330  44.688  54.036  1.00  0.00    -0.040 A 
HETATM   23  C   UNL     1      28.599  45.382  55.224  1.00  0.00     0.021 A 
HETATM   24  C   UNL     1      29.616  44.960  56.099  1.00  0.00    -0.025 A 
HETATM   25  C   UNL     1      30.378  43.815  55.777  1.00  0.00    -0.026 A 
HETATM   26  C   UNL     1      29.897  45.656  57.286  1.00  0.00     0.012 A 
HETATM   27  C   UNL     1      30.104  43.122  54.588  1.00  0.00     0.013 A 
HETATM   28  C   UNL     1      31.396  43.396  56.648  1.00  0.00     0.012 A 
HETATM   29  C   UNL     1      29.095  43.556  53.727  1.00  0.00     0.010 A 
HETATM   30  C   UNL     1      31.664  44.100  57.823  1.00  0.00     0.001 A 
HETATM   31  C   UNL     1      30.915  45.229  58.141  1.00  0.00     0.001 A 
ENDBRANCH  21  22
ENDBRANCH   3  21
TORSDOF 6
ENDMDL
MODEL 7
REMARK VINA RESULT:      -9.5      1.555      2.453
REMARK  6 active torsions:
REMARK  status: ('A' for Active; 'I' for Inactive)
REMARK    1  A    between atoms: O_2  and  C_3 
REMARK    2  A    between atoms: C_5  and  N_6 
REMARK    3  A    between atoms: C_8  and  C_9 
REMARK    4  A    between atoms: C_9  and  N_10 
REMARK       I    between atoms: N_10  and  C_11 
REMARK       I    between atoms: C_11  and  N_12 
REMARK    5  A    between atoms: N_12  and  C_13 
REMARK    6  A    between atoms: C_13  and  C_14 
ROOT
HETATM    1  N   UNL     1      25.495  41.011  50.587  1.00  0.00    -0.343 N 
HETATM    2  C   UNL     1      26.803  41.342  50.815  1.00  0.00     0.316 C 
HETATM    3  N   UNL     1      27.187  40.996  52.082  1.00  0.00    -0.339 N 
HETATM    4  O   UNL     1      27.545  41.838  49.980  1.00  0.00    -0.248 OA
HETATM    5  H   UNL     1      25.072  40.367  51.239  1.00  0.00     0.164 HD
HETATM    6  H   UNL     1      26.465  41.017  52.786  1.00  0.00     0.164 HD
ENDROOT
BRANCH   1   7
HETATM    7  C   UNL     1      24.901  41.109  49.265  1.00  0.00     0.130 C 
BRANCH   7   8
HETATM    8  C   UNL     1      23.551  41.845  49.259  1.00  0.00     0.023 C 
HETATM    9  C   UNL     1      23.596  43.164  50.037  1.00  0.00     0.129 C 
HETATM   10  N   UNL     1      24.083  44.137  49.059  1.00  0.00    -0.380 N 
HETATM   11  C   UNL     1      23.940  43.636  47.694  1.00  0.00     0.123 C 
HETATM   12  C   UNL     1      23.176  42.320  47.855  1.00  0.00     0.028 C 
BRANCH  10  13
HETATM   13  C   UNL     1      24.639  45.353  49.388  1.00  0.00     0.032 A 
HETATM   14  C   UNL     1      23.870  46.532  49.437  1.00  0.00     0.066 A 
HETATM   15  C   UNL     1      24.432  47.778  49.749  1.00  0.00     0.070 A 
HETATM   16  C   UNL     1      25.797  47.867  50.009  1.00  0.00     0.037 A 
HETATM   17  C   UNL     1      26.584  46.723  49.984  1.00  0.00     0.005 A 
HETATM   18  C   UNL     1      26.006  45.485  49.684  1.00  0.00     0.029 A 
BRANCH  15  19
HETATM   19  O   UNL     1      23.761  48.969  49.815  1.00  0.00    -0.356 OA
HETATM   20  C   UNL     1      23.214  49.466  48.601  1.00  0.00     0.210 C 
ENDBRANCH  15  19
ENDBRANCH  10  13
ENDBRANCH   7   8
ENDBRANCH   1   7
BRANCH   3  21
HETATM   21  C   UNL     1      28.534  41.265  52.531  1.00  0.00     0.162 C 
BRANCH  21  22
HETATM   22  C   UNL     1      28.597  42.552  53.311  1.00  0.00    -0.040 A 
HETATM   23  C   UNL     1      27.669  43.579  53.082  1.00  0.00     0.021 A 
HETATM   24  C   UNL     1      27.742  44.795  53.785  1.00  0.00    -0.025 A 
HETATM   25  C   UNL     1      28.765  44.985  54.741  1.00  0.00    -0.026 A 
HETATM   26  C   UNL     1      26.822  45.831  53.554  1.00  0.00     0.012 A 
HETATM   27  C   UNL     1      29.690  43.954  54.968  1.00  0.00     0.013 A 
HETATM   28  C   UNL     1      28.841  46.200  55.439  1.00  0.00     0.012 A 
HETATM   29  C   UNL     1      29.609  42.755  54.258  1.00  0.00     0.010 A 
HETATM   30  C   UNL     1      27.920  47.220  55.196  1.00  0.00     0.001 A 
HETATM   31  C   UNL     1      26.912  47.036  54.255  1.00  0.00     0.001 A 
ENDBRANCH  21  22
ENDBRANCH   3  21
TORSDOF 6
ENDMDL
MODEL 8
REMARK VINA RESULT:      -9.4      3.100     10.337
REMARK  6 active torsions:
REMARK  status: ('A' for Active; 'I' for Inactive)
REMARK    1  A    between atoms: O_2  and  C_3 
REMARK    2  A    between atoms: C_5  and  N_6 
REMARK    3  A    between atoms: C_8  and  C_9 
REMARK    4  A    between atoms: C_9  and  N_10 
REMARK       I    between atoms: N_10  and  C_11 
REMARK       I    between atoms: C_11  and  N_12 
REMARK    5  A    between atoms: N_12  and  C_13 
REMARK    6  A    between atoms: C_13  and  C_14 
ROOT
HETATM    1  N   UNL     1      23.804  46.113  50.071  1.00  0.00    -0.343 N 
HETATM    2  C   UNL     1      24.093  47.449  50.019  1.00  0.00     0.316 C 
HETATM    3  N   UNL     1      23.077  48.153  49.433  1.00  0.00    -0.339 N 
HETATM    4  O   UNL     1      25.108  47.953  50.480  1.00  0.00    -0.248 OA
HETATM    5  H   UNL     1      22.840  45.853  49.918  1.00  0.00     0.164 HD
HETATM    6  H   UNL     1      22.542  47.662  48.734  1.00  0.00     0.164 HD
ENDROOT
BRANCH   1   7
HETATM    7  C   UNL     1      24.637  45.178  50.806  1.00  0.00     0.130 C 
BRANCH   7   8
HETATM    8  C   UNL     1      25.761  44.566  49.953  1.00  0.00     0.023 C 
HETATM    9  C   UNL     1      27.149  44.784  50.564  1.00  0.00     0.129 C 
HETATM   10  N   UNL     1      27.307  43.668  51.497  1.00  0.00    -0.380 N 
HETATM   11  C   UNL     1      26.356  42.597  51.208  1.00  0.00     0.123 C 
HETATM   12  C   UNL     1      25.671  43.040  49.914  1.00  0.00     0.028 C 
BRANCH  10  13
HETATM   13  C   UNL     1      28.211  43.649  52.536  1.00  0.00     0.032 A 
HETATM   14  C   UNL     1      28.069  44.491  53.656  1.00  0.00     0.066 A 
HETATM   15  C   UNL     1      28.996  44.495  54.708  1.00  0.00     0.070 A 
HETATM   16  C   UNL     1      30.103  43.652  54.648  1.00  0.00     0.037 A 
HETATM   17  C   UNL     1      30.267  42.799  53.565  1.00  0.00     0.005 A 
HETATM   18  C   UNL     1      29.327  42.798  52.530  1.00  0.00     0.029 A 
BRANCH  15  19
HETATM   19  O   UNL     1      28.939  45.279  55.828  1.00  0.00    -0.356 OA
HETATM   20  C   UNL     1      30.158  45.491  56.528  1.00  0.00     0.210 C 
ENDBRANCH  15  19
ENDBRANCH  10  13
ENDBRANCH   7   8
ENDBRANCH   1   7
BRANCH   3  21
HETATM   21  C   UNL     1      23.186  49.585  49.272  1.00  0.00     0.162 C 
BRANCH  21  22
HETATM   22  C   UNL     1      21.833  50.209  49.052  1.00  0.00    -0.040 A 
HETATM   23  C   UNL     1      21.177  50.089  47.819  1.00  0.00     0.021 A 
HETATM   24  C   UNL     1      19.928  50.695  47.597  1.00  0.00    -0.025 A 
HETATM   25  C   UNL     1      19.321  51.436  48.636  1.00  0.00    -0.026 A 
HETATM   26  C   UNL     1      19.269  50.587  46.361  1.00  0.00     0.012 A 
HETATM   27  C   UNL     1      19.980  51.551  49.870  1.00  0.00     0.013 A 
HETATM   28  C   UNL     1      18.076  52.045  48.413  1.00  0.00     0.012 A 
HETATM   29  C   UNL     1      21.222  50.949  50.073  1.00  0.00     0.010 A 
HETATM   30  C   UNL     1      17.436  51.929  47.179  1.00  0.00     0.001 A 
HETATM   31  C   UNL     1      18.033  51.201  46.154  1.00  0.00     0.001 A 
ENDBRANCH  21  22
ENDBRANCH   3  21
TORSDOF 6
ENDMDL
MODEL 9
REMARK VINA RESULT:      -9.3      3.719     10.496
REMARK  6 active torsions:
REMARK  status: ('A' for Active; 'I' for Inactive)
REMARK    1  A    between atoms: O_2  and  C_3 
REMARK    2  A    between atoms: C_5  and  N_6 
REMARK    3  A    between atoms: C_8  and  C_9 
REMARK    4  A    between atoms: C_9  and  N_10 
REMARK       I    between atoms: N_10  and  C_11 
REMARK       I    between atoms: C_11  and  N_12 
REMARK    5  A    between atoms: N_12  and  C_13 
REMARK    6  A    between atoms: C_13  and  C_14 
ROOT
HETATM    1  N   UNL     1      24.148  46.826  50.062  1.00  0.00    -0.343 N 
HETATM    2  C   UNL     1      24.019  48.145  49.723  1.00  0.00     0.316 C 
HETATM    3  N   UNL     1      22.704  48.519  49.677  1.00  0.00    -0.339 N 
HETATM    4  O   UNL     1      24.960  48.903  49.533  1.00  0.00    -0.248 OA
HETATM    5  H   UNL     1      23.334  46.381  50.460  1.00  0.00     0.164 HD
HETATM    6  H   UNL     1      22.047  47.800  49.416  1.00  0.00     0.164 HD
ENDROOT
BRANCH   1   7
HETATM    7  C   UNL     1      25.441  46.233  50.354  1.00  0.00     0.130 C 
BRANCH   7   8
HETATM    8  C   UNL     1      25.465  44.707  50.168  1.00  0.00     0.023 C 
HETATM    9  C   UNL     1      26.831  44.096  50.499  1.00  0.00     0.129 C 
HETATM   10  N   UNL     1      26.782  43.876  51.944  1.00  0.00    -0.380 N 
HETATM   11  C   UNL     1      25.408  43.903  52.439  1.00  0.00     0.123 C 
HETATM   12  C   UNL     1      24.554  44.002  51.173  1.00  0.00     0.028 C 
BRANCH  10  13
HETATM   13  C   UNL     1      27.893  43.705  52.739  1.00  0.00     0.032 A 
HETATM   14  C   UNL     1      28.098  44.473  53.902  1.00  0.00     0.066 A 
HETATM   15  C   UNL     1      29.238  44.322  54.705  1.00  0.00     0.070 A 
HETATM   16  C   UNL     1      30.210  43.393  54.345  1.00  0.00     0.037 A 
HETATM   17  C   UNL     1      30.035  42.608  53.213  1.00  0.00     0.005 A 
HETATM   18  C   UNL     1      28.887  42.762  52.428  1.00  0.00     0.029 A 
BRANCH  15  19
HETATM   19  O   UNL     1      29.518  45.025  55.845  1.00  0.00    -0.356 OA
HETATM   20  C   UNL     1      28.555  45.986  56.259  1.00  0.00     0.210 C 
ENDBRANCH  15  19
ENDBRANCH  10  13
ENDBRANCH   7   8
ENDBRANCH   1   7
BRANCH   3  21
HETATM   21  C   UNL     1      22.347  49.876  49.330  1.00  0.00     0.162 C 
BRANCH  21  22
HETATM   22  C   UNL     1      20.864  50.004  49.107  1.00  0.00    -0.040 A 
HETATM   23  C   UNL     1      20.168  51.148  49.527  1.00  0.00     0.021 A 
HETATM   24  C   UNL     1      18.778  51.260  49.350  1.00  0.00    -0.025 A 
HETATM   25  C   UNL     1      18.069  50.204  48.734  1.00  0.00    -0.026 A 
HETATM   26  C   UNL     1      18.074  52.398  49.777  1.00  0.00     0.012 A 
HETATM   27  C   UNL     1      18.768  49.063  48.313  1.00  0.00     0.013 A 
HETATM   28  C   UNL     1      16.680  50.315  48.561  1.00  0.00     0.012 A 
HETATM   29  C   UNL     1      20.148  48.963  48.501  1.00  0.00     0.010 A 
HETATM   30  C   UNL     1      15.995  51.451  48.994  1.00  0.00     0.001 A 
HETATM   31  C   UNL     1      16.692  52.491  49.601  1.00  0.00     0.001 A 
ENDBRANCH  21  22
ENDBRANCH   3  21
TORSDOF 6
ENDMDL
MODEL 10
REMARK VINA RESULT:      -9.1      2.802      9.717
REMARK  6 active torsions:
REMARK  status: ('A' for Active; 'I' for Inactive)
REMARK    1  A    between atoms: O_2  and  C_3 
REMARK    2  A    between atoms: C_5  and  N_6 
REMARK    3  A    between atoms: C_8  and  C_9 
REMARK    4  A    between atoms: C_9  and  N_10 
REMARK       I    between atoms: N_10  and  C_11 
REMARK       I    between atoms: C_11  and  N_12 
REMARK    5  A    between atoms: N_12  and  C_13 
REMARK    6  A    between atoms: C_13  and  C_14 
ROOT
HETATM    1  N   UNL     1      24.982  46.822  51.888  1.00  0.00    -0.343 N 
HETATM    2  C   UNL     1      24.893  47.365  50.636  1.00  0.00     0.316 C 
HETATM    3  N   UNL     1      23.722  47.011  50.024  1.00  0.00    -0.339 N 
HETATM    4  O   UNL     1      25.731  48.109  50.146  1.00  0.00    -0.248 OA
HETATM    5  H   UNL     1      24.127  46.463  52.286  1.00  0.00     0.164 HD
HETATM    6  H   UNL     1      23.340  46.114  50.281  1.00  0.00     0.164 HD
ENDROOT
BRANCH   1   7
HETATM    7  C   UNL     1      26.042  47.192  52.809  1.00  0.00     0.130 C 
BRANCH   7   8
HETATM    8  C   UNL     1      25.989  46.420  54.138  1.00  0.00     0.023 C 
HETATM    9  C   UNL     1      25.918  44.902  53.935  1.00  0.00     0.129 C 
HETATM   10  N   UNL     1      27.316  44.495  53.803  1.00  0.00    -0.380 N 
HETATM   11  C   UNL     1      28.220  45.524  54.311  1.00  0.00     0.123 C 
HETATM   12  C   UNL     1      27.289  46.570  54.929  1.00  0.00     0.028 C 
BRANCH  10  13
HETATM   13  C   UNL     1      27.726  43.308  53.236  1.00  0.00     0.032 A 
HETATM   14  C   UNL     1      27.497  43.018  51.877  1.00  0.00     0.066 A 
HETATM   15  C   UNL     1      27.891  41.804  51.296  1.00  0.00     0.070 A 
HETATM   16  C   UNL     1      28.519  40.842  52.082  1.00  0.00     0.037 A 
HETATM   17  C   UNL     1      28.773  41.099  53.423  1.00  0.00     0.005 A 
HETATM   18  C   UNL     1      28.385  42.320  53.984  1.00  0.00     0.029 A 
BRANCH  15  19
HETATM   19  O   UNL     1      27.706  41.439  49.990  1.00  0.00    -0.356 OA
HETATM   20  C   UNL     1      27.867  40.062  49.679  1.00  0.00     0.210 C 
ENDBRANCH  15  19
ENDBRANCH  10  13
ENDBRANCH   7   8
ENDBRANCH   1   7
BRANCH   3  21
HETATM   21  C   UNL     1      23.432  47.476  48.687  1.00  0.00     0.162 C 
BRANCH  21  22
HETATM   22  C   UNL     1      22.529  48.680  48.717  1.00  0.00    -0.040 A 
HETATM   23  C   UNL     1      21.239  48.599  49.263  1.00  0.00     0.021 A 
HETATM   24  C   UNL     1      20.379  49.712  49.265  1.00  0.00    -0.025 A 
HETATM   25  C   UNL     1      20.823  50.934  48.711  1.00  0.00    -0.026 A 
HETATM   26  C   UNL     1      19.084  49.636  49.802  1.00  0.00     0.012 A 
HETATM   27  C   UNL     1      22.114  51.011  48.168  1.00  0.00     0.013 A 
HETATM   28  C   UNL     1      19.963  52.043  48.710  1.00  0.00     0.012 A 
HETATM   29  C   UNL     1      22.955  49.897  48.167  1.00  0.00     0.010 A 
HETATM   30  C   UNL     1      18.678  51.950  49.245  1.00  0.00     0.001 A 
HETATM   31  C   UNL     1      18.239  50.747  49.790  1.00  0.00     0.001 A 
ENDBRANCH  21  22
ENDBRANCH   3  21
TORSDOF 6
ENDMDL
