MODEL 1
REMARK VINA RESULT:     -10.6      0.000      0.000
REMARK  3 active torsions:
REMARK  status: ('A' for Active; 'I' for Inactive)
REMARK    1  A    between atoms: N_12  and  C_13 
REMARK    2  A    between atoms: C_13  and  C_14 
REMARK       I    between atoms: C_14  and  N_15 
REMARK    3  A    between atoms: N_15  and  C_16 
ROOT
HETATM    1  C   UNL     1      32.610  43.016  57.296  1.00  0.00     0.048 C 
HETATM    2  C   UNL     1      31.417  43.898  57.064  1.00  0.00    -0.061 A 
HETATM    3  C   UNL     1      30.643  43.759  55.900  1.00  0.00     0.021 A 
HETATM    4  C   UNL     1      29.523  44.592  55.700  1.00  0.00     0.005 A 
HETATM    5  C   UNL     1      29.207  45.544  56.676  1.00  0.00     0.044 A 
HETATM    6  N   UNL     1      28.079  46.217  56.249  1.00  0.00    -0.350 N 
HETATM    7  H   UNL     1      27.611  46.960  56.753  1.00  0.00     0.166 HD
HETATM    8  C   UNL     1      27.680  45.719  55.042  1.00  0.00     0.116 A 
HETATM    9  C   UNL     1      28.547  44.720  54.682  1.00  0.00     0.028 A 
HETATM   10  C   UNL     1      26.555  46.112  54.244  1.00  0.00     0.291 A 
HETATM   11  O   UNL     1      25.770  46.990  54.585  1.00  0.00    -0.264 OA
HETATM   12  N   UNL     1      26.468  45.394  53.035  1.00  0.00    -0.224 N 
HETATM   13  N   UNL     1      27.335  44.343  52.669  1.00  0.00    -0.180 NA
HETATM   14  C   UNL     1      28.329  44.024  53.447  1.00  0.00     0.153 A 
HETATM   15  C   UNL     1      29.963  45.701  57.842  1.00  0.00     0.031 A 
HETATM   16  C   UNL     1      31.070  44.862  58.016  1.00  0.00     0.009 A 
ENDROOT
BRANCH  12  17
HETATM   17  C   UNL     1      25.297  45.581  52.192  1.00  0.00     0.258 C 
BRANCH  17  18
HETATM   18  C   UNL     1      25.095  46.881  51.394  1.00  0.00     0.244 C 
HETATM   19  N   UNL     1      24.905  46.855  50.011  1.00  0.00    -0.320 N 
HETATM   20  C   UNL     1      24.855  45.637  49.208  1.00  0.00     0.159 C 
HETATM   21  O   UNL     1      24.982  47.928  52.050  1.00  0.00    -0.271 OA
BRANCH  19  22
HETATM   22  C   UNL     1      24.478  48.041  49.334  1.00  0.00     0.043 A 
HETATM   23  C   UNL     1      25.401  48.980  48.837  1.00  0.00    -0.035 A 
HETATM   24  C   UNL     1      26.876  48.891  49.115  1.00  0.00     0.050 C 
HETATM   25  C   UNL     1      24.927  50.053  48.063  1.00  0.00     0.009 A 
HETATM   26  C   UNL     1      23.562  50.209  47.809  1.00  0.00     0.007 A 
HETATM   27  C   UNL     1      22.639  49.305  48.335  1.00  0.00    -0.060 A 
HETATM   28  C   UNL     1      21.174  49.439  48.042  1.00  0.00     0.048 C 
HETATM   29  C   UNL     1      23.105  48.225  49.094  1.00  0.00     0.037 A 
ENDBRANCH  19  22
ENDBRANCH  17  18
ENDBRANCH  12  17
TORSDOF 3
ENDMDL
MODEL 2
REMARK VINA RESULT:     -10.3      2.373      4.076
REMARK  3 active torsions:
REMARK  status: ('A' for Active; 'I' for Inactive)
REMARK    1  A    between atoms: N_12  and  C_13 
REMARK    2  A    between atoms: C_13  and  C_14 
REMARK       I    between atoms: C_14  and  N_15 
REMARK    3  A    between atoms: N_15  and  C_16 
ROOT
HETATM    1  C   UNL     1      32.342  43.144  57.376  1.00  0.00     0.048 C 
HETATM    2  C   UNL     1      31.214  44.104  57.133  1.00  0.00    -0.061 A 
HETATM    3  C   UNL     1      30.443  44.017  55.962  1.00  0.00     0.021 A 
HETATM    4  C   UNL     1      29.384  44.923  55.751  1.00  0.00     0.005 A 
HETATM    5  C   UNL     1      29.123  45.894  56.723  1.00  0.00     0.044 A 
HETATM    6  N   UNL     1      28.047  46.642  56.286  1.00  0.00    -0.350 N 
HETATM    7  H   UNL     1      27.625  47.415  56.785  1.00  0.00     0.166 HD
HETATM    8  C   UNL     1      27.627  46.171  55.075  1.00  0.00     0.116 A 
HETATM    9  C   UNL     1      28.429  45.116  54.723  1.00  0.00     0.028 A 
HETATM   10  C   UNL     1      26.539  46.638  54.265  1.00  0.00     0.291 A 
HETATM   11  O   UNL     1      25.811  47.567  54.599  1.00  0.00    -0.264 OA
HETATM   12  N   UNL     1      26.415  45.927  53.056  1.00  0.00    -0.224 N 
HETATM   13  N   UNL     1      27.213  44.819  52.698  1.00  0.00    -0.180 NA
HETATM   14  C   UNL     1      28.176  44.435  53.486  1.00  0.00     0.153 A 
HETATM   15  C   UNL     1      29.876  46.001  57.897  1.00  0.00     0.031 A 
HETATM   16  C   UNL     1      30.923  45.090  58.082  1.00  0.00     0.009 A 
ENDROOT
BRANCH  12  17
HETATM   17  C   UNL     1      25.268  46.192  52.201  1.00  0.00     0.258 C 
BRANCH  17  18
HETATM   18  C   UNL     1      24.695  45.098  51.284  1.00  0.00     0.244 C 
HETATM   19  N   UNL     1      25.230  44.868  50.015  1.00  0.00    -0.320 N 
HETATM   20  C   UNL     1      26.363  45.596  49.454  1.00  0.00     0.159 C 
HETATM   21  O   UNL     1      23.830  44.355  51.774  1.00  0.00    -0.271 OA
BRANCH  19  22
HETATM   22  C   UNL     1      24.847  43.697  49.288  1.00  0.00     0.043 A 
HETATM   23  C   UNL     1      23.841  43.735  48.304  1.00  0.00    -0.035 A 
HETATM   24  C   UNL     1      22.994  44.953  48.058  1.00  0.00     0.050 C 
HETATM   25  C   UNL     1      23.605  42.586  47.531  1.00  0.00     0.009 A 
HETATM   26  C   UNL     1      24.331  41.413  47.744  1.00  0.00     0.007 A 
HETATM   27  C   UNL     1      25.300  41.356  48.747  1.00  0.00    -0.060 A 
HETATM   28  C   UNL     1      26.113  40.115  48.965  1.00  0.00     0.048 C 
HETATM   29  C   UNL     1      25.551  42.501  49.512  1.00  0.00     0.037 A 
ENDBRANCH  19  22
ENDBRANCH  17  18
ENDBRANCH  12  17
TORSDOF 3
ENDMDL
MODEL 3
REMARK VINA RESULT:     -10.2      1.692      2.719
REMARK  3 active torsions:
REMARK  status: ('A' for Active; 'I' for Inactive)
REMARK    1  A    between atoms: N_12  and  C_13 
REMARK    2  A    between atoms: C_13  and  C_14 
REMARK       I    between atoms: C_14  and  N_15 
REMARK    3  A    between atoms: N_15  and  C_16 
ROOT
HETATM    1  C   UNL     1      30.610  45.177  57.515  1.00  0.00     0.048 C 
HETATM    2  C   UNL     1      30.088  44.664  56.205  1.00  0.00    -0.061 A 
HETATM    3  C   UNL     1      28.976  45.267  55.594  1.00  0.00     0.021 A 
HETATM    4  C   UNL     1      28.502  44.776  54.360  1.00  0.00     0.005 A 
HETATM    5  C   UNL     1      29.159  43.691  53.769  1.00  0.00     0.044 A 
HETATM    6  N   UNL     1      28.512  43.412  52.581  1.00  0.00    -0.350 N 
HETATM    7  H   UNL     1      28.768  42.681  51.928  1.00  0.00     0.166 HD
HETATM    8  C   UNL     1      27.475  44.283  52.410  1.00  0.00     0.116 A 
HETATM    9  C   UNL     1      27.446  45.133  53.487  1.00  0.00     0.028 A 
HETATM   10  C   UNL     1      26.550  44.365  51.317  1.00  0.00     0.291 A 
HETATM   11  O   UNL     1      26.597  43.617  50.346  1.00  0.00    -0.264 OA
HETATM   12  N   UNL     1      25.586  45.378  51.494  1.00  0.00    -0.224 N 
HETATM   13  N   UNL     1      25.567  46.277  52.581  1.00  0.00    -0.180 NA
HETATM   14  C   UNL     1      26.446  46.159  53.534  1.00  0.00     0.153 A 
HETATM   15  C   UNL     1      30.268  43.074  54.357  1.00  0.00     0.031 A 
HETATM   16  C   UNL     1      30.718  43.581  55.582  1.00  0.00     0.009 A 
ENDROOT
BRANCH  12  17
HETATM   17  C   UNL     1      24.673  45.674  50.401  1.00  0.00     0.258 C 
BRANCH  17  18
HETATM   18  C   UNL     1      24.246  47.120  50.096  1.00  0.00     0.244 C 
HETATM   19  N   UNL     1      23.356  47.405  49.059  1.00  0.00    -0.320 N 
HETATM   20  C   UNL     1      22.740  46.398  48.202  1.00  0.00     0.159 C 
HETATM   21  O   UNL     1      24.627  47.995  50.890  1.00  0.00    -0.271 OA
BRANCH  19  22
HETATM   22  C   UNL     1      22.789  48.715  48.955  1.00  0.00     0.043 A 
HETATM   23  C   UNL     1      23.519  49.794  48.423  1.00  0.00    -0.035 A 
HETATM   24  C   UNL     1      24.979  49.694  48.079  1.00  0.00     0.050 C 
HETATM   25  C   UNL     1      22.864  51.021  48.220  1.00  0.00     0.009 A 
HETATM   26  C   UNL     1      21.520  51.184  48.561  1.00  0.00     0.007 A 
HETATM   27  C   UNL     1      20.803  50.131  49.128  1.00  0.00    -0.060 A 
HETATM   28  C   UNL     1      19.350  50.279  49.467  1.00  0.00     0.048 C 
HETATM   29  C   UNL     1      21.445  48.901  49.319  1.00  0.00     0.037 A 
ENDBRANCH  19  22
ENDBRANCH  17  18
ENDBRANCH  12  17
TORSDOF 3
ENDMDL
MODEL 4
REMARK VINA RESULT:      -9.8      5.415      7.285
REMARK  3 active torsions:
REMARK  status: ('A' for Active; 'I' for Inactive)
REMARK    1  A    between atoms: N_12  and  C_13 
REMARK    2  A    between atoms: C_13  and  C_14 
REMARK       I    between atoms: C_14  and  N_15 
REMARK    3  A    between atoms: N_15  and  C_16 
ROOT
HETATM    1  C   UNL     1      31.960  43.681  57.444  1.00  0.00     0.048 C 
HETATM    2  C   UNL     1      30.887  44.081  56.474  1.00  0.00    -0.061 A 
HETATM    3  C   UNL     1      30.573  43.261  55.378  1.00  0.00     0.021 A 
HETATM    4  C   UNL     1      29.558  43.650  54.479  1.00  0.00     0.005 A 
HETATM    5  C   UNL     1      28.883  44.854  54.704  1.00  0.00     0.044 A 
HETATM    6  N   UNL     1      27.947  44.999  53.699  1.00  0.00    -0.350 N 
HETATM    7  H   UNL     1      27.301  45.773  53.603  1.00  0.00     0.166 HD
HETATM    8  C   UNL     1      28.014  43.928  52.855  1.00  0.00     0.116 A 
HETATM    9  C   UNL     1      28.994  43.084  53.310  1.00  0.00     0.028 A 
HETATM   10  C   UNL     1      27.222  43.660  51.690  1.00  0.00     0.291 A 
HETATM   11  O   UNL     1      26.331  44.409  51.303  1.00  0.00    -0.264 OA
HETATM   12  N   UNL     1      27.591  42.464  51.043  1.00  0.00    -0.224 N 
HETATM   13  N   UNL     1      28.575  41.572  51.521  1.00  0.00    -0.180 NA
HETATM   14  C   UNL     1      29.249  41.867  52.595  1.00  0.00     0.153 A 
HETATM   15  C   UNL     1      29.178  45.688  55.788  1.00  0.00     0.031 A 
HETATM   16  C   UNL     1      30.190  45.279  56.665  1.00  0.00     0.009 A 
ENDROOT
BRANCH  12  17
HETATM   17  C   UNL     1      26.781  41.989  49.933  1.00  0.00     0.258 C 
BRANCH  17  18
HETATM   18  C   UNL     1      27.379  41.076  48.849  1.00  0.00     0.244 C 
HETATM   19  N   UNL     1      27.181  39.694  48.880  1.00  0.00    -0.320 N 
HETATM   20  C   UNL     1      26.394  38.998  49.892  1.00  0.00     0.159 C 
HETATM   21  O   UNL     1      27.930  41.637  47.888  1.00  0.00    -0.271 OA
BRANCH  19  22
HETATM   22  C   UNL     1      27.533  38.904  47.740  1.00  0.00     0.043 A 
HETATM   23  C   UNL     1      28.690  38.103  47.728  1.00  0.00    -0.035 A 
HETATM   24  C   UNL     1      29.713  38.139  48.830  1.00  0.00     0.050 C 
HETATM   25  C   UNL     1      28.910  37.246  46.636  1.00  0.00     0.009 A 
HETATM   26  C   UNL     1      28.016  37.202  45.564  1.00  0.00     0.007 A 
HETATM   27  C   UNL     1      26.889  38.025  45.551  1.00  0.00    -0.060 A 
HETATM   28  C   UNL     1      25.901  37.965  44.425  1.00  0.00     0.048 C 
HETATM   29  C   UNL     1      26.656  38.871  46.643  1.00  0.00     0.037 A 
ENDBRANCH  19  22
ENDBRANCH  17  18
ENDBRANCH  12  17
TORSDOF 3
ENDMDL
MODEL 5
REMARK VINA RESULT:      -9.8      2.666      4.901
REMARK  3 active torsions:
REMARK  status: ('A' for Active; 'I' for Inactive)
REMARK    1  A    between atoms: N_12  and  C_13 
REMARK    2  A    between atoms: C_13  and  C_14 
REMARK       I    between atoms: C_14  and  N_15 
REMARK    3  A    between atoms: N_15  and  C_16 
ROOT
HETATM    1  C   UNL     1      28.877  45.851  55.776  1.00  0.00     0.048 C 
HETATM    2  C   UNL     1      28.005  45.284  54.695  1.00  0.00    -0.061 A 
HETATM    3  C   UNL     1      27.252  46.132  53.867  1.00  0.00     0.021 A 
HETATM    4  C   UNL     1      26.442  45.582  52.851  1.00  0.00     0.005 A 
HETATM    5  C   UNL     1      26.410  44.193  52.693  1.00  0.00     0.044 A 
HETATM    6  N   UNL     1      25.557  43.915  51.642  1.00  0.00    -0.350 N 
HETATM    7  H   UNL     1      25.340  42.991  51.288  1.00  0.00     0.166 HD
HETATM    8  C   UNL     1      25.057  45.081  51.139  1.00  0.00     0.116 A 
HETATM    9  C   UNL     1      25.584  46.121  51.862  1.00  0.00     0.028 A 
HETATM   10  C   UNL     1      24.151  45.264  50.043  1.00  0.00     0.291 A 
HETATM   11  O   UNL     1      23.703  44.330  49.385  1.00  0.00    -0.264 OA
HETATM   12  N   UNL     1      23.828  46.617  49.822  1.00  0.00    -0.224 N 
HETATM   13  N   UNL     1      24.388  47.696  50.538  1.00  0.00    -0.180 NA
HETATM   14  C   UNL     1      25.219  47.464  51.514  1.00  0.00     0.153 A 
HETATM   15  C   UNL     1      27.150  43.327  53.505  1.00  0.00     0.031 A 
HETATM   16  C   UNL     1      27.946  43.899  54.505  1.00  0.00     0.009 A 
ENDROOT
BRANCH  12  17
HETATM   17  C   UNL     1      23.036  46.967  48.654  1.00  0.00     0.258 C 
BRANCH  17  18
HETATM   18  C   UNL     1      21.866  47.961  48.758  1.00  0.00     0.244 C 
HETATM   19  N   UNL     1      22.011  49.290  48.355  1.00  0.00    -0.320 N 
HETATM   20  C   UNL     1      23.233  49.851  47.790  1.00  0.00     0.159 C 
HETATM   21  O   UNL     1      20.765  47.494  49.092  1.00  0.00    -0.271 OA
BRANCH  19  22
HETATM   22  C   UNL     1      20.852  50.120  48.231  1.00  0.00     0.043 A 
HETATM   23  C   UNL     1      20.490  51.036  49.237  1.00  0.00    -0.035 A 
HETATM   24  C   UNL     1      21.188  51.095  50.567  1.00  0.00     0.050 C 
HETATM   25  C   UNL     1      19.423  51.919  48.998  1.00  0.00     0.009 A 
HETATM   26  C   UNL     1      18.711  51.879  47.798  1.00  0.00     0.007 A 
HETATM   27  C   UNL     1      19.039  50.946  46.814  1.00  0.00    -0.060 A 
HETATM   28  C   UNL     1      18.308  50.914  45.505  1.00  0.00     0.048 C 
HETATM   29  C   UNL     1      20.110  50.073  47.039  1.00  0.00     0.037 A 
ENDBRANCH  19  22
ENDBRANCH  17  18
ENDBRANCH  12  17
TORSDOF 3
ENDMDL
MODEL 6
REMARK VINA RESULT:      -9.6      2.879      9.840
REMARK  3 active torsions:
REMARK  status: ('A' for Active; 'I' for Inactive)
REMARK    1  A    between atoms: N_12  and  C_13 
REMARK    2  A    between atoms: C_13  and  C_14 
REMARK       I    between atoms: C_14  and  N_15 
REMARK    3  A    between atoms: N_15  and  C_16 
ROOT
HETATM    1  C   UNL     1      17.739  51.226  46.669  1.00  0.00     0.048 C 
HETATM    2  C   UNL     1      18.965  50.874  47.460  1.00  0.00    -0.061 A 
HETATM    3  C   UNL     1      19.508  49.580  47.397  1.00  0.00     0.021 A 
HETATM    4  C   UNL     1      20.664  49.267  48.141  1.00  0.00     0.005 A 
HETATM    5  C   UNL     1      21.247  50.263  48.932  1.00  0.00     0.044 A 
HETATM    6  N   UNL     1      22.354  49.710  49.546  1.00  0.00    -0.350 N 
HETATM    7  H   UNL     1      22.982  50.196  50.175  1.00  0.00     0.166 HD
HETATM    8  C   UNL     1      22.482  48.405  49.167  1.00  0.00     0.116 A 
HETATM    9  C   UNL     1      21.458  48.106  48.305  1.00  0.00     0.028 A 
HETATM   10  C   UNL     1      23.490  47.460  49.551  1.00  0.00     0.291 A 
HETATM   11  O   UNL     1      24.416  47.742  50.305  1.00  0.00    -0.264 OA
HETATM   12  N   UNL     1      23.287  46.186  48.984  1.00  0.00    -0.224 N 
HETATM   13  N   UNL     1      22.257  45.877  48.070  1.00  0.00    -0.180 NA
HETATM   14  C   UNL     1      21.382  46.786  47.750  1.00  0.00     0.153 A 
HETATM   15  C   UNL     1      20.725  51.559  49.012  1.00  0.00     0.031 A 
HETATM   16  C   UNL     1      19.577  51.843  48.262  1.00  0.00     0.009 A 
ENDROOT
BRANCH  12  17
HETATM   17  C   UNL     1      24.309  45.167  49.166  1.00  0.00     0.258 C 
BRANCH  17  18
HETATM   18  C   UNL     1      24.844  44.823  50.567  1.00  0.00     0.244 C 
HETATM   19  N   UNL     1      26.197  44.972  50.877  1.00  0.00    -0.320 N 
HETATM   20  C   UNL     1      27.206  45.473  49.950  1.00  0.00     0.159 C 
HETATM   21  O   UNL     1      24.002  44.536  51.431  1.00  0.00    -0.271 OA
BRANCH  19  22
HETATM   22  C   UNL     1      26.622  44.884  52.241  1.00  0.00     0.043 A 
HETATM   23  C   UNL     1      27.174  43.700  52.766  1.00  0.00    -0.035 A 
HETATM   24  C   UNL     1      27.210  42.411  51.994  1.00  0.00     0.050 C 
HETATM   25  C   UNL     1      27.698  43.716  54.070  1.00  0.00     0.009 A 
HETATM   26  C   UNL     1      27.653  44.874  54.849  1.00  0.00     0.007 A 
HETATM   27  C   UNL     1      27.069  46.039  54.349  1.00  0.00    -0.060 A 
HETATM   28  C   UNL     1      27.045  47.300  55.159  1.00  0.00     0.048 C 
HETATM   29  C   UNL     1      26.558  46.034  53.046  1.00  0.00     0.037 A 
ENDBRANCH  19  22
ENDBRANCH  17  18
ENDBRANCH  12  17
TORSDOF 3
ENDMDL
MODEL 7
REMARK VINA RESULT:      -9.5      2.772      9.843
REMARK  3 active torsions:
REMARK  status: ('A' for Active; 'I' for Inactive)
REMARK    1  A    between atoms: N_12  and  C_13 
REMARK    2  A    between atoms: C_13  and  C_14 
REMARK       I    between atoms: C_14  and  N_15 
REMARK    3  A    between atoms: N_15  and  C_16 
ROOT
HETATM    1  C   UNL     1      19.594  52.255  48.447  1.00  0.00     0.048 C 
HETATM    2  C   UNL     1      19.669  50.760  48.342  1.00  0.00    -0.061 A 
HETATM    3  C   UNL     1      20.854  50.080  48.668  1.00  0.00     0.021 A 
HETATM    4  C   UNL     1      20.906  48.674  48.569  1.00  0.00     0.005 A 
HETATM    5  C   UNL     1      19.765  47.985  48.145  1.00  0.00     0.044 A 
HETATM    6  N   UNL     1      20.072  46.638  48.138  1.00  0.00    -0.350 N 
HETATM    7  H   UNL     1      19.438  45.891  47.883  1.00  0.00     0.166 HD
HETATM    8  C   UNL     1      21.363  46.463  48.544  1.00  0.00     0.116 A 
HETATM    9  C   UNL     1      21.900  47.695  48.816  1.00  0.00     0.028 A 
HETATM   10  C   UNL     1      22.091  45.236  48.697  1.00  0.00     0.291 A 
HETATM   11  O   UNL     1      21.597  44.136  48.475  1.00  0.00    -0.264 OA
HETATM   12  N   UNL     1      23.423  45.440  49.110  1.00  0.00    -0.224 N 
HETATM   13  N   UNL     1      23.974  46.701  49.423  1.00  0.00    -0.180 NA
HETATM   14  C   UNL     1      23.255  47.776  49.278  1.00  0.00     0.153 A 
HETATM   15  C   UNL     1      18.574  48.639  47.814  1.00  0.00     0.031 A 
HETATM   16  C   UNL     1      18.549  50.035  47.921  1.00  0.00     0.009 A 
ENDROOT
BRANCH  12  17
HETATM   17  C   UNL     1      24.237  44.283  49.447  1.00  0.00     0.258 C 
BRANCH  17  18
HETATM   18  C   UNL     1      24.997  44.212  50.783  1.00  0.00     0.244 C 
HETATM   19  N   UNL     1      26.312  44.667  50.889  1.00  0.00    -0.320 N 
HETATM   20  C   UNL     1      27.070  45.260  49.792  1.00  0.00     0.159 C 
HETATM   21  O   UNL     1      24.346  43.854  51.777  1.00  0.00    -0.271 OA
BRANCH  19  22
HETATM   22  C   UNL     1      26.905  44.817  52.183  1.00  0.00     0.043 A 
HETATM   23  C   UNL     1      26.549  45.877  53.038  1.00  0.00    -0.035 A 
HETATM   24  C   UNL     1      25.654  47.003  52.604  1.00  0.00     0.050 C 
HETATM   25  C   UNL     1      27.062  45.893  54.346  1.00  0.00     0.009 A 
HETATM   26  C   UNL     1      27.933  44.895  54.791  1.00  0.00     0.007 A 
HETATM   27  C   UNL     1      28.323  43.866  53.933  1.00  0.00    -0.060 A 
HETATM   28  C   UNL     1      29.228  42.768  54.406  1.00  0.00     0.048 C 
HETATM   29  C   UNL     1      27.803  43.835  52.633  1.00  0.00     0.037 A 
ENDBRANCH  19  22
ENDBRANCH  17  18
ENDBRANCH  12  17
TORSDOF 3
ENDMDL
MODEL 8
REMARK VINA RESULT:      -9.2      2.881      4.679
REMARK  3 active torsions:
REMARK  status: ('A' for Active; 'I' for Inactive)
REMARK    1  A    between atoms: N_12  and  C_13 
REMARK    2  A    between atoms: C_13  and  C_14 
REMARK       I    between atoms: C_14  and  N_15 
REMARK    3  A    between atoms: N_15  and  C_16 
ROOT
HETATM    1  C   UNL     1      32.086  43.167  57.084  1.00  0.00     0.048 C 
HETATM    2  C   UNL     1      30.994  44.098  56.642  1.00  0.00    -0.061 A 
HETATM    3  C   UNL     1      30.083  43.708  55.647  1.00  0.00     0.021 A 
HETATM    4  C   UNL     1      29.060  44.592  55.247  1.00  0.00     0.005 A 
HETATM    5  C   UNL     1      28.978  45.848  55.857  1.00  0.00     0.044 A 
HETATM    6  N   UNL     1      27.902  46.511  55.299  1.00  0.00    -0.350 N 
HETATM    7  H   UNL     1      27.590  47.441  55.549  1.00  0.00     0.166 HD
HETATM    8  C   UNL     1      27.311  45.713  54.363  1.00  0.00     0.116 A 
HETATM    9  C   UNL     1      28.000  44.529  54.310  1.00  0.00     0.028 A 
HETATM   10  C   UNL     1      26.161  45.992  53.551  1.00  0.00     0.291 A 
HETATM   11  O   UNL     1      25.535  47.045  53.622  1.00  0.00    -0.264 OA
HETATM   12  N   UNL     1      25.849  44.940  52.668  1.00  0.00    -0.224 N 
HETATM   13  N   UNL     1      26.531  43.705  52.628  1.00  0.00    -0.180 NA
HETATM   14  C   UNL     1      27.559  43.509  53.403  1.00  0.00     0.153 A 
HETATM   15  C   UNL     1      29.874  46.260  56.850  1.00  0.00     0.031 A 
HETATM   16  C   UNL     1      30.880  45.363  57.229  1.00  0.00     0.009 A 
ENDROOT
BRANCH  12  17
HETATM   17  C   UNL     1      24.624  45.020  51.888  1.00  0.00     0.258 C 
BRANCH  17  18
HETATM   18  C   UNL     1      24.265  43.930  50.863  1.00  0.00     0.244 C 
HETATM   19  N   UNL     1      24.907  43.866  49.625  1.00  0.00    -0.320 N 
HETATM   20  C   UNL     1      25.964  44.776  49.196  1.00  0.00     0.159 C 
HETATM   21  O   UNL     1      23.480  43.046  51.240  1.00  0.00    -0.271 OA
BRANCH  19  22
HETATM   22  C   UNL     1      24.734  42.710  48.799  1.00  0.00     0.043 A 
HETATM   23  C   UNL     1      23.792  42.685  47.754  1.00  0.00    -0.035 A 
HETATM   24  C   UNL     1      22.798  43.791  47.532  1.00  0.00     0.050 C 
HETATM   25  C   UNL     1      23.764  41.575  46.892  1.00  0.00     0.009 A 
HETATM   26  C   UNL     1      24.635  40.499  47.077  1.00  0.00     0.007 A 
HETATM   27  C   UNL     1      25.543  40.500  48.137  1.00  0.00    -0.060 A 
HETATM   28  C   UNL     1      26.508  39.369  48.328  1.00  0.00     0.048 C 
HETATM   29  C   UNL     1      25.586  41.609  48.990  1.00  0.00     0.037 A 
ENDBRANCH  19  22
ENDBRANCH  17  18
ENDBRANCH  12  17
TORSDOF 3
ENDMDL
MODEL 9
REMARK VINA RESULT:      -9.1      2.540      3.659
REMARK  3 active torsions:
REMARK  status: ('A' for Active; 'I' for Inactive)
REMARK    1  A    between atoms: N_12  and  C_13 
REMARK    2  A    between atoms: C_13  and  C_14 
REMARK       I    between atoms: C_14  and  N_15 
REMARK    3  A    between atoms: N_15  and  C_16 
ROOT
HETATM    1  C   UNL     1      30.203  46.259  57.865  1.00  0.00     0.048 C 
HETATM    2  C   UNL     1      30.106  45.231  56.774  1.00  0.00    -0.061 A 
HETATM    3  C   UNL     1      29.008  45.223  55.898  1.00  0.00     0.021 A 
HETATM    4  C   UNL     1      28.935  44.254  54.876  1.00  0.00     0.005 A 
HETATM    5  C   UNL     1      29.967  43.317  54.759  1.00  0.00     0.044 A 
HETATM    6  N   UNL     1      29.663  42.496  53.691  1.00  0.00    -0.350 N 
HETATM    7  H   UNL     1      30.231  41.726  53.359  1.00  0.00     0.166 HD
HETATM    8  C   UNL     1      28.478  42.887  53.138  1.00  0.00     0.116 A 
HETATM    9  C   UNL     1      28.009  43.965  53.844  1.00  0.00     0.028 A 
HETATM   10  C   UNL     1      27.793  42.326  52.009  1.00  0.00     0.291 A 
HETATM   11  O   UNL     1      28.231  41.377  51.367  1.00  0.00    -0.264 OA
HETATM   12  N   UNL     1      26.571  42.973  51.737  1.00  0.00    -0.224 N 
HETATM   13  N   UNL     1      26.095  44.103  52.436  1.00  0.00    -0.180 NA
HETATM   14  C   UNL     1      26.773  44.572  53.443  1.00  0.00     0.153 A 
HETATM   15  C   UNL     1      31.070  43.305  55.619  1.00  0.00     0.031 A 
HETATM   16  C   UNL     1      31.118  44.277  56.626  1.00  0.00     0.009 A 
ENDROOT
BRANCH  12  17
HETATM   17  C   UNL     1      25.838  42.609  50.534  1.00  0.00     0.258 C 
BRANCH  17  18
HETATM   18  C   UNL     1      25.259  43.688  49.603  1.00  0.00     0.244 C 
HETATM   19  N   UNL     1      23.880  43.847  49.453  1.00  0.00    -0.320 N 
HETATM   20  C   UNL     1      22.878  43.053  50.157  1.00  0.00     0.159 C 
HETATM   21  O   UNL     1      26.068  44.483  49.099  1.00  0.00    -0.271 OA
BRANCH  19  22
HETATM   22  C   UNL     1      23.371  45.003  48.782  1.00  0.00     0.043 A 
HETATM   23  C   UNL     1      22.651  44.899  47.577  1.00  0.00    -0.035 A 
HETATM   24  C   UNL     1      22.504  43.603  46.831  1.00  0.00     0.050 C 
HETATM   25  C   UNL     1      22.059  46.055  47.039  1.00  0.00     0.009 A 
HETATM   26  C   UNL     1      22.200  47.294  47.667  1.00  0.00     0.007 A 
HETATM   27  C   UNL     1      22.947  47.411  48.839  1.00  0.00    -0.060 A 
HETATM   28  C   UNL     1      23.078  48.727  49.545  1.00  0.00     0.048 C 
HETATM   29  C   UNL     1      23.527  46.261  49.389  1.00  0.00     0.037 A 
ENDBRANCH  19  22
ENDBRANCH  17  18
ENDBRANCH  12  17
TORSDOF 3
ENDMDL
MODEL 10
REMARK VINA RESULT:      -8.9      5.832      7.569
REMARK  3 active torsions:
REMARK  status: ('A' for Active; 'I' for Inactive)
REMARK    1  A    between atoms: N_12  and  C_13 
REMARK    2  A    between atoms: C_13  and  C_14 
REMARK       I    between atoms: C_14  and  N_15 
REMARK    3  A    between atoms: N_15  and  C_16 
ROOT
HETATM    1  C   UNL     1      28.500  46.096  55.666  1.00  0.00     0.048 C 
HETATM    2  C   UNL     1      28.804  44.855  54.878  1.00  0.00    -0.061 A 
HETATM    3  C   UNL     1      27.959  44.448  53.834  1.00  0.00     0.021 A 
HETATM    4  C   UNL     1      28.263  43.282  53.100  1.00  0.00     0.005 A 
HETATM    5  C   UNL     1      29.411  42.556  53.433  1.00  0.00     0.044 A 
HETATM    6  N   UNL     1      29.484  41.478  52.572  1.00  0.00    -0.350 N 
HETATM    7  H   UNL     1      30.214  40.776  52.568  1.00  0.00     0.166 HD
HETATM    8  C   UNL     1      28.422  41.506  51.714  1.00  0.00     0.116 A 
HETATM    9  C   UNL     1      27.657  42.604  52.014  1.00  0.00     0.028 A 
HETATM   10  C   UNL     1      28.108  40.593  50.654  1.00  0.00     0.291 A 
HETATM   11  O   UNL     1      28.811  39.627  50.376  1.00  0.00    -0.264 OA
HETATM   12  N   UNL     1      26.910  40.921  49.990  1.00  0.00    -0.224 N 
HETATM   13  N   UNL     1      26.132  42.065  50.268  1.00  0.00    -0.180 NA
HETATM   14  C   UNL     1      26.481  42.864  51.235  1.00  0.00     0.153 A 
HETATM   15  C   UNL     1      30.268  42.941  54.469  1.00  0.00     0.031 A 
HETATM   16  C   UNL     1      29.943  44.102  55.182  1.00  0.00     0.009 A 
ENDROOT
BRANCH  12  17
HETATM   17  C   UNL     1      26.541  40.170  48.799  1.00  0.00     0.258 C 
BRANCH  17  18
HETATM   18  C   UNL     1      27.154  40.506  47.429  1.00  0.00     0.244 C 
HETATM   19  N   UNL     1      26.813  39.777  46.289  1.00  0.00    -0.320 N 
HETATM   20  C   UNL     1      25.856  38.675  46.270  1.00  0.00     0.159 C 
HETATM   21  O   UNL     1      27.857  41.527  47.367  1.00  0.00    -0.271 OA
BRANCH  19  22
HETATM   22  C   UNL     1      27.202  40.260  44.999  1.00  0.00     0.043 A 
HETATM   23  C   UNL     1      26.412  41.184  44.289  1.00  0.00    -0.035 A 
HETATM   24  C   UNL     1      25.044  41.604  44.751  1.00  0.00     0.050 C 
HETATM   25  C   UNL     1      26.912  41.725  43.093  1.00  0.00     0.009 A 
HETATM   26  C   UNL     1      28.158  41.339  42.594  1.00  0.00     0.007 A 
HETATM   27  C   UNL     1      28.927  40.392  43.271  1.00  0.00    -0.060 A 
HETATM   28  C   UNL     1      30.282  39.994  42.768  1.00  0.00     0.048 C 
HETATM   29  C   UNL     1      28.441  39.860  44.472  1.00  0.00     0.037 A 
ENDBRANCH  19  22
ENDBRANCH  17  18
ENDBRANCH  12  17
TORSDOF 3
ENDMDL
