MODEL 1
REMARK VINA RESULT:      -9.4      0.000      0.000
REMARK  3 active torsions:
REMARK  status: ('A' for Active; 'I' for Inactive)
REMARK    1  A    between atoms: C_3  and  O_4 
REMARK    2  A    between atoms: C_6  and  C_7 
REMARK    3  A    between atoms: N_8  and  N_9 
ROOT
HETATM    1  N   UNL     1      25.420  44.088  52.457  1.00  0.00    -0.189 N 
HETATM    2  C   UNL     1      26.577  43.308  52.319  1.00  0.00     0.298 A 
HETATM    3  O   UNL     1      26.749  42.402  51.509  1.00  0.00    -0.264 OA
HETATM    4  C   UNL     1      27.558  43.665  53.294  1.00  0.00     0.133 A 
HETATM    5  C   UNL     1      27.403  44.682  54.189  1.00  0.00     0.103 A 
HETATM    6  N   UNL     1      26.276  45.506  54.221  1.00  0.00    -0.239 NA
HETATM    7  C   UNL     1      25.374  45.165  53.346  1.00  0.00     0.239 A 
HETATM    8  N   UNL     1      28.777  43.091  53.523  1.00  0.00    -0.349 N 
HETATM    9  H   UNL     1      29.159  42.315  52.997  1.00  0.00     0.166 HD
HETATM   10  C   UNL     1      29.395  43.723  54.587  1.00  0.00     0.045 A 
HETATM   11  C   UNL     1      28.538  44.743  55.024  1.00  0.00     0.024 A 
HETATM   12  C   UNL     1      30.635  43.473  55.186  1.00  0.00     0.032 A 
HETATM   13  C   UNL     1      31.007  44.287  56.263  1.00  0.00     0.026 A 
HETATM   14  C   UNL     1      30.169  45.307  56.712  1.00  0.00     0.035 A 
HETATM   15 CL   UNL     1      30.664  46.283  58.043  1.00  0.00    -0.084 Cl
HETATM   16  C   UNL     1      28.934  45.552  56.106  1.00  0.00     0.040 A 
ENDROOT
BRANCH   1  17
HETATM   17  N   UNL     1      24.402  43.899  51.548  1.00  0.00    -0.175 NA
HETATM   18  C   UNL     1      24.304  44.678  50.510  1.00  0.00     0.150 C 
BRANCH  18  19
HETATM   19  C   UNL     1      25.047  45.908  50.170  1.00  0.00    -0.014 A 
HETATM   20  C   UNL     1      26.364  45.765  49.726  1.00  0.00     0.049 A 
HETATM   21  C   UNL     1      27.095  46.897  49.383  1.00  0.00     0.066 A 
HETATM   22  C   UNL     1      26.531  48.167  49.465  1.00  0.00     0.036 A 
HETATM   23  C   UNL     1      25.208  48.304  49.885  1.00  0.00     0.004 A 
HETATM   24  C   UNL     1      24.459  47.175  50.226  1.00  0.00     0.013 A 
BRANCH  21  25
HETATM   25  O   UNL     1      28.379  46.715  48.962  1.00  0.00    -0.361 OA
HETATM   26  H   UNL     1      28.651  45.806  49.168  1.00  0.00     0.217 HD
ENDBRANCH  21  25
ENDBRANCH  18  19
ENDBRANCH   1  17
TORSDOF 3
ENDMDL
MODEL 2
REMARK VINA RESULT:      -8.7     12.572     13.877
REMARK  3 active torsions:
REMARK  status: ('A' for Active; 'I' for Inactive)
REMARK    1  A    between atoms: C_3  and  O_4 
REMARK    2  A    between atoms: C_6  and  C_7 
REMARK    3  A    between atoms: N_8  and  N_9 
ROOT
HETATM    1  N   UNL     1      30.855  48.922  41.685  1.00  0.00    -0.189 N 
HETATM    2  C   UNL     1      32.046  48.571  41.032  1.00  0.00     0.298 A 
HETATM    3  O   UNL     1      32.182  47.679  40.200  1.00  0.00    -0.264 OA
HETATM    4  C   UNL     1      33.139  49.365  41.495  1.00  0.00     0.133 A 
HETATM    5  C   UNL     1      33.012  50.377  42.401  1.00  0.00     0.103 A 
HETATM    6  N   UNL     1      31.787  50.764  42.946  1.00  0.00    -0.239 NA
HETATM    7  C   UNL     1      30.795  50.025  42.539  1.00  0.00     0.239 A 
HETATM    8  N   UNL     1      34.460  49.276  41.153  1.00  0.00    -0.349 N 
HETATM    9  H   UNL     1      34.842  48.615  40.489  1.00  0.00     0.166 HD
HETATM   10  C   UNL     1      35.187  50.215  41.862  1.00  0.00     0.045 A 
HETATM   11  C   UNL     1      34.283  50.930  42.660  1.00  0.00     0.024 A 
HETATM   12  C   UNL     1      36.561  50.483  41.855  1.00  0.00     0.032 A 
HETATM   13  C   UNL     1      37.022  51.509  42.688  1.00  0.00     0.026 A 
HETATM   14  C   UNL     1      36.140  52.232  43.489  1.00  0.00     0.035 A 
HETATM   15 CL   UNL     1      36.751  53.484  44.503  1.00  0.00    -0.084 Cl
HETATM   16  C   UNL     1      34.769  51.961  43.488  1.00  0.00     0.040 A 
ENDROOT
BRANCH   1  17
HETATM   17  N   UNL     1      29.698  48.279  41.302  1.00  0.00    -0.175 NA
HETATM   18  C   UNL     1      28.926  48.811  40.400  1.00  0.00     0.150 C 
BRANCH  18  19
HETATM   19  C   UNL     1      28.986  50.143  39.762  1.00  0.00    -0.014 A 
HETATM   20  C   UNL     1      29.739  50.264  38.591  1.00  0.00     0.049 A 
HETATM   21  C   UNL     1      29.811  51.496  37.951  1.00  0.00     0.066 A 
HETATM   22  C   UNL     1      29.137  52.605  38.453  1.00  0.00     0.036 A 
HETATM   23  C   UNL     1      28.365  52.474  39.608  1.00  0.00     0.004 A 
HETATM   24  C   UNL     1      28.277  51.241  40.257  1.00  0.00     0.013 A 
BRANCH  21  25
HETATM   25  O   UNL     1      30.563  51.574  36.817  1.00  0.00    -0.361 OA
HETATM   26  H   UNL     1      30.123  51.071  36.112  1.00  0.00     0.217 HD
ENDBRANCH  21  25
ENDBRANCH  18  19
ENDBRANCH   1  17
TORSDOF 3
ENDMDL
MODEL 3
REMARK VINA RESULT:      -8.6      4.349      6.009
REMARK  3 active torsions:
REMARK  status: ('A' for Active; 'I' for Inactive)
REMARK    1  A    between atoms: C_3  and  O_4 
REMARK    2  A    between atoms: C_6  and  C_7 
REMARK    3  A    between atoms: N_8  and  N_9 
ROOT
HETATM    1  N   UNL     1      23.040  47.392  48.470  1.00  0.00    -0.189 N 
HETATM    2  C   UNL     1      23.031  46.096  49.007  1.00  0.00     0.298 A 
HETATM    3  O   UNL     1      22.373  45.145  48.596  1.00  0.00    -0.264 OA
HETATM    4  C   UNL     1      23.870  46.011  50.159  1.00  0.00     0.133 A 
HETATM    5  C   UNL     1      24.629  47.045  50.623  1.00  0.00     0.103 A 
HETATM    6  N   UNL     1      24.691  48.289  49.993  1.00  0.00    -0.239 NA
HETATM    7  C   UNL     1      23.909  48.371  48.955  1.00  0.00     0.239 A 
HETATM    8  N   UNL     1      24.067  44.944  50.991  1.00  0.00    -0.349 N 
HETATM    9  H   UNL     1      23.633  44.036  50.880  1.00  0.00     0.166 HD
HETATM   10  C   UNL     1      24.934  45.302  52.007  1.00  0.00     0.045 A 
HETATM   11  C   UNL     1      25.308  46.636  51.790  1.00  0.00     0.024 A 
HETATM   12  C   UNL     1      25.412  44.553  53.089  1.00  0.00     0.032 A 
HETATM   13  C   UNL     1      26.294  45.186  53.973  1.00  0.00     0.026 A 
HETATM   14  C   UNL     1      26.678  46.511  53.774  1.00  0.00     0.035 A 
HETATM   15 CL   UNL     1      27.763  47.254  54.888  1.00  0.00    -0.084 Cl
HETATM   16  C   UNL     1      26.200  47.251  52.689  1.00  0.00     0.040 A 
ENDROOT
BRANCH   1  17
HETATM   17  N   UNL     1      22.320  47.616  47.317  1.00  0.00    -0.175 NA
HETATM   18  C   UNL     1      21.285  48.405  47.338  1.00  0.00     0.150 C 
BRANCH  18  19
HETATM   19  C   UNL     1      20.599  49.043  48.481  1.00  0.00    -0.014 A 
HETATM   20  C   UNL     1      19.784  48.234  49.278  1.00  0.00     0.049 A 
HETATM   21  C   UNL     1      19.132  48.792  50.372  1.00  0.00     0.066 A 
HETATM   22  C   UNL     1      19.287  50.137  50.690  1.00  0.00     0.036 A 
HETATM   23  C   UNL     1      20.122  50.935  49.908  1.00  0.00     0.004 A 
HETATM   24  C   UNL     1      20.790  50.388  48.810  1.00  0.00     0.013 A 
BRANCH  21  25
HETATM   25  O   UNL     1      18.339  47.971  51.118  1.00  0.00    -0.361 OA
HETATM   26  H   UNL     1      18.792  47.769  51.953  1.00  0.00     0.217 HD
ENDBRANCH  21  25
ENDBRANCH  18  19
ENDBRANCH   1  17
TORSDOF 3
ENDMDL
MODEL 4
REMARK VINA RESULT:      -8.4      1.617      2.438
REMARK  3 active torsions:
REMARK  status: ('A' for Active; 'I' for Inactive)
REMARK    1  A    between atoms: C_3  and  O_4 
REMARK    2  A    between atoms: C_6  and  C_7 
REMARK    3  A    between atoms: N_8  and  N_9 
ROOT
HETATM    1  N   UNL     1      25.931  44.248  51.962  1.00  0.00    -0.189 N 
HETATM    2  C   UNL     1      25.881  45.252  52.940  1.00  0.00     0.298 A 
HETATM    3  O   UNL     1      25.042  46.145  53.021  1.00  0.00    -0.264 OA
HETATM    4  C   UNL     1      26.984  45.149  53.841  1.00  0.00     0.133 A 
HETATM    5  C   UNL     1      27.917  44.156  53.788  1.00  0.00     0.103 A 
HETATM    6  N   UNL     1      27.868  43.111  52.863  1.00  0.00    -0.239 NA
HETATM    7  C   UNL     1      26.874  43.219  52.029  1.00  0.00     0.239 A 
HETATM    8  N   UNL     1      27.318  45.979  54.875  1.00  0.00    -0.349 N 
HETATM    9  H   UNL     1      26.793  46.799  55.150  1.00  0.00     0.166 HD
HETATM   10  C   UNL     1      28.484  45.533  55.470  1.00  0.00     0.045 A 
HETATM   11  C   UNL     1      28.881  44.369  54.795  1.00  0.00     0.024 A 
HETATM   12  C   UNL     1      29.208  46.064  56.544  1.00  0.00     0.032 A 
HETATM   13  C   UNL     1      30.369  45.388  56.937  1.00  0.00     0.026 A 
HETATM   14  C   UNL     1      30.780  44.229  56.279  1.00  0.00     0.035 A 
HETATM   15 CL   UNL     1      32.218  43.431  56.793  1.00  0.00    -0.084 Cl
HETATM   16  C   UNL     1      30.050  43.703  55.210  1.00  0.00     0.040 A 
ENDROOT
BRANCH   1  17
HETATM   17  N   UNL     1      24.899  44.182  51.052  1.00  0.00    -0.175 NA
HETATM   18  C   UNL     1      24.880  44.987  50.030  1.00  0.00     0.150 C 
BRANCH  18  19
HETATM   19  C   UNL     1      25.747  46.140  49.712  1.00  0.00    -0.014 A 
HETATM   20  C   UNL     1      25.142  47.396  49.620  1.00  0.00     0.049 A 
HETATM   21  C   UNL     1      25.924  48.510  49.337  1.00  0.00     0.066 A 
HETATM   22  C   UNL     1      27.299  48.394  49.154  1.00  0.00     0.036 A 
HETATM   23  C   UNL     1      27.903  47.142  49.272  1.00  0.00     0.004 A 
HETATM   24  C   UNL     1      27.132  46.015  49.564  1.00  0.00     0.013 A 
BRANCH  21  25
HETATM   25  O   UNL     1      25.294  49.716  49.247  1.00  0.00    -0.361 OA
HETATM   26  H   UNL     1      24.529  49.628  48.655  1.00  0.00     0.217 HD
ENDBRANCH  21  25
ENDBRANCH  18  19
ENDBRANCH   1  17
TORSDOF 3
ENDMDL
MODEL 5
REMARK VINA RESULT:      -8.3      3.234      6.681
REMARK  3 active torsions:
REMARK  status: ('A' for Active; 'I' for Inactive)
REMARK    1  A    between atoms: C_3  and  O_4 
REMARK    2  A    between atoms: C_6  and  C_7 
REMARK    3  A    between atoms: N_8  and  N_9 
ROOT
HETATM    1  N   UNL     1      26.424  42.862  50.798  1.00  0.00    -0.189 N 
HETATM    2  C   UNL     1      25.145  43.420  50.938  1.00  0.00     0.298 A 
HETATM    3  O   UNL     1      24.138  42.838  51.332  1.00  0.00    -0.264 OA
HETATM    4  C   UNL     1      25.129  44.783  50.512  1.00  0.00     0.133 A 
HETATM    5  C   UNL     1      26.236  45.460  50.093  1.00  0.00     0.103 A 
HETATM    6  N   UNL     1      27.513  44.896  50.072  1.00  0.00    -0.239 NA
HETATM    7  C   UNL     1      27.521  43.647  50.441  1.00  0.00     0.239 A 
HETATM    8  N   UNL     1      24.063  45.636  50.431  1.00  0.00    -0.349 N 
HETATM    9  H   UNL     1      23.114  45.401  50.689  1.00  0.00     0.166 HD
HETATM   10  C   UNL     1      24.483  46.856  49.933  1.00  0.00     0.045 A 
HETATM   11  C   UNL     1      25.866  46.767  49.714  1.00  0.00     0.024 A 
HETATM   12  C   UNL     1      23.752  48.020  49.665  1.00  0.00     0.032 A 
HETATM   13  C   UNL     1      24.453  49.119  49.158  1.00  0.00     0.026 A 
HETATM   14  C   UNL     1      25.828  49.051  48.934  1.00  0.00     0.035 A 
HETATM   15 CL   UNL     1      26.651  50.428  48.305  1.00  0.00    -0.084 Cl
HETATM   16  C   UNL     1      26.551  47.887  49.208  1.00  0.00     0.040 A 
ENDROOT
BRANCH   1  17
HETATM   17  N   UNL     1      26.611  41.564  51.225  1.00  0.00    -0.175 NA
HETATM   18  C   UNL     1      27.323  41.325  52.287  1.00  0.00     0.150 C 
BRANCH  18  19
HETATM   19  C   UNL     1      28.150  42.238  53.103  1.00  0.00    -0.014 A 
HETATM   20  C   UNL     1      27.486  43.190  53.880  1.00  0.00     0.049 A 
HETATM   21  C   UNL     1      28.225  44.060  54.673  1.00  0.00     0.066 A 
HETATM   22  C   UNL     1      29.615  43.988  54.713  1.00  0.00     0.036 A 
HETATM   23  C   UNL     1      30.273  43.019  53.956  1.00  0.00     0.004 A 
HETATM   24  C   UNL     1      29.543  42.133  53.160  1.00  0.00     0.013 A 
BRANCH  21  25
HETATM   25  O   UNL     1      27.539  44.980  55.408  1.00  0.00    -0.361 OA
HETATM   26  H   UNL     1      26.588  44.855  55.261  1.00  0.00     0.217 HD
ENDBRANCH  21  25
ENDBRANCH  18  19
ENDBRANCH   1  17
TORSDOF 3
ENDMDL
MODEL 6
REMARK VINA RESULT:      -8.1     12.520     14.443
REMARK  3 active torsions:
REMARK  status: ('A' for Active; 'I' for Inactive)
REMARK    1  A    between atoms: C_3  and  O_4 
REMARK    2  A    between atoms: C_6  and  C_7 
REMARK    3  A    between atoms: N_8  and  N_9 
ROOT
HETATM    1  N   UNL     1      31.989  49.598  42.387  1.00  0.00    -0.189 N 
HETATM    2  C   UNL     1      32.452  50.614  43.236  1.00  0.00     0.298 A 
HETATM    3  O   UNL     1      31.814  51.159  44.131  1.00  0.00    -0.264 OA
HETATM    4  C   UNL     1      33.788  50.993  42.902  1.00  0.00     0.133 A 
HETATM    5  C   UNL     1      34.528  50.389  41.929  1.00  0.00     0.103 A 
HETATM    6  N   UNL     1      34.064  49.307  41.178  1.00  0.00    -0.239 NA
HETATM    7  C   UNL     1      32.838  48.976  41.470  1.00  0.00     0.239 A 
HETATM    8  N   UNL     1      34.552  51.986  43.449  1.00  0.00    -0.349 N 
HETATM    9  H   UNL     1      34.257  52.594  44.203  1.00  0.00     0.166 HD
HETATM   10  C   UNL     1      35.776  52.037  42.807  1.00  0.00     0.045 A 
HETATM   11  C   UNL     1      35.783  51.025  41.837  1.00  0.00     0.024 A 
HETATM   12  C   UNL     1      36.866  52.892  43.011  1.00  0.00     0.032 A 
HETATM   13  C   UNL     1      37.991  52.708  42.200  1.00  0.00     0.026 A 
HETATM   14  C   UNL     1      38.018  51.707  41.229  1.00  0.00     0.035 A 
HETATM   15 CL   UNL     1      39.423  51.517  40.249  1.00  0.00    -0.084 Cl
HETATM   16  C   UNL     1      36.928  50.855  41.035  1.00  0.00     0.040 A 
ENDROOT
BRANCH   1  17
HETATM   17  N   UNL     1      30.731  49.085  42.623  1.00  0.00    -0.175 NA
HETATM   18  C   UNL     1      29.706  49.550  41.971  1.00  0.00     0.150 C 
BRANCH  18  19
HETATM   19  C   UNL     1      29.604  50.707  41.058  1.00  0.00    -0.014 A 
HETATM   20  C   UNL     1      29.779  50.470  39.693  1.00  0.00     0.049 A 
HETATM   21  C   UNL     1      29.677  51.530  38.798  1.00  0.00     0.066 A 
HETATM   22  C   UNL     1      29.394  52.818  39.242  1.00  0.00     0.036 A 
HETATM   23  C   UNL     1      29.194  53.046  40.603  1.00  0.00     0.004 A 
HETATM   24  C   UNL     1      29.285  51.990  41.513  1.00  0.00     0.013 A 
BRANCH  21  25
HETATM   25  O   UNL     1      29.864  51.258  37.475  1.00  0.00    -0.361 OA
HETATM   26  H   UNL     1      30.056  52.087  37.008  1.00  0.00     0.217 HD
ENDBRANCH  21  25
ENDBRANCH  18  19
ENDBRANCH   1  17
TORSDOF 3
ENDMDL
MODEL 7
REMARK VINA RESULT:      -7.9     13.252     15.467
REMARK  3 active torsions:
REMARK  status: ('A' for Active; 'I' for Inactive)
REMARK    1  A    between atoms: C_3  and  O_4 
REMARK    2  A    between atoms: C_6  and  C_7 
REMARK    3  A    between atoms: N_8  and  N_9 
ROOT
HETATM    1  N   UNL     1      28.988  52.552  39.638  1.00  0.00    -0.189 N 
HETATM    2  C   UNL     1      27.995  52.050  40.492  1.00  0.00     0.298 A 
HETATM    3  O   UNL     1      27.658  52.527  41.572  1.00  0.00    -0.264 OA
HETATM    4  C   UNL     1      27.426  50.849  39.970  1.00  0.00     0.133 A 
HETATM    5  C   UNL     1      27.765  50.311  38.763  1.00  0.00     0.103 A 
HETATM    6  N   UNL     1      28.683  50.903  37.894  1.00  0.00    -0.239 NA
HETATM    7  C   UNL     1      29.216  51.987  38.382  1.00  0.00     0.239 A 
HETATM    8  N   UNL     1      26.488  50.034  40.541  1.00  0.00    -0.349 N 
HETATM    9  H   UNL     1      26.051  50.197  41.439  1.00  0.00     0.166 HD
HETATM   10  C   UNL     1      26.244  48.955  39.710  1.00  0.00     0.045 A 
HETATM   11  C   UNL     1      27.044  49.114  38.570  1.00  0.00     0.024 A 
HETATM   12  C   UNL     1      25.383  47.865  39.880  1.00  0.00     0.032 A 
HETATM   13  C   UNL     1      25.341  46.911  38.857  1.00  0.00     0.026 A 
HETATM   14  C   UNL     1      26.128  47.050  37.715  1.00  0.00     0.035 A 
HETATM   15 CL   UNL     1      26.049  45.850  36.481  1.00  0.00    -0.084 Cl
HETATM   16  C   UNL     1      26.983  48.144  37.551  1.00  0.00     0.040 A 
ENDROOT
BRANCH   1  17
HETATM   17  N   UNL     1      29.591  53.743  39.981  1.00  0.00    -0.175 NA
HETATM   18  C   UNL     1      30.709  53.738  40.647  1.00  0.00     0.150 C 
BRANCH  18  19
HETATM   19  C   UNL     1      31.435  52.617  41.277  1.00  0.00    -0.014 A 
HETATM   20  C   UNL     1      32.413  51.972  40.515  1.00  0.00     0.049 A 
HETATM   21  C   UNL     1      33.130  50.921  41.075  1.00  0.00     0.066 A 
HETATM   22  C   UNL     1      32.897  50.510  42.384  1.00  0.00     0.036 A 
HETATM   23  C   UNL     1      31.938  51.173  43.150  1.00  0.00     0.004 A 
HETATM   24  C   UNL     1      31.215  52.236  42.604  1.00  0.00     0.013 A 
BRANCH  21  25
HETATM   25  O   UNL     1      34.069  50.312  40.295  1.00  0.00    -0.361 OA
HETATM   26  H   UNL     1      34.790  49.994  40.862  1.00  0.00     0.217 HD
ENDBRANCH  21  25
ENDBRANCH  18  19
ENDBRANCH   1  17
TORSDOF 3
ENDMDL
MODEL 8
REMARK VINA RESULT:      -7.9     12.731     14.559
REMARK  3 active torsions:
REMARK  status: ('A' for Active; 'I' for Inactive)
REMARK    1  A    between atoms: C_3  and  O_4 
REMARK    2  A    between atoms: C_6  and  C_7 
REMARK    3  A    between atoms: N_8  and  N_9 
ROOT
HETATM    1  N   UNL     1      29.259  51.230  39.945  1.00  0.00    -0.189 N 
HETATM    2  C   UNL     1      28.476  50.424  40.784  1.00  0.00     0.298 A 
HETATM    3  O   UNL     1      27.863  50.793  41.782  1.00  0.00    -0.264 OA
HETATM    4  C   UNL     1      28.507  49.060  40.361  1.00  0.00     0.133 A 
HETATM    5  C   UNL     1      29.159  48.626  39.245  1.00  0.00     0.103 A 
HETATM    6  N   UNL     1      29.839  49.482  38.376  1.00  0.00    -0.239 NA
HETATM    7  C   UNL     1      29.827  50.722  38.775  1.00  0.00     0.239 A 
HETATM    8  N   UNL     1      27.931  47.972  40.956  1.00  0.00    -0.349 N 
HETATM    9  H   UNL     1      27.375  48.002  41.802  1.00  0.00     0.166 HD
HETATM   10  C   UNL     1      28.239  46.832  40.235  1.00  0.00     0.045 A 
HETATM   11  C   UNL     1      29.017  47.227  39.138  1.00  0.00     0.024 A 
HETATM   12  C   UNL     1      27.887  45.497  40.468  1.00  0.00     0.032 A 
HETATM   13  C   UNL     1      28.347  44.541  39.555  1.00  0.00     0.026 A 
HETATM   14  C   UNL     1      29.122  44.912  38.458  1.00  0.00     0.035 A 
HETATM   15 CL   UNL     1      29.670  43.702  37.360  1.00  0.00    -0.084 Cl
HETATM   16  C   UNL     1      29.464  46.248  38.230  1.00  0.00     0.040 A 
ENDROOT
BRANCH   1  17
HETATM   17  N   UNL     1      29.282  52.586  40.193  1.00  0.00    -0.175 NA
HETATM   18  C   UNL     1      30.285  53.114  40.832  1.00  0.00     0.150 C 
BRANCH  18  19
HETATM   19  C   UNL     1      31.422  52.467  41.518  1.00  0.00    -0.014 A 
HETATM   20  C   UNL     1      31.326  52.290  42.900  1.00  0.00     0.049 A 
HETATM   21  C   UNL     1      32.368  51.673  43.583  1.00  0.00     0.066 A 
HETATM   22  C   UNL     1      33.498  51.219  42.909  1.00  0.00     0.036 A 
HETATM   23  C   UNL     1      33.579  51.374  41.525  1.00  0.00     0.004 A 
HETATM   24  C   UNL     1      32.537  51.986  40.824  1.00  0.00     0.013 A 
BRANCH  21  25
HETATM   25  O   UNL     1      32.239  51.528  44.933  1.00  0.00    -0.361 OA
HETATM   26  H   UNL     1      31.373  51.133  45.125  1.00  0.00     0.217 HD
ENDBRANCH  21  25
ENDBRANCH  18  19
ENDBRANCH   1  17
TORSDOF 3
ENDMDL
MODEL 9
REMARK VINA RESULT:      -7.7     12.961     15.084
REMARK  3 active torsions:
REMARK  status: ('A' for Active; 'I' for Inactive)
REMARK    1  A    between atoms: C_3  and  O_4 
REMARK    2  A    between atoms: C_6  and  C_7 
REMARK    3  A    between atoms: N_8  and  N_9 
ROOT
HETATM    1  N   UNL     1      29.896  49.683  38.668  1.00  0.00    -0.189 N 
HETATM    2  C   UNL     1      28.832  50.465  38.194  1.00  0.00     0.298 A 
HETATM    3  O   UNL     1      28.927  51.499  37.539  1.00  0.00    -0.264 OA
HETATM    4  C   UNL     1      27.575  49.931  38.612  1.00  0.00     0.133 A 
HETATM    5  C   UNL     1      27.440  48.773  39.319  1.00  0.00     0.103 A 
HETATM    6  N   UNL     1      28.522  47.967  39.679  1.00  0.00    -0.239 NA
HETATM    7  C   UNL     1      29.669  48.467  39.315  1.00  0.00     0.239 A 
HETATM    8  N   UNL     1      26.324  50.444  38.410  1.00  0.00    -0.349 N 
HETATM    9  H   UNL     1      26.124  51.297  37.904  1.00  0.00     0.166 HD
HETATM   10  C   UNL     1      25.385  49.627  39.013  1.00  0.00     0.045 A 
HETATM   11  C   UNL     1      26.074  48.554  39.595  1.00  0.00     0.024 A 
HETATM   12  C   UNL     1      23.993  49.755  39.084  1.00  0.00     0.032 A 
HETATM   13  C   UNL     1      23.288  48.759  39.771  1.00  0.00     0.026 A 
HETATM   14  C   UNL     1      23.954  47.684  40.356  1.00  0.00     0.035 A 
HETATM   15 CL   UNL     1      23.048  46.482  41.195  1.00  0.00    -0.084 Cl
HETATM   16  C   UNL     1      25.345  47.562  40.277  1.00  0.00     0.040 A 
ENDROOT
BRANCH   1  17
HETATM   17  N   UNL     1      31.174  50.041  38.297  1.00  0.00    -0.175 NA
HETATM   18  C   UNL     1      31.918  50.733  39.110  1.00  0.00     0.150 C 
BRANCH  18  19
HETATM   19  C   UNL     1      31.577  51.378  40.395  1.00  0.00    -0.014 A 
HETATM   20  C   UNL     1      31.969  50.727  41.567  1.00  0.00     0.049 A 
HETATM   21  C   UNL     1      31.680  51.307  42.798  1.00  0.00     0.066 A 
HETATM   22  C   UNL     1      31.019  52.528  42.877  1.00  0.00     0.036 A 
HETATM   23  C   UNL     1      30.652  53.188  41.704  1.00  0.00     0.004 A 
HETATM   24  C   UNL     1      30.942  52.622  40.461  1.00  0.00     0.013 A 
BRANCH  21  25
HETATM   25  O   UNL     1      32.071  50.635  43.918  1.00  0.00    -0.361 OA
HETATM   26  H   UNL     1      33.041  50.592  43.936  1.00  0.00     0.217 HD
ENDBRANCH  21  25
ENDBRANCH  18  19
ENDBRANCH   1  17
TORSDOF 3
ENDMDL
MODEL 10
REMARK VINA RESULT:      -7.7      3.499      7.032
REMARK  3 active torsions:
REMARK  status: ('A' for Active; 'I' for Inactive)
REMARK    1  A    between atoms: C_3  and  O_4 
REMARK    2  A    between atoms: C_6  and  C_7 
REMARK    3  A    between atoms: N_8  and  N_9 
ROOT
HETATM    1  N   UNL     1      25.873  44.359  50.813  1.00  0.00    -0.189 N 
HETATM    2  C   UNL     1      26.737  45.275  50.196  1.00  0.00     0.298 A 
HETATM    3  O   UNL     1      27.947  45.137  50.035  1.00  0.00    -0.264 OA
HETATM    4  C   UNL     1      26.038  46.455  49.798  1.00  0.00     0.133 A 
HETATM    5  C   UNL     1      24.692  46.624  49.943  1.00  0.00     0.103 A 
HETATM    6  N   UNL     1      23.851  45.641  50.466  1.00  0.00    -0.239 NA
HETATM    7  C   UNL     1      24.494  44.574  50.847  1.00  0.00     0.239 A 
HETATM    8  N   UNL     1      26.542  47.593  49.233  1.00  0.00    -0.349 N 
HETATM    9  H   UNL     1      27.517  47.741  49.003  1.00  0.00     0.166 HD
HETATM   10  C   UNL     1      25.522  48.506  49.040  1.00  0.00     0.045 A 
HETATM   11  C   UNL     1      24.334  47.908  49.482  1.00  0.00     0.024 A 
HETATM   12  C   UNL     1      25.561  49.802  48.511  1.00  0.00     0.032 A 
HETATM   13  C   UNL     1      24.353  50.504  48.435  1.00  0.00     0.026 A 
HETATM   14  C   UNL     1      23.160  49.927  48.868  1.00  0.00     0.035 A 
HETATM   15 CL   UNL     1      21.696  50.828  48.759  1.00  0.00    -0.084 Cl
HETATM   16  C   UNL     1      23.129  48.631  49.392  1.00  0.00     0.040 A 
ENDROOT
BRANCH   1  17
HETATM   17  N   UNL     1      26.393  43.143  51.201  1.00  0.00    -0.175 NA
HETATM   18  C   UNL     1      26.990  43.028  52.352  1.00  0.00     0.150 C 
BRANCH  18  19
HETATM   19  C   UNL     1      27.370  44.064  53.334  1.00  0.00    -0.014 A 
HETATM   20  C   UNL     1      26.412  45.028  53.658  1.00  0.00     0.049 A 
HETATM   21  C   UNL     1      26.724  46.013  54.588  1.00  0.00     0.066 A 
HETATM   22  C   UNL     1      27.969  46.046  55.208  1.00  0.00     0.036 A 
HETATM   23  C   UNL     1      28.914  45.066  54.901  1.00  0.00     0.004 A 
HETATM   24  C   UNL     1      28.612  44.066  53.975  1.00  0.00     0.013 A 
BRANCH  21  25
HETATM   25  O   UNL     1      25.765  46.941  54.870  1.00  0.00    -0.361 OA
HETATM   26  H   UNL     1      24.891  46.530  54.768  1.00  0.00     0.217 HD
ENDBRANCH  21  25
ENDBRANCH  18  19
ENDBRANCH   1  17
TORSDOF 3
ENDMDL
