MODEL 1
REMARK VINA RESULT:      -9.5      0.000      0.000
REMARK  5 active torsions:
REMARK  status: ('A' for Active; 'I' for Inactive)
REMARK    1  A    between atoms: C_4  and  N_5 
REMARK    2  A    between atoms: C_9  and  C_10 
REMARK    3  A    between atoms: C_13  and  O_14 
REMARK    4  A    between atoms: C_17  and  C_18 
REMARK       I    between atoms: C_18  and  N_19 
REMARK    5  A    between atoms: N_19  and  C_20 
ROOT
HETATM    1  N   UNL     1      18.544  49.779  48.622  1.00  0.00    -0.292 N 
HETATM    2  C   UNL     1      18.232  48.452  48.994  1.00  0.00     0.179 C 
HETATM    3  S   UNL     1      16.752  47.659  48.887  1.00  0.00    -0.040 SA
HETATM    4  N   UNL     1      19.255  47.707  49.512  1.00  0.00    -0.354 N 
HETATM    5  C   UNL     1      20.657  47.964  49.274  1.00  0.00     0.158 C 
HETATM    6  C   UNL     1      20.873  49.427  49.041  1.00  0.00     0.060 C 
HETATM    7  C   UNL     1      19.869  50.274  48.711  1.00  0.00     0.030 C 
HETATM    8  C   UNL     1      20.096  51.748  48.430  1.00  0.00     0.070 C 
HETATM    9  H   UNL     1      19.005  46.743  49.697  1.00  0.00     0.163 HD
ENDROOT
BRANCH   6  10
HETATM   10  C   UNL     1      22.302  49.847  49.190  1.00  0.00     0.257 C 
HETATM   11  N   UNL     1      23.081  49.567  48.089  1.00  0.00    -0.306 N 
HETATM   12  H   UNL     1      22.660  49.151  47.272  1.00  0.00     0.170 HD
HETATM   13  O   UNL     1      22.656  50.415  50.214  1.00  0.00    -0.267 OA
BRANCH  11  14
HETATM   14  C   UNL     1      24.465  49.635  48.102  1.00  0.00     0.160 A 
HETATM   15  N   UNL     1      25.214  50.468  47.375  1.00  0.00    -0.110 NA
HETATM   16  O   UNL     1      26.520  50.264  47.765  1.00  0.00    -0.216 OA
HETATM   17  C   UNL     1      26.557  49.313  48.731  1.00  0.00     0.078 A 
HETATM   18  C   UNL     1      27.882  49.020  49.304  1.00  0.00     0.079 C 
HETATM   19  C   UNL     1      25.283  48.854  48.956  1.00  0.00     0.087 A 
ENDBRANCH  11  14
ENDBRANCH   6  10
BRANCH   5  20
HETATM   20  C   UNL     1      21.164  47.025  48.190  1.00  0.00    -0.031 A 
HETATM   21  C   UNL     1      20.655  47.055  46.881  1.00  0.00     0.012 A 
HETATM   22  C   UNL     1      21.128  46.170  45.908  1.00  0.00     0.037 A 
HETATM   23  C   UNL     1      22.107  45.241  46.243  1.00  0.00     0.065 A 
HETATM   24  C   UNL     1      22.616  45.181  47.532  1.00  0.00     0.037 A 
HETATM   25  C   UNL     1      22.148  46.068  48.504  1.00  0.00     0.012 A 
BRANCH  23  26
HETATM   26  O   UNL     1      22.598  44.362  45.324  1.00  0.00    -0.361 OA
HETATM   27  H   UNL     1      21.986  43.611  45.263  1.00  0.00     0.217 HD
ENDBRANCH  23  26
ENDBRANCH   5  20
BRANCH   1  28
HETATM   28  C   UNL     1      17.453  50.659  48.287  1.00  0.00     0.048 A 
HETATM   29  C   UNL     1      16.781  51.306  49.343  1.00  0.00     0.037 A 
HETATM   30  C   UNL     1      15.703  52.164  49.099  1.00  0.00    -0.060 A 
HETATM   31  C   UNL     1      14.979  52.810  50.243  1.00  0.00     0.048 C 
HETATM   32  C   UNL     1      15.336  52.424  47.779  1.00  0.00     0.007 A 
HETATM   33  C   UNL     1      15.996  51.791  46.723  1.00  0.00     0.009 A 
HETATM   34  C   UNL     1      17.041  50.883  46.960  1.00  0.00    -0.035 A 
HETATM   35  C   UNL     1      17.644  50.188  45.770  1.00  0.00     0.050 C 
ENDBRANCH   1  28
TORSDOF 5
ENDMDL
MODEL 2
REMARK VINA RESULT:      -8.5      0.633      1.667
REMARK  5 active torsions:
REMARK  status: ('A' for Active; 'I' for Inactive)
REMARK    1  A    between atoms: C_4  and  N_5 
REMARK    2  A    between atoms: C_9  and  C_10 
REMARK    3  A    between atoms: C_13  and  O_14 
REMARK    4  A    between atoms: C_17  and  C_18 
REMARK       I    between atoms: C_18  and  N_19 
REMARK    5  A    between atoms: N_19  and  C_20 
ROOT
HETATM    1  N   UNL     1      18.407  49.941  48.142  1.00  0.00    -0.292 N 
HETATM    2  C   UNL     1      18.012  48.642  48.532  1.00  0.00     0.179 C 
HETATM    3  S   UNL     1      16.512  47.906  48.338  1.00  0.00    -0.040 SA
HETATM    4  N   UNL     1      18.960  47.877  49.155  1.00  0.00    -0.354 N 
HETATM    5  C   UNL     1      20.386  48.069  49.018  1.00  0.00     0.158 C 
HETATM    6  C   UNL     1      20.681  49.513  48.752  1.00  0.00     0.060 C 
HETATM    7  C   UNL     1      19.742  50.386  48.316  1.00  0.00     0.030 C 
HETATM    8  C   UNL     1      20.052  51.839  48.004  1.00  0.00     0.070 C 
HETATM    9  H   UNL     1      18.655  46.931  49.352  1.00  0.00     0.163 HD
ENDROOT
BRANCH   6  10
HETATM   10  C   UNL     1      22.110  49.881  48.998  1.00  0.00     0.257 C 
HETATM   11  N   UNL     1      22.947  49.598  47.940  1.00  0.00    -0.306 N 
HETATM   12  H   UNL     1      22.564  49.213  47.091  1.00  0.00     0.170 HD
HETATM   13  O   UNL     1      22.419  50.416  50.054  1.00  0.00    -0.267 OA
BRANCH  11  14
HETATM   14  C   UNL     1      24.328  49.618  48.040  1.00  0.00     0.160 A 
HETATM   15  N   UNL     1      25.150  50.412  47.348  1.00  0.00    -0.110 NA
HETATM   16  O   UNL     1      26.422  50.170  47.823  1.00  0.00    -0.216 OA
HETATM   17  C   UNL     1      26.365  49.237  48.805  1.00  0.00     0.078 A 
HETATM   18  C   UNL     1      27.640  48.910  49.465  1.00  0.00     0.079 C 
HETATM   19  C   UNL     1      25.063  48.826  48.957  1.00  0.00     0.087 A 
ENDBRANCH  11  14
ENDBRANCH   6  10
BRANCH   5  20
HETATM   20  C   UNL     1      20.934  47.071  48.009  1.00  0.00    -0.031 A 
HETATM   21  C   UNL     1      20.472  47.023  46.683  1.00  0.00     0.012 A 
HETATM   22  C   UNL     1      20.982  46.085  45.781  1.00  0.00     0.037 A 
HETATM   23  C   UNL     1      21.951  45.182  46.204  1.00  0.00     0.065 A 
HETATM   24  C   UNL     1      22.414  45.200  47.513  1.00  0.00     0.037 A 
HETATM   25  C   UNL     1      21.908  46.140  48.413  1.00  0.00     0.012 A 
BRANCH  23  26
HETATM   26  O   UNL     1      22.477  44.253  45.357  1.00  0.00    -0.361 OA
HETATM   27  H   UNL     1      22.744  44.702  44.539  1.00  0.00     0.217 HD
ENDBRANCH  23  26
ENDBRANCH   5  20
BRANCH   1  28
HETATM   28  C   UNL     1      17.384  50.851  47.693  1.00  0.00     0.048 A 
HETATM   29  C   UNL     1      17.096  50.890  46.315  1.00  0.00     0.037 A 
HETATM   30  C   UNL     1      16.126  51.757  45.800  1.00  0.00    -0.060 A 
HETATM   31  C   UNL     1      15.867  51.808  44.323  1.00  0.00     0.048 C 
HETATM   32  C   UNL     1      15.393  52.547  46.686  1.00  0.00     0.007 A 
HETATM   33  C   UNL     1      15.666  52.515  48.054  1.00  0.00     0.009 A 
HETATM   34  C   UNL     1      16.678  51.691  48.575  1.00  0.00    -0.035 A 
HETATM   35  C   UNL     1      16.958  51.777  50.049  1.00  0.00     0.050 C 
ENDBRANCH   1  28
TORSDOF 5
ENDMDL
MODEL 3
REMARK VINA RESULT:      -8.3     12.184     16.111
REMARK  5 active torsions:
REMARK  status: ('A' for Active; 'I' for Inactive)
REMARK    1  A    between atoms: C_4  and  N_5 
REMARK    2  A    between atoms: C_9  and  C_10 
REMARK    3  A    between atoms: C_13  and  O_14 
REMARK    4  A    between atoms: C_17  and  C_18 
REMARK       I    between atoms: C_18  and  N_19 
REMARK    5  A    between atoms: N_19  and  C_20 
ROOT
HETATM    1  N   UNL     1      32.457  51.312  40.735  1.00  0.00    -0.292 N 
HETATM    2  C   UNL     1      32.886  51.271  39.389  1.00  0.00     0.179 C 
HETATM    3  S   UNL     1      31.950  51.348  37.994  1.00  0.00    -0.040 SA
HETATM    4  N   UNL     1      34.232  51.146  39.182  1.00  0.00    -0.354 N 
HETATM    5  C   UNL     1      35.247  51.529  40.138  1.00  0.00     0.158 C 
HETATM    6  C   UNL     1      34.713  51.387  41.529  1.00  0.00     0.060 C 
HETATM    7  C   UNL     1      33.389  51.307  41.804  1.00  0.00     0.030 C 
HETATM    8  C   UNL     1      32.847  51.209  43.217  1.00  0.00     0.070 C 
HETATM    9  H   UNL     1      34.500  51.193  38.206  1.00  0.00     0.163 HD
ENDROOT
BRANCH   6  10
HETATM   10  C   UNL     1      35.783  51.362  42.575  1.00  0.00     0.257 C 
HETATM   11  N   UNL     1      35.804  52.483  43.376  1.00  0.00    -0.306 N 
HETATM   12  H   UNL     1      35.111  53.203  43.244  1.00  0.00     0.170 HD
HETATM   13  O   UNL     1      36.507  50.380  42.668  1.00  0.00    -0.267 OA
BRANCH  11  14
HETATM   14  C   UNL     1      36.852  52.785  44.230  1.00  0.00     0.160 A 
HETATM   15  N   UNL     1      37.208  52.083  45.309  1.00  0.00    -0.110 NA
HETATM   16  O   UNL     1      38.348  52.679  45.806  1.00  0.00    -0.216 OA
HETATM   17  C   UNL     1      38.682  53.734  45.022  1.00  0.00     0.078 A 
HETATM   18  C   UNL     1      39.920  54.445  45.382  1.00  0.00     0.079 C 
HETATM   19  C   UNL     1      37.743  53.868  44.029  1.00  0.00     0.087 A 
ENDBRANCH  11  14
ENDBRANCH   6  10
BRANCH   5  20
HETATM   20  C   UNL     1      35.802  52.894  39.763  1.00  0.00    -0.031 A 
HETATM   21  C   UNL     1      34.969  53.951  39.358  1.00  0.00     0.012 A 
HETATM   22  C   UNL     1      35.508  55.191  39.004  1.00  0.00     0.037 A 
HETATM   23  C   UNL     1      36.885  55.378  39.043  1.00  0.00     0.065 A 
HETATM   24  C   UNL     1      37.731  54.347  39.427  1.00  0.00     0.037 A 
HETATM   25  C   UNL     1      37.193  53.108  39.785  1.00  0.00     0.012 A 
BRANCH  23  26
HETATM   26  O   UNL     1      37.451  56.572  38.709  1.00  0.00    -0.361 OA
HETATM   27  H   UNL     1      37.878  56.940  39.500  1.00  0.00     0.217 HD
ENDBRANCH  23  26
ENDBRANCH   5  20
BRANCH   1  28
HETATM   28  C   UNL     1      31.043  51.214  40.995  1.00  0.00     0.048 A 
HETATM   29  C   UNL     1      30.490  49.929  41.153  1.00  0.00     0.037 A 
HETATM   30  C   UNL     1      29.123  49.751  41.394  1.00  0.00    -0.060 A 
HETATM   31  C   UNL     1      28.552  48.370  41.519  1.00  0.00     0.048 C 
HETATM   32  C   UNL     1      28.314  50.878  41.539  1.00  0.00     0.007 A 
HETATM   33  C   UNL     1      28.850  52.158  41.387  1.00  0.00     0.009 A 
HETATM   34  C   UNL     1      30.211  52.346  41.088  1.00  0.00    -0.035 A 
HETATM   35  C   UNL     1      30.687  53.754  40.864  1.00  0.00     0.050 C 
ENDBRANCH   1  28
TORSDOF 5
ENDMDL
MODEL 4
REMARK VINA RESULT:      -7.7      6.177     11.082
REMARK  5 active torsions:
REMARK  status: ('A' for Active; 'I' for Inactive)
REMARK    1  A    between atoms: C_4  and  N_5 
REMARK    2  A    between atoms: C_9  and  C_10 
REMARK    3  A    between atoms: C_13  and  O_14 
REMARK    4  A    between atoms: C_17  and  C_18 
REMARK       I    between atoms: C_18  and  N_19 
REMARK    5  A    between atoms: N_19  and  C_20 
ROOT
HETATM    1  N   UNL     1      26.289  41.085  49.942  1.00  0.00    -0.292 N 
HETATM    2  C   UNL     1      26.898  41.625  51.097  1.00  0.00     0.179 C 
HETATM    3  S   UNL     1      28.427  41.299  51.720  1.00  0.00    -0.040 SA
HETATM    4  N   UNL     1      26.158  42.525  51.813  1.00  0.00    -0.354 N 
HETATM    5  C   UNL     1      25.072  43.309  51.269  1.00  0.00     0.158 C 
HETATM    6  C   UNL     1      24.417  42.561  50.150  1.00  0.00     0.060 C 
HETATM    7  C   UNL     1      25.010  41.523  49.513  1.00  0.00     0.030 C 
HETATM    8  C   UNL     1      24.365  40.794  48.349  1.00  0.00     0.070 C 
HETATM    9  H   UNL     1      26.660  42.939  52.590  1.00  0.00     0.163 HD
ENDROOT
BRANCH   6  10
HETATM   10  C   UNL     1      23.060  43.086  49.799  1.00  0.00     0.257 C 
HETATM   11  N   UNL     1      23.026  43.791  48.616  1.00  0.00    -0.306 N 
HETATM   12  H   UNL     1      23.864  43.877  48.062  1.00  0.00     0.170 HD
HETATM   13  O   UNL     1      22.113  42.836  50.532  1.00  0.00    -0.267 OA
BRANCH  11  14
HETATM   14  C   UNL     1      21.949  44.572  48.229  1.00  0.00     0.160 A 
HETATM   15  N   UNL     1      20.813  44.123  47.687  1.00  0.00    -0.110 NA
HETATM   16  O   UNL     1      19.987  45.218  47.547  1.00  0.00    -0.216 OA
HETATM   17  C   UNL     1      20.621  46.323  48.012  1.00  0.00     0.078 A 
HETATM   18  C   UNL     1      19.845  47.574  47.992  1.00  0.00     0.079 C 
HETATM   19  C   UNL     1      21.884  45.974  48.422  1.00  0.00     0.087 A 
ENDBRANCH  11  14
ENDBRANCH   6  10
BRANCH   5  20
HETATM   20  C   UNL     1      25.574  44.708  50.944  1.00  0.00    -0.031 A 
HETATM   21  C   UNL     1      25.131  45.839  51.649  1.00  0.00     0.012 A 
HETATM   22  C   UNL     1      25.597  47.115  51.320  1.00  0.00     0.037 A 
HETATM   23  C   UNL     1      26.501  47.267  50.274  1.00  0.00     0.065 A 
HETATM   24  C   UNL     1      26.943  46.167  49.553  1.00  0.00     0.037 A 
HETATM   25  C   UNL     1      26.481  44.891  49.885  1.00  0.00     0.012 A 
BRANCH  23  26
HETATM   26  O   UNL     1      26.983  48.492  49.921  1.00  0.00    -0.361 OA
HETATM   27  H   UNL     1      27.631  48.769  50.588  1.00  0.00     0.217 HD
ENDBRANCH  23  26
ENDBRANCH   5  20
BRANCH   1  28
HETATM   28  C   UNL     1      26.940  39.974  49.294  1.00  0.00     0.048 A 
HETATM   29  C   UNL     1      26.823  38.704  49.890  1.00  0.00     0.037 A 
HETATM   30  C   UNL     1      27.438  37.579  49.328  1.00  0.00    -0.060 A 
HETATM   31  C   UNL     1      27.331  36.245  50.004  1.00  0.00     0.048 C 
HETATM   32  C   UNL     1      28.125  37.721  48.122  1.00  0.00     0.007 A 
HETATM   33  C   UNL     1      28.245  38.974  47.520  1.00  0.00     0.009 A 
HETATM   34  C   UNL     1      27.680  40.120  48.106  1.00  0.00    -0.035 A 
HETATM   35  C   UNL     1      27.925  41.441  47.430  1.00  0.00     0.050 C 
ENDBRANCH   1  28
TORSDOF 5
ENDMDL
MODEL 5
REMARK VINA RESULT:      -7.5      2.245      2.891
REMARK  5 active torsions:
REMARK  status: ('A' for Active; 'I' for Inactive)
REMARK    1  A    between atoms: C_4  and  N_5 
REMARK    2  A    between atoms: C_9  and  C_10 
REMARK    3  A    between atoms: C_13  and  O_14 
REMARK    4  A    between atoms: C_17  and  C_18 
REMARK       I    between atoms: C_18  and  N_19 
REMARK    5  A    between atoms: N_19  and  C_20 
ROOT
HETATM    1  N   UNL     1      16.752  50.388  47.002  1.00  0.00    -0.292 N 
HETATM    2  C   UNL     1      15.950  49.224  47.023  1.00  0.00     0.179 C 
HETATM    3  S   UNL     1      14.522  48.927  46.185  1.00  0.00    -0.040 SA
HETATM    4  N   UNL     1      16.377  48.204  47.828  1.00  0.00    -0.354 N 
HETATM    5  C   UNL     1      17.745  48.014  48.253  1.00  0.00     0.158 C 
HETATM    6  C   UNL     1      18.441  49.336  48.333  1.00  0.00     0.060 C 
HETATM    7  C   UNL     1      17.974  50.450  47.718  1.00  0.00     0.030 C 
HETATM    8  C   UNL     1      18.704  51.780  47.762  1.00  0.00     0.070 C 
HETATM    9  H   UNL     1      15.812  47.365  47.756  1.00  0.00     0.163 HD
ENDROOT
BRANCH   6  10
HETATM   10  C   UNL     1      19.702  49.296  49.137  1.00  0.00     0.257 C 
HETATM   11  N   UNL     1      20.843  49.171  48.375  1.00  0.00    -0.306 N 
HETATM   12  H   UNL     1      20.772  49.152  47.370  1.00  0.00     0.170 HD
HETATM   13  O   UNL     1      19.641  49.408  50.354  1.00  0.00    -0.267 OA
BRANCH  11  14
HETATM   14  C   UNL     1      22.083  48.862  48.911  1.00  0.00     0.160 A 
HETATM   15  N   UNL     1      22.889  49.710  49.556  1.00  0.00    -0.110 NA
HETATM   16  O   UNL     1      23.964  48.969  49.998  1.00  0.00    -0.216 OA
HETATM   17  C   UNL     1      23.802  47.675  49.627  1.00  0.00     0.078 A 
HETATM   18  C   UNL     1      24.840  46.734  50.080  1.00  0.00     0.079 C 
HETATM   19  C   UNL     1      22.641  47.560  48.902  1.00  0.00     0.087 A 
ENDBRANCH  11  14
ENDBRANCH   6  10
BRANCH   5  20
HETATM   20  C   UNL     1      18.402  46.956  47.379  1.00  0.00    -0.031 A 
HETATM   21  C   UNL     1      18.843  47.237  46.075  1.00  0.00     0.012 A 
HETATM   22  C   UNL     1      19.429  46.242  45.288  1.00  0.00     0.037 A 
HETATM   23  C   UNL     1      19.567  44.956  45.797  1.00  0.00     0.065 A 
HETATM   24  C   UNL     1      19.127  44.649  47.077  1.00  0.00     0.037 A 
HETATM   25  C   UNL     1      18.545  45.644  47.866  1.00  0.00     0.012 A 
BRANCH  23  26
HETATM   26  O   UNL     1      20.136  43.957  45.064  1.00  0.00    -0.361 OA
HETATM   27  H   UNL     1      19.906  44.094  44.131  1.00  0.00     0.217 HD
ENDBRANCH  23  26
ENDBRANCH   5  20
BRANCH   1  28
HETATM   28  C   UNL     1      16.223  51.559  46.350  1.00  0.00     0.048 A 
HETATM   29  C   UNL     1      15.315  52.360  47.070  1.00  0.00     0.037 A 
HETATM   30  C   UNL     1      14.748  53.505  46.501  1.00  0.00    -0.060 A 
HETATM   31  C   UNL     1      13.753  54.319  47.275  1.00  0.00     0.048 C 
HETATM   32  C   UNL     1      15.144  53.885  45.218  1.00  0.00     0.007 A 
HETATM   33  C   UNL     1      16.045  53.101  44.495  1.00  0.00     0.009 A 
HETATM   34  C   UNL     1      16.576  51.918  45.036  1.00  0.00    -0.035 A 
HETATM   35  C   UNL     1      17.479  51.095  44.159  1.00  0.00     0.050 C 
ENDBRANCH   1  28
TORSDOF 5
ENDMDL
MODEL 6
REMARK VINA RESULT:      -7.5     10.407     13.174
REMARK  5 active torsions:
REMARK  status: ('A' for Active; 'I' for Inactive)
REMARK    1  A    between atoms: C_4  and  N_5 
REMARK    2  A    between atoms: C_9  and  C_10 
REMARK    3  A    between atoms: C_13  and  O_14 
REMARK    4  A    between atoms: C_17  and  C_18 
REMARK       I    between atoms: C_18  and  N_19 
REMARK    5  A    between atoms: N_19  and  C_20 
ROOT
HETATM    1  N   UNL     1      29.263  49.800  40.257  1.00  0.00    -0.292 N 
HETATM    2  C   UNL     1      28.132  50.390  40.866  1.00  0.00     0.179 C 
HETATM    3  S   UNL     1      27.925  51.986  41.354  1.00  0.00    -0.040 SA
HETATM    4  N   UNL     1      27.064  49.567  41.097  1.00  0.00    -0.354 N 
HETATM    5  C   UNL     1      26.804  48.342  40.376  1.00  0.00     0.158 C 
HETATM    6  C   UNL     1      28.094  47.740  39.912  1.00  0.00     0.060 C 
HETATM    7  C   UNL     1      29.248  48.445  39.838  1.00  0.00     0.030 C 
HETATM    8  C   UNL     1      30.545  47.847  39.326  1.00  0.00     0.070 C 
HETATM    9  H   UNL     1      26.253  50.047  41.467  1.00  0.00     0.163 HD
ENDROOT
BRANCH   6  10
HETATM   10  C   UNL     1      27.972  46.300  39.524  1.00  0.00     0.257 C 
HETATM   11  N   UNL     1      27.872  45.443  40.598  1.00  0.00    -0.306 N 
HETATM   12  H   UNL     1      27.851  45.816  41.534  1.00  0.00     0.170 HD
HETATM   13  O   UNL     1      27.934  46.000  38.339  1.00  0.00    -0.267 OA
BRANCH  11  14
HETATM   14  C   UNL     1      28.006  44.068  40.485  1.00  0.00     0.160 A 
HETATM   15  N   UNL     1      28.901  43.430  39.727  1.00  0.00    -0.110 NA
HETATM   16  O   UNL     1      28.745  42.085  39.984  1.00  0.00    -0.216 OA
HETATM   17  C   UNL     1      27.761  41.914  40.903  1.00  0.00     0.078 A 
HETATM   18  C   UNL     1      27.511  40.529  41.337  1.00  0.00     0.079 C 
HETATM   19  C   UNL     1      27.233  43.139  41.226  1.00  0.00     0.087 A 
ENDBRANCH  11  14
ENDBRANCH   6  10
BRANCH   5  20
HETATM   20  C   UNL     1      25.756  48.602  39.304  1.00  0.00    -0.031 A 
HETATM   21  C   UNL     1      26.105  49.003  38.003  1.00  0.00     0.012 A 
HETATM   22  C   UNL     1      25.121  49.251  37.042  1.00  0.00     0.037 A 
HETATM   23  C   UNL     1      23.780  49.110  37.380  1.00  0.00     0.065 A 
HETATM   24  C   UNL     1      23.408  48.728  38.662  1.00  0.00     0.037 A 
HETATM   25  C   UNL     1      24.391  48.476  39.622  1.00  0.00     0.012 A 
BRANCH  23  26
HETATM   26  O   UNL     1      22.789  49.338  36.473  1.00  0.00    -0.361 OA
HETATM   27  H   UNL     1      23.146  49.180  35.584  1.00  0.00     0.217 HD
ENDBRANCH  23  26
ENDBRANCH   5  20
BRANCH   1  28
HETATM   28  C   UNL     1      30.479  50.571  40.204  1.00  0.00     0.048 A 
HETATM   29  C   UNL     1      31.331  50.534  41.325  1.00  0.00     0.037 A 
HETATM   30  C   UNL     1      32.523  51.267  41.354  1.00  0.00    -0.060 A 
HETATM   31  C   UNL     1      33.393  51.242  42.576  1.00  0.00     0.048 C 
HETATM   32  C   UNL     1      32.893  51.995  40.223  1.00  0.00     0.007 A 
HETATM   33  C   UNL     1      32.058  52.037  39.105  1.00  0.00     0.009 A 
HETATM   34  C   UNL     1      30.832  51.352  39.087  1.00  0.00    -0.035 A 
HETATM   35  C   UNL     1      29.960  51.515  37.873  1.00  0.00     0.050 C 
ENDBRANCH   1  28
TORSDOF 5
ENDMDL
MODEL 7
REMARK VINA RESULT:      -7.4     23.517     25.616
REMARK  5 active torsions:
REMARK  status: ('A' for Active; 'I' for Inactive)
REMARK    1  A    between atoms: C_4  and  N_5 
REMARK    2  A    between atoms: C_9  and  C_10 
REMARK    3  A    between atoms: C_13  and  O_14 
REMARK    4  A    between atoms: C_17  and  C_18 
REMARK       I    between atoms: C_18  and  N_19 
REMARK    5  A    between atoms: N_19  and  C_20 
ROOT
HETATM    1  N   UNL     1      37.758  43.701  64.861  1.00  0.00    -0.292 N 
HETATM    2  C   UNL     1      36.400  43.402  65.114  1.00  0.00     0.179 C 
HETATM    3  S   UNL     1      35.703  41.903  65.427  1.00  0.00    -0.040 SA
HETATM    4  N   UNL     1      35.530  44.457  65.100  1.00  0.00    -0.354 N 
HETATM    5  C   UNL     1      35.908  45.833  65.329  1.00  0.00     0.158 C 
HETATM    6  C   UNL     1      37.320  46.054  64.883  1.00  0.00     0.060 C 
HETATM    7  C   UNL     1      38.195  45.038  64.685  1.00  0.00     0.030 C 
HETATM    8  C   UNL     1      39.638  45.265  64.277  1.00  0.00     0.070 C 
HETATM    9  H   UNL     1      34.582  44.208  65.356  1.00  0.00     0.163 HD
ENDROOT
BRANCH   6  10
HETATM   10  C   UNL     1      37.666  47.498  64.699  1.00  0.00     0.257 C 
HETATM   11  N   UNL     1      38.363  48.041  65.755  1.00  0.00    -0.306 N 
HETATM   12  H   UNL     1      38.621  47.458  66.536  1.00  0.00     0.170 HD
HETATM   13  O   UNL     1      37.353  48.061  63.659  1.00  0.00    -0.267 OA
BRANCH  11  14
HETATM   14  C   UNL     1      38.562  49.403  65.912  1.00  0.00     0.160 A 
HETATM   15  N   UNL     1      39.592  50.104  65.429  1.00  0.00    -0.110 NA
HETATM   16  O   UNL     1      39.345  51.425  65.734  1.00  0.00    -0.216 OA
HETATM   17  C   UNL     1      38.164  51.521  66.394  1.00  0.00     0.078 A 
HETATM   18  C   UNL     1      37.722  52.883  66.740  1.00  0.00     0.079 C 
HETATM   19  C   UNL     1      37.644  50.262  66.566  1.00  0.00     0.087 A 
ENDBRANCH  11  14
ENDBRANCH   6  10
BRANCH   5  20
HETATM   20  C   UNL     1      35.588  46.210  66.768  1.00  0.00    -0.031 A 
HETATM   21  C   UNL     1      35.619  45.266  67.809  1.00  0.00     0.012 A 
HETATM   22  C   UNL     1      35.305  45.636  69.120  1.00  0.00     0.037 A 
HETATM   23  C   UNL     1      34.947  46.951  69.395  1.00  0.00     0.065 A 
HETATM   24  C   UNL     1      34.895  47.899  68.383  1.00  0.00     0.037 A 
HETATM   25  C   UNL     1      35.214  47.531  67.073  1.00  0.00     0.012 A 
BRANCH  23  26
HETATM   26  O   UNL     1      34.636  47.355  70.659  1.00  0.00    -0.361 OA
HETATM   27  H   UNL     1      34.132  46.647  71.091  1.00  0.00     0.217 HD
ENDBRANCH  23  26
ENDBRANCH   5  20
BRANCH   1  28
HETATM   28  C   UNL     1      38.661  42.600  64.644  1.00  0.00     0.048 A 
HETATM   29  C   UNL     1      38.569  41.903  63.423  1.00  0.00     0.037 A 
HETATM   30  C   UNL     1      39.402  40.814  63.144  1.00  0.00    -0.060 A 
HETATM   31  C   UNL     1      39.257  40.065  61.853  1.00  0.00     0.048 C 
HETATM   32  C   UNL     1      40.380  40.459  64.074  1.00  0.00     0.007 A 
HETATM   33  C   UNL     1      40.483  41.144  65.287  1.00  0.00     0.009 A 
HETATM   34  C   UNL     1      39.613  42.202  65.602  1.00  0.00    -0.035 A 
HETATM   35  C   UNL     1      39.744  42.831  66.961  1.00  0.00     0.050 C 
ENDBRANCH   1  28
TORSDOF 5
ENDMDL
MODEL 8
REMARK VINA RESULT:      -7.3      9.167     12.119
REMARK  5 active torsions:
REMARK  status: ('A' for Active; 'I' for Inactive)
REMARK    1  A    between atoms: C_4  and  N_5 
REMARK    2  A    between atoms: C_9  and  C_10 
REMARK    3  A    between atoms: C_13  and  O_14 
REMARK    4  A    between atoms: C_17  and  C_18 
REMARK       I    between atoms: C_18  and  N_19 
REMARK    5  A    between atoms: N_19  and  C_20 
ROOT
HETATM    1  N   UNL     1      26.050  47.153  39.062  1.00  0.00    -0.292 N 
HETATM    2  C   UNL     1      25.604  48.275  38.328  1.00  0.00     0.179 C 
HETATM    3  S   UNL     1      24.023  48.732  37.979  1.00  0.00    -0.040 SA
HETATM    4  N   UNL     1      26.573  49.100  37.826  1.00  0.00    -0.354 N 
HETATM    5  C   UNL     1      27.912  49.208  38.358  1.00  0.00     0.158 C 
HETATM    6  C   UNL     1      28.319  47.908  38.978  1.00  0.00     0.060 C 
HETATM    7  C   UNL     1      27.428  46.950  39.328  1.00  0.00     0.030 C 
HETATM    8  C   UNL     1      27.837  45.651  39.997  1.00  0.00     0.070 C 
HETATM    9  H   UNL     1      26.207  49.928  37.370  1.00  0.00     0.163 HD
ENDROOT
BRANCH   6  10
HETATM   10  C   UNL     1      29.796  47.786  39.186  1.00  0.00     0.257 C 
HETATM   11  N   UNL     1      30.193  47.991  40.489  1.00  0.00    -0.306 N 
HETATM   12  H   UNL     1      29.500  48.165  41.200  1.00  0.00     0.170 HD
HETATM   13  O   UNL     1      30.512  47.492  38.238  1.00  0.00    -0.267 OA
BRANCH  11  14
HETATM   14  C   UNL     1      31.515  48.176  40.859  1.00  0.00     0.160 A 
HETATM   15  N   UNL     1      32.452  47.225  40.915  1.00  0.00    -0.110 NA
HETATM   16  O   UNL     1      33.634  47.858  41.234  1.00  0.00    -0.216 OA
HETATM   17  C   UNL     1      33.411  49.190  41.363  1.00  0.00     0.078 A 
HETATM   18  C   UNL     1      34.594  50.022  41.642  1.00  0.00     0.079 C 
HETATM   19  C   UNL     1      32.075  49.440  41.171  1.00  0.00     0.087 A 
ENDBRANCH  11  14
ENDBRANCH   6  10
BRANCH   5  20
HETATM   20  C   UNL     1      28.002  50.439  39.249  1.00  0.00    -0.031 A 
HETATM   21  C   UNL     1      28.673  51.604  38.842  1.00  0.00     0.012 A 
HETATM   22  C   UNL     1      28.754  52.715  39.687  1.00  0.00     0.037 A 
HETATM   23  C   UNL     1      28.172  52.661  40.949  1.00  0.00     0.065 A 
HETATM   24  C   UNL     1      27.516  51.517  41.380  1.00  0.00     0.037 A 
HETATM   25  C   UNL     1      27.430  50.409  40.534  1.00  0.00     0.012 A 
BRANCH  23  26
HETATM   26  O   UNL     1      28.225  53.722  41.803  1.00  0.00    -0.361 OA
HETATM   27  H   UNL     1      27.325  53.910  42.114  1.00  0.00     0.217 HD
ENDBRANCH  23  26
ENDBRANCH   5  20
BRANCH   1  28
HETATM   28  C   UNL     1      25.079  46.146  39.410  1.00  0.00     0.048 A 
HETATM   29  C   UNL     1      24.475  46.226  40.679  1.00  0.00     0.037 A 
HETATM   30  C   UNL     1      23.533  45.277  41.096  1.00  0.00    -0.060 A 
HETATM   31  C   UNL     1      22.933  45.362  42.468  1.00  0.00     0.048 C 
HETATM   32  C   UNL     1      23.150  44.275  40.205  1.00  0.00     0.007 A 
HETATM   33  C   UNL     1      23.741  44.187  38.942  1.00  0.00     0.009 A 
HETATM   34  C   UNL     1      24.729  45.100  38.537  1.00  0.00    -0.035 A 
HETATM   35  C   UNL     1      25.366  44.884  37.192  1.00  0.00     0.050 C 
ENDBRANCH   1  28
TORSDOF 5
ENDMDL
MODEL 9
REMARK VINA RESULT:      -7.0      6.546     11.544
REMARK  5 active torsions:
REMARK  status: ('A' for Active; 'I' for Inactive)
REMARK    1  A    between atoms: C_4  and  N_5 
REMARK    2  A    between atoms: C_9  and  C_10 
REMARK    3  A    between atoms: C_13  and  O_14 
REMARK    4  A    between atoms: C_17  and  C_18 
REMARK       I    between atoms: C_18  and  N_19 
REMARK    5  A    between atoms: N_19  and  C_20 
ROOT
HETATM    1  N   UNL     1      26.441  40.294  47.406  1.00  0.00    -0.292 N 
HETATM    2  C   UNL     1      27.013  40.271  48.698  1.00  0.00     0.179 C 
HETATM    3  S   UNL     1      28.578  39.838  49.138  1.00  0.00    -0.040 SA
HETATM    4  N   UNL     1      26.198  40.641  49.733  1.00  0.00    -0.354 N 
HETATM    5  C   UNL     1      25.029  41.478  49.594  1.00  0.00     0.158 C 
HETATM    6  C   UNL     1      24.433  41.299  48.233  1.00  0.00     0.060 C 
HETATM    7  C   UNL     1      25.117  40.757  47.197  1.00  0.00     0.030 C 
HETATM    8  C   UNL     1      24.528  40.616  45.806  1.00  0.00     0.070 C 
HETATM    9  H   UNL     1      26.669  40.678  50.629  1.00  0.00     0.163 HD
ENDROOT
BRANCH   6  10
HETATM   10  C   UNL     1      23.024  41.792  48.132  1.00  0.00     0.257 C 
HETATM   11  N   UNL     1      22.912  43.042  47.564  1.00  0.00    -0.306 N 
HETATM   12  H   UNL     1      23.738  43.515  47.232  1.00  0.00     0.170 HD
HETATM   13  O   UNL     1      22.108  41.073  48.509  1.00  0.00    -0.267 OA
BRANCH  11  14
HETATM   14  C   UNL     1      21.747  43.792  47.603  1.00  0.00     0.160 A 
HETATM   15  N   UNL     1      20.592  43.472  47.013  1.00  0.00    -0.110 NA
HETATM   16  O   UNL     1      19.682  44.438  47.385  1.00  0.00    -0.216 OA
HETATM   17  C   UNL     1      20.286  45.335  48.203  1.00  0.00     0.078 A 
HETATM   18  C   UNL     1      19.428  46.403  48.743  1.00  0.00     0.079 C 
HETATM   19  C   UNL     1      21.608  44.991  48.344  1.00  0.00     0.087 A 
ENDBRANCH  11  14
ENDBRANCH   6  10
BRANCH   5  20
HETATM   20  C   UNL     1      25.380  42.903  49.995  1.00  0.00    -0.031 A 
HETATM   21  C   UNL     1      26.494  43.573  49.463  1.00  0.00     0.012 A 
HETATM   22  C   UNL     1      26.803  44.877  49.861  1.00  0.00     0.037 A 
HETATM   23  C   UNL     1      26.004  45.515  50.803  1.00  0.00     0.065 A 
HETATM   24  C   UNL     1      24.905  44.870  51.355  1.00  0.00     0.037 A 
HETATM   25  C   UNL     1      24.594  43.569  50.954  1.00  0.00     0.012 A 
BRANCH  23  26
HETATM   26  O   UNL     1      26.267  46.787  51.217  1.00  0.00    -0.361 OA
HETATM   27  H   UNL     1      27.117  47.061  50.838  1.00  0.00     0.217 HD
ENDBRANCH  23  26
ENDBRANCH   5  20
BRANCH   1  28
HETATM   28  C   UNL     1      27.189  39.700  46.327  1.00  0.00     0.048 A 
HETATM   29  C   UNL     1      27.884  40.561  45.456  1.00  0.00     0.037 A 
HETATM   30  C   UNL     1      28.621  40.061  44.376  1.00  0.00    -0.060 A 
HETATM   31  C   UNL     1      29.320  41.002  43.440  1.00  0.00     0.048 C 
HETATM   32  C   UNL     1      28.712  38.680  44.207  1.00  0.00     0.007 A 
HETATM   33  C   UNL     1      28.030  37.815  45.065  1.00  0.00     0.009 A 
HETATM   34  C   UNL     1      27.240  38.309  46.117  1.00  0.00    -0.035 A 
HETATM   35  C   UNL     1      26.478  37.311  46.944  1.00  0.00     0.050 C 
ENDBRANCH   1  28
TORSDOF 5
ENDMDL
MODEL 10
REMARK VINA RESULT:      -7.0      9.981     13.055
REMARK  5 active torsions:
REMARK  status: ('A' for Active; 'I' for Inactive)
REMARK    1  A    between atoms: C_4  and  N_5 
REMARK    2  A    between atoms: C_9  and  C_10 
REMARK    3  A    between atoms: C_13  and  O_14 
REMARK    4  A    between atoms: C_17  and  C_18 
REMARK       I    between atoms: C_18  and  N_19 
REMARK    5  A    between atoms: N_19  and  C_20 
ROOT
HETATM    1  N   UNL     1      29.652  49.652  39.622  1.00  0.00    -0.292 N 
HETATM    2  C   UNL     1      30.071  48.311  39.476  1.00  0.00     0.179 C 
HETATM    3  S   UNL     1      31.472  47.586  40.060  1.00  0.00    -0.040 SA
HETATM    4  N   UNL     1      29.241  47.486  38.766  1.00  0.00    -0.354 N 
HETATM    5  C   UNL     1      27.826  47.711  38.582  1.00  0.00     0.158 C 
HETATM    6  C   UNL     1      27.535  49.179  38.611  1.00  0.00     0.060 C 
HETATM    7  C   UNL     1      28.398  50.088  39.125  1.00  0.00     0.030 C 
HETATM    8  C   UNL     1      28.084  51.571  39.195  1.00  0.00     0.070 C 
HETATM    9  H   UNL     1      29.545  46.520  38.748  1.00  0.00     0.163 HD
ENDROOT
BRANCH   6  10
HETATM   10  C   UNL     1      26.200  49.531  38.035  1.00  0.00     0.257 C 
HETATM   11  N   UNL     1      25.217  49.714  38.982  1.00  0.00    -0.306 N 
HETATM   12  H   UNL     1      25.447  49.640  39.961  1.00  0.00     0.170 HD
HETATM   13  O   UNL     1      26.086  49.663  36.824  1.00  0.00    -0.267 OA
BRANCH  11  14
HETATM   14  C   UNL     1      23.869  49.793  38.671  1.00  0.00     0.160 A 
HETATM   15  N   UNL     1      23.193  50.914  38.407  1.00  0.00    -0.110 NA
HETATM   16  O   UNL     1      21.916  50.529  38.059  1.00  0.00    -0.216 OA
HETATM   17  C   UNL     1      21.825  49.177  38.107  1.00  0.00     0.078 A 
HETATM   18  C   UNL     1      20.534  48.597  37.699  1.00  0.00     0.079 C 
HETATM   19  C   UNL     1      23.027  48.663  38.526  1.00  0.00     0.087 A 
ENDBRANCH  11  14
ENDBRANCH   6  10
BRANCH   5  20
HETATM   20  C   UNL     1      27.048  46.849  39.567  1.00  0.00    -0.031 A 
HETATM   21  C   UNL     1      27.406  46.760  40.922  1.00  0.00     0.012 A 
HETATM   22  C   UNL     1      26.683  45.949  41.802  1.00  0.00     0.037 A 
HETATM   23  C   UNL     1      25.604  45.213  41.327  1.00  0.00     0.065 A 
HETATM   24  C   UNL     1      25.239  45.272  39.989  1.00  0.00     0.037 A 
HETATM   25  C   UNL     1      25.957  46.087  39.111  1.00  0.00     0.012 A 
BRANCH  23  26
HETATM   26  O   UNL     1      24.871  44.412  42.150  1.00  0.00    -0.361 OA
HETATM   27  H   UNL     1      23.995  44.284  41.752  1.00  0.00     0.217 HD
ENDBRANCH  23  26
ENDBRANCH   5  20
BRANCH   1  28
HETATM   28  C   UNL     1      30.596  50.598  40.162  1.00  0.00     0.048 A 
HETATM   29  C   UNL     1      30.591  50.811  41.555  1.00  0.00     0.037 A 
HETATM   30  C   UNL     1      31.467  51.723  42.153  1.00  0.00    -0.060 A 
HETATM   31  C   UNL     1      31.414  51.960  43.633  1.00  0.00     0.048 C 
HETATM   32  C   UNL     1      32.400  52.383  41.352  1.00  0.00     0.007 A 
HETATM   33  C   UNL     1      32.417  52.178  39.971  1.00  0.00     0.009 A 
HETATM   34  C   UNL     1      31.503  51.308  39.354  1.00  0.00    -0.035 A 
HETATM   35  C   UNL     1      31.541  51.207  37.854  1.00  0.00     0.050 C 
ENDBRANCH   1  28
TORSDOF 5
ENDMDL
