MODEL 1
REMARK VINA RESULT:      -8.6      0.000      0.000
REMARK  7 active torsions:
REMARK  status: ('A' for Active; 'I' for Inactive)
REMARK    1  A    between atoms: O_2  and  C_3 
REMARK    2  A    between atoms: C_3  and  C_4 
REMARK    3  A    between atoms: C_8  and  C_9 
REMARK    4  A    between atoms: C_9  and  N_10 
REMARK    5  A    between atoms: C_13  and  C_14 
REMARK    6  A    between atoms: C_14  and  N_15 
REMARK       I    between atoms: N_15  and  C_16 
REMARK       I    between atoms: C_16  and  N_17 
REMARK    7  A    between atoms: N_17  and  C_18 
ROOT
HETATM    1  N   UNL     1      26.169  42.258  48.692  1.00  0.00    -0.067 N 
HETATM    2  H   UNL     1      26.802  43.065  48.634  1.00  0.00     0.280 HD
HETATM    3  C   UNL     1      26.444  41.592  50.025  1.00  0.00     0.241 C 
HETATM    4  C   UNL     1      27.925  41.217  50.086  1.00  0.00     0.029 C 
HETATM    5  C   UNL     1      28.286  40.280  48.923  1.00  0.00     0.009 C 
HETATM    6  C   UNL     1      27.925  40.913  47.582  1.00  0.00     0.028 C 
HETATM    7  C   UNL     1      26.468  41.349  47.530  1.00  0.00     0.235 C 
ENDROOT
BRANCH   4   8
HETATM    8  C   UNL     1      28.320  40.581  51.430  1.00  0.00     0.130 C 
BRANCH   8   9
HETATM    9  N   UNL     1      29.304  41.296  52.230  1.00  0.00    -0.342 N 
HETATM   10  C   UNL     1      28.965  42.015  53.364  1.00  0.00     0.320 C 
HETATM   11  N   UNL     1      30.026  42.768  53.808  1.00  0.00    -0.309 N 
HETATM   12  O   UNL     1      27.869  41.904  53.896  1.00  0.00    -0.247 OA
HETATM   13  H   UNL     1      30.909  42.627  53.339  1.00  0.00     0.170 HD
HETATM   14  H   UNL     1      30.036  41.736  51.685  1.00  0.00     0.164 HD
BRANCH  11  15
HETATM   15  C   UNL     1      30.047  43.666  54.897  1.00  0.00     0.039 A 
HETATM   16  C   UNL     1      29.225  44.788  54.997  1.00  0.00     0.071 A 
HETATM   17  C   UNL     1      29.330  45.625  56.106  1.00  0.00     0.118 A 
HETATM   18  F   UNL     1      28.536  46.701  56.193  1.00  0.00    -0.206 F 
HETATM   19  C   UNL     1      30.240  45.369  57.122  1.00  0.00     0.042 A 
HETATM   20  C   UNL     1      31.067  44.254  57.030  1.00  0.00     0.005 A 
HETATM   21  C   UNL     1      30.971  43.407  55.921  1.00  0.00     0.030 A 
ENDBRANCH  11  15
ENDBRANCH   8   9
ENDBRANCH   4   8
BRANCH   1  22
HETATM   22  C   UNL     1      24.777  42.836  48.601  1.00  0.00     0.274 C 
BRANCH  22  23
HETATM   23  C   UNL     1      24.631  44.204  49.182  1.00  0.00    -0.015 A 
HETATM   24  C   UNL     1      23.443  44.885  49.373  1.00  0.00     0.097 A 
HETATM   25  N   UNL     1      23.725  46.120  49.901  1.00  0.00    -0.360 N 
HETATM   26  C   UNL     1      25.082  46.261  50.068  1.00  0.00     0.108 A 
HETATM   27  H   UNL     1      23.048  46.842  50.133  1.00  0.00     0.165 HD
HETATM   28  C   UNL     1      25.664  45.087  49.621  1.00  0.00     0.046 A 
BRANCH  26  29
HETATM   29  C   UNL     1      25.664  47.468  50.610  1.00  0.00     0.309 C 
HETATM   30  O   UNL     1      26.088  47.570  51.753  1.00  0.00    -0.258 OA
BRANCH  29  31
HETATM   31  O   UNL     1      25.654  48.452  49.673  1.00  0.00    -0.321 OA
HETATM   32  C   UNL     1      26.939  48.744  49.121  1.00  0.00     0.213 C 
ENDBRANCH  29  31
ENDBRANCH  26  29
ENDBRANCH  22  23
ENDBRANCH   1  22
TORSDOF 7
ENDMDL
MODEL 2
REMARK VINA RESULT:      -8.4      5.011      9.847
REMARK  7 active torsions:
REMARK  status: ('A' for Active; 'I' for Inactive)
REMARK    1  A    between atoms: O_2  and  C_3 
REMARK    2  A    between atoms: C_3  and  C_4 
REMARK    3  A    between atoms: C_8  and  C_9 
REMARK    4  A    between atoms: C_9  and  N_10 
REMARK    5  A    between atoms: C_13  and  C_14 
REMARK    6  A    between atoms: C_14  and  N_15 
REMARK       I    between atoms: N_15  and  C_16 
REMARK       I    between atoms: C_16  and  N_17 
REMARK    7  A    between atoms: N_17  and  C_18 
ROOT
HETATM    1  N   UNL     1      25.727  44.965  52.314  1.00  0.00    -0.067 N 
HETATM    2  H   UNL     1      25.004  44.321  51.969  1.00  0.00     0.280 HD
HETATM    3  C   UNL     1      25.341  46.345  51.821  1.00  0.00     0.241 C 
HETATM    4  C   UNL     1      25.231  46.304  50.296  1.00  0.00     0.029 C 
HETATM    5  C   UNL     1      26.565  45.856  49.678  1.00  0.00     0.009 C 
HETATM    6  C   UNL     1      27.001  44.507  50.243  1.00  0.00     0.028 C 
HETATM    7  C   UNL     1      27.052  44.514  51.764  1.00  0.00     0.235 C 
ENDROOT
BRANCH   4   8
HETATM    8  C   UNL     1      24.788  47.651  49.698  1.00  0.00     0.130 C 
BRANCH   8   9
HETATM    9  N   UNL     1      23.408  48.050  49.932  1.00  0.00    -0.342 N 
HETATM   10  C   UNL     1      22.658  48.732  48.989  1.00  0.00     0.320 C 
HETATM   11  N   UNL     1      21.474  49.179  49.527  1.00  0.00    -0.309 N 
HETATM   12  O   UNL     1      23.020  48.835  47.825  1.00  0.00    -0.247 OA
HETATM   13  H   UNL     1      21.262  48.876  50.467  1.00  0.00     0.170 HD
HETATM   14  H   UNL     1      23.222  48.351  50.881  1.00  0.00     0.164 HD
BRANCH  11  15
HETATM   15  C   UNL     1      20.481  49.955  48.893  1.00  0.00     0.039 A 
HETATM   16  C   UNL     1      19.505  49.432  48.046  1.00  0.00     0.071 A 
HETATM   17  C   UNL     1      18.575  50.283  47.453  1.00  0.00     0.118 A 
HETATM   18  F   UNL     1      17.642  49.769  46.640  1.00  0.00    -0.206 F 
HETATM   19  C   UNL     1      18.594  51.651  47.686  1.00  0.00     0.042 A 
HETATM   20  C   UNL     1      19.565  52.184  48.527  1.00  0.00     0.005 A 
HETATM   21  C   UNL     1      20.505  51.340  49.127  1.00  0.00     0.030 A 
ENDBRANCH  11  15
ENDBRANCH   8   9
ENDBRANCH   4   8
BRANCH   1  22
HETATM   22  C   UNL     1      25.680  44.847  53.819  1.00  0.00     0.274 C 
BRANCH  22  23
HETATM   23  C   UNL     1      26.877  45.392  54.525  1.00  0.00    -0.015 A 
HETATM   24  C   UNL     1      27.166  46.728  54.727  1.00  0.00     0.097 A 
HETATM   25  N   UNL     1      28.365  46.824  55.388  1.00  0.00    -0.360 N 
HETATM   26  C   UNL     1      28.869  45.569  55.631  1.00  0.00     0.108 A 
HETATM   27  H   UNL     1      28.834  47.684  55.658  1.00  0.00     0.165 HD
HETATM   28  C   UNL     1      27.966  44.665  55.098  1.00  0.00     0.046 A 
BRANCH  26  29
HETATM   29  C   UNL     1      30.125  45.369  56.318  1.00  0.00     0.309 C 
HETATM   30  O   UNL     1      30.500  46.041  57.269  1.00  0.00    -0.258 OA
BRANCH  29  31
HETATM   31  O   UNL     1      30.813  44.348  55.743  1.00  0.00    -0.321 OA
HETATM   32  C   UNL     1      31.333  43.399  56.676  1.00  0.00     0.213 C 
ENDBRANCH  29  31
ENDBRANCH  26  29
ENDBRANCH  22  23
ENDBRANCH   1  22
TORSDOF 7
ENDMDL
MODEL 3
REMARK VINA RESULT:      -8.4      4.104      6.052
REMARK  7 active torsions:
REMARK  status: ('A' for Active; 'I' for Inactive)
REMARK    1  A    between atoms: O_2  and  C_3 
REMARK    2  A    between atoms: C_3  and  C_4 
REMARK    3  A    between atoms: C_8  and  C_9 
REMARK    4  A    between atoms: C_9  and  N_10 
REMARK    5  A    between atoms: C_13  and  C_14 
REMARK    6  A    between atoms: C_14  and  N_15 
REMARK       I    between atoms: N_15  and  C_16 
REMARK       I    between atoms: C_16  and  N_17 
REMARK    7  A    between atoms: N_17  and  C_18 
ROOT
HETATM    1  N   UNL     1      24.777  49.694  48.875  1.00  0.00    -0.067 N 
HETATM    2  H   UNL     1      24.853  50.197  49.767  1.00  0.00     0.280 HD
HETATM    3  C   UNL     1      24.277  48.302  49.209  1.00  0.00     0.241 C 
HETATM    4  C   UNL     1      25.252  47.660  50.197  1.00  0.00     0.029 C 
HETATM    5  C   UNL     1      26.663  47.603  49.592  1.00  0.00     0.009 C 
HETATM    6  C   UNL     1      27.131  48.992  49.171  1.00  0.00     0.028 C 
HETATM    7  C   UNL     1      26.139  49.671  48.237  1.00  0.00     0.235 C 
ENDROOT
BRANCH   4   8
HETATM    8  C   UNL     1      24.802  46.258  50.644  1.00  0.00     0.130 C 
BRANCH   8   9
HETATM    9  N   UNL     1      25.852  45.323  51.025  1.00  0.00    -0.342 N 
HETATM   10  C   UNL     1      26.447  45.338  52.275  1.00  0.00     0.320 C 
HETATM   11  N   UNL     1      27.546  44.512  52.309  1.00  0.00    -0.309 N 
HETATM   12  O   UNL     1      25.977  45.972  53.209  1.00  0.00    -0.247 OA
HETATM   13  H   UNL     1      27.709  43.942  51.492  1.00  0.00     0.170 HD
HETATM   14  H   UNL     1      26.500  45.107  50.278  1.00  0.00     0.164 HD
BRANCH  11  15
HETATM   15  C   UNL     1      28.435  44.309  53.386  1.00  0.00     0.039 A 
HETATM   16  C   UNL     1      28.519  45.148  54.497  1.00  0.00     0.071 A 
HETATM   17  C   UNL     1      29.443  44.873  55.503  1.00  0.00     0.118 A 
HETATM   18  F   UNL     1      29.515  45.685  56.566  1.00  0.00    -0.206 F 
HETATM   19  C   UNL     1      30.288  43.774  55.429  1.00  0.00     0.042 A 
HETATM   20  C   UNL     1      30.214  42.933  54.324  1.00  0.00     0.005 A 
HETATM   21  C   UNL     1      29.293  43.200  53.306  1.00  0.00     0.030 A 
ENDBRANCH  11  15
ENDBRANCH   8   9
ENDBRANCH   4   8
BRANCH   1  22
HETATM   22  C   UNL     1      23.791  50.488  48.052  1.00  0.00     0.274 C 
BRANCH  22  23
HETATM   23  C   UNL     1      22.358  50.264  48.407  1.00  0.00    -0.015 A 
HETATM   24  C   UNL     1      21.462  49.470  47.716  1.00  0.00     0.097 A 
HETATM   25  N   UNL     1      20.240  49.545  48.335  1.00  0.00    -0.360 N 
HETATM   26  C   UNL     1      20.318  50.372  49.430  1.00  0.00     0.108 A 
HETATM   27  H   UNL     1      19.388  49.075  48.041  1.00  0.00     0.165 HD
HETATM   28  C   UNL     1      21.621  50.835  49.489  1.00  0.00     0.046 A 
BRANCH  26  29
HETATM   29  C   UNL     1      19.174  50.633  50.274  1.00  0.00     0.309 C 
HETATM   30  O   UNL     1      18.676  49.808  51.027  1.00  0.00    -0.258 OA
BRANCH  29  31
HETATM   31  O   UNL     1      18.743  51.909  50.093  1.00  0.00    -0.321 OA
HETATM   32  C   UNL     1      17.696  52.038  49.129  1.00  0.00     0.213 C 
ENDBRANCH  29  31
ENDBRANCH  26  29
ENDBRANCH  22  23
ENDBRANCH   1  22
TORSDOF 7
ENDMDL
MODEL 4
REMARK VINA RESULT:      -8.2      1.743      2.249
REMARK  7 active torsions:
REMARK  status: ('A' for Active; 'I' for Inactive)
REMARK    1  A    between atoms: O_2  and  C_3 
REMARK    2  A    between atoms: C_3  and  C_4 
REMARK    3  A    between atoms: C_8  and  C_9 
REMARK    4  A    between atoms: C_9  and  N_10 
REMARK    5  A    between atoms: C_13  and  C_14 
REMARK    6  A    between atoms: C_14  and  N_15 
REMARK       I    between atoms: N_15  and  C_16 
REMARK       I    between atoms: C_16  and  N_17 
REMARK    7  A    between atoms: N_17  and  C_18 
ROOT
HETATM    1  N   UNL     1      25.758  42.901  50.024  1.00  0.00    -0.067 N 
HETATM    2  H   UNL     1      26.404  43.673  49.820  1.00  0.00     0.280 HD
HETATM    3  C   UNL     1      26.391  42.094  51.139  1.00  0.00     0.241 C 
HETATM    4  C   UNL     1      27.775  41.632  50.680  1.00  0.00     0.029 C 
HETATM    5  C   UNL     1      27.659  40.794  49.397  1.00  0.00     0.009 C 
HETATM    6  C   UNL     1      26.939  41.574  48.301  1.00  0.00     0.028 C 
HETATM    7  C   UNL     1      25.586  42.095  48.765  1.00  0.00     0.235 C 
ENDROOT
BRANCH   4   8
HETATM    8  C   UNL     1      28.528  40.846  51.768  1.00  0.00     0.130 C 
BRANCH   8   9
HETATM    9  N   UNL     1      29.495  41.589  52.562  1.00  0.00    -0.342 N 
HETATM   10  C   UNL     1      29.147  42.271  53.716  1.00  0.00     0.320 C 
HETATM   11  N   UNL     1      30.183  43.062  54.154  1.00  0.00    -0.309 N 
HETATM   12  O   UNL     1      28.068  42.103  54.267  1.00  0.00    -0.247 OA
HETATM   13  H   UNL     1      31.062  42.968  53.666  1.00  0.00     0.170 HD
HETATM   14  H   UNL     1      30.196  42.070  52.012  1.00  0.00     0.164 HD
BRANCH  11  15
HETATM   15  C   UNL     1      30.186  43.940  55.259  1.00  0.00     0.039 A 
HETATM   16  C   UNL     1      31.015  43.792  56.371  1.00  0.00     0.071 A 
HETATM   17  C   UNL     1      30.932  44.703  57.422  1.00  0.00     0.118 A 
HETATM   18  F   UNL     1      31.733  44.551  58.485  1.00  0.00    -0.206 F 
HETATM   19  C   UNL     1      30.039  45.765  57.390  1.00  0.00     0.042 A 
HETATM   20  C   UNL     1      29.206  45.920  56.288  1.00  0.00     0.005 A 
HETATM   21  C   UNL     1      29.278  45.011  55.227  1.00  0.00     0.030 A 
ENDBRANCH  11  15
ENDBRANCH   8   9
ENDBRANCH   4   8
BRANCH   1  22
HETATM   22  C   UNL     1      24.466  43.563  50.440  1.00  0.00     0.274 C 
BRANCH  22  23
HETATM   23  C   UNL     1      24.468  45.053  50.342  1.00  0.00    -0.015 A 
HETATM   24  C   UNL     1      25.212  45.920  51.121  1.00  0.00     0.097 A 
HETATM   25  N   UNL     1      24.918  47.207  50.749  1.00  0.00    -0.360 N 
HETATM   26  C   UNL     1      23.995  47.203  49.730  1.00  0.00     0.108 A 
HETATM   27  H   UNL     1      25.304  48.053  51.158  1.00  0.00     0.165 HD
HETATM   28  C   UNL     1      23.696  45.877  49.467  1.00  0.00     0.046 A 
BRANCH  26  29
HETATM   29  C   UNL     1      23.503  48.426  49.139  1.00  0.00     0.309 C 
HETATM   30  O   UNL     1      23.538  49.517  49.692  1.00  0.00    -0.258 OA
BRANCH  29  31
HETATM   31  O   UNL     1      22.995  48.176  47.904  1.00  0.00    -0.321 OA
HETATM   32  C   UNL     1      21.644  48.608  47.731  1.00  0.00     0.213 C 
ENDBRANCH  29  31
ENDBRANCH  26  29
ENDBRANCH  22  23
ENDBRANCH   1  22
TORSDOF 7
ENDMDL
MODEL 5
REMARK VINA RESULT:      -8.2      4.594      6.741
REMARK  7 active torsions:
REMARK  status: ('A' for Active; 'I' for Inactive)
REMARK    1  A    between atoms: O_2  and  C_3 
REMARK    2  A    between atoms: C_3  and  C_4 
REMARK    3  A    between atoms: C_8  and  C_9 
REMARK    4  A    between atoms: C_9  and  N_10 
REMARK    5  A    between atoms: C_13  and  C_14 
REMARK    6  A    between atoms: C_14  and  N_15 
REMARK       I    between atoms: N_15  and  C_16 
REMARK       I    between atoms: C_16  and  N_17 
REMARK    7  A    between atoms: N_17  and  C_18 
ROOT
HETATM    1  N   UNL     1      24.342  49.973  48.656  1.00  0.00    -0.067 N 
HETATM    2  H   UNL     1      24.424  50.495  49.537  1.00  0.00     0.280 HD
HETATM    3  C   UNL     1      23.998  48.546  49.034  1.00  0.00     0.241 C 
HETATM    4  C   UNL     1      25.087  48.013  49.965  1.00  0.00     0.029 C 
HETATM    5  C   UNL     1      26.458  48.080  49.274  1.00  0.00     0.009 C 
HETATM    6  C   UNL     1      26.766  49.501  48.812  1.00  0.00     0.028 C 
HETATM    7  C   UNL     1      25.659  50.068  47.935  1.00  0.00     0.235 C 
ENDROOT
BRANCH   4   8
HETATM    8  C   UNL     1      24.800  46.582  50.452  1.00  0.00     0.130 C 
BRANCH   8   9
HETATM    9  N   UNL     1      25.390  46.192  51.725  1.00  0.00    -0.342 N 
HETATM   10  C   UNL     1      26.483  45.347  51.814  1.00  0.00     0.320 C 
HETATM   11  N   UNL     1      26.708  44.964  53.115  1.00  0.00    -0.309 N 
HETATM   12  O   UNL     1      27.163  45.064  50.837  1.00  0.00    -0.247 OA
HETATM   13  H   UNL     1      26.143  45.411  53.822  1.00  0.00     0.170 HD
HETATM   14  H   UNL     1      24.713  46.045  52.464  1.00  0.00     0.164 HD
BRANCH  11  15
HETATM   15  C   UNL     1      27.692  44.071  53.590  1.00  0.00     0.039 A 
HETATM   16  C   UNL     1      27.666  42.694  53.371  1.00  0.00     0.071 A 
HETATM   17  C   UNL     1      28.676  41.891  53.895  1.00  0.00     0.118 A 
HETATM   18  F   UNL     1      28.642  40.569  53.678  1.00  0.00    -0.206 F 
HETATM   19  C   UNL     1      29.718  42.431  54.636  1.00  0.00     0.042 A 
HETATM   20  C   UNL     1      29.751  43.802  54.864  1.00  0.00     0.005 A 
HETATM   21  C   UNL     1      28.742  44.618  54.344  1.00  0.00     0.030 A 
ENDBRANCH  11  15
ENDBRANCH   8   9
ENDBRANCH   4   8
BRANCH   1  22
HETATM   22  C   UNL     1      23.237  50.659  47.888  1.00  0.00     0.274 C 
BRANCH  22  23
HETATM   23  C   UNL     1      21.969  50.846  48.653  1.00  0.00    -0.015 A 
HETATM   24  C   UNL     1      21.856  50.986  50.024  1.00  0.00     0.097 A 
HETATM   25  N   UNL     1      20.528  51.106  50.346  1.00  0.00    -0.360 N 
HETATM   26  C   UNL     1      19.761  51.054  49.206  1.00  0.00     0.108 A 
HETATM   27  H   UNL     1      20.145  51.209  51.281  1.00  0.00     0.165 HD
HETATM   28  C   UNL     1      20.634  50.885  48.145  1.00  0.00     0.046 A 
BRANCH  26  29
HETATM   29  C   UNL     1      18.321  51.157  49.249  1.00  0.00     0.309 C 
HETATM   30  O   UNL     1      17.697  51.662  50.173  1.00  0.00    -0.258 OA
BRANCH  29  31
HETATM   31  O   UNL     1      17.780  50.606  48.131  1.00  0.00    -0.321 OA
HETATM   32  C   UNL     1      17.263  49.288  48.323  1.00  0.00     0.213 C 
ENDBRANCH  29  31
ENDBRANCH  26  29
ENDBRANCH  22  23
ENDBRANCH   1  22
TORSDOF 7
ENDMDL
MODEL 6
REMARK VINA RESULT:      -8.2      4.658      9.885
REMARK  7 active torsions:
REMARK  status: ('A' for Active; 'I' for Inactive)
REMARK    1  A    between atoms: O_2  and  C_3 
REMARK    2  A    between atoms: C_3  and  C_4 
REMARK    3  A    between atoms: C_8  and  C_9 
REMARK    4  A    between atoms: C_9  and  N_10 
REMARK    5  A    between atoms: C_13  and  C_14 
REMARK    6  A    between atoms: C_14  and  N_15 
REMARK       I    between atoms: N_15  and  C_16 
REMARK       I    between atoms: C_16  and  N_17 
REMARK    7  A    between atoms: N_17  and  C_18 
ROOT
HETATM    1  N   UNL     1      27.105  45.071  52.475  1.00  0.00    -0.067 N 
HETATM    2  H   UNL     1      27.923  45.693  52.470  1.00  0.00     0.280 HD
HETATM    3  C   UNL     1      26.374  45.315  51.170  1.00  0.00     0.241 C 
HETATM    4  C   UNL     1      26.017  46.799  51.082  1.00  0.00     0.029 C 
HETATM    5  C   UNL     1      25.147  47.209  52.281  1.00  0.00     0.009 C 
HETATM    6  C   UNL     1      25.845  46.880  53.597  1.00  0.00     0.028 C 
HETATM    7  C   UNL     1      26.264  45.419  53.672  1.00  0.00     0.235 C 
ENDROOT
BRANCH   4   8
HETATM    8  C   UNL     1      25.316  47.162  49.761  1.00  0.00     0.130 C 
BRANCH   8   9
HETATM    9  N   UNL     1      23.889  47.444  49.831  1.00  0.00    -0.342 N 
HETATM   10  C   UNL     1      23.283  48.422  49.061  1.00  0.00     0.320 C 
HETATM   11  N   UNL     1      21.987  48.639  49.468  1.00  0.00    -0.309 N 
HETATM   12  O   UNL     1      23.853  48.945  48.114  1.00  0.00    -0.247 OA
HETATM   13  H   UNL     1      21.623  48.013  50.170  1.00  0.00     0.170 HD
HETATM   14  H   UNL     1      23.503  47.377  50.765  1.00  0.00     0.164 HD
BRANCH  11  15
HETATM   15  C   UNL     1      21.077  49.591  48.962  1.00  0.00     0.039 A 
HETATM   16  C   UNL     1      20.501  49.523  47.694  1.00  0.00     0.071 A 
HETATM   17  C   UNL     1      19.623  50.522  47.278  1.00  0.00     0.118 A 
HETATM   18  F   UNL     1      19.075  50.446  46.058  1.00  0.00    -0.206 F 
HETATM   19  C   UNL     1      19.304  51.593  48.101  1.00  0.00     0.042 A 
HETATM   20  C   UNL     1      19.875  51.672  49.367  1.00  0.00     0.005 A 
HETATM   21  C   UNL     1      20.759  50.676  49.795  1.00  0.00     0.030 A 
ENDBRANCH  11  15
ENDBRANCH   8   9
ENDBRANCH   4   8
BRANCH   1  22
HETATM   22  C   UNL     1      27.669  43.674  52.578  1.00  0.00     0.274 C 
BRANCH  22  23
HETATM   23  C   UNL     1      28.846  43.541  53.488  1.00  0.00    -0.015 A 
HETATM   24  C   UNL     1      29.903  42.665  53.330  1.00  0.00     0.097 A 
HETATM   25  N   UNL     1      30.767  42.824  54.383  1.00  0.00    -0.360 N 
HETATM   26  C   UNL     1      30.299  43.798  55.232  1.00  0.00     0.108 A 
HETATM   27  H   UNL     1      31.626  42.303  54.539  1.00  0.00     0.165 HD
HETATM   28  C   UNL     1      29.104  44.252  54.700  1.00  0.00     0.046 A 
BRANCH  26  29
HETATM   29  C   UNL     1      31.013  44.176  56.430  1.00  0.00     0.309 C 
HETATM   30  O   UNL     1      31.885  43.495  56.952  1.00  0.00    -0.258 OA
BRANCH  29  31
HETATM   31  O   UNL     1      30.564  45.377  56.882  1.00  0.00    -0.321 OA
HETATM   32  C   UNL     1      30.622  45.523  58.302  1.00  0.00     0.213 C 
ENDBRANCH  29  31
ENDBRANCH  26  29
ENDBRANCH  22  23
ENDBRANCH   1  22
TORSDOF 7
ENDMDL
MODEL 7
REMARK VINA RESULT:      -8.1      3.082      4.122
REMARK  7 active torsions:
REMARK  status: ('A' for Active; 'I' for Inactive)
REMARK    1  A    between atoms: O_2  and  C_3 
REMARK    2  A    between atoms: C_3  and  C_4 
REMARK    3  A    between atoms: C_8  and  C_9 
REMARK    4  A    between atoms: C_9  and  N_10 
REMARK    5  A    between atoms: C_13  and  C_14 
REMARK    6  A    between atoms: C_14  and  N_15 
REMARK       I    between atoms: N_15  and  C_16 
REMARK       I    between atoms: C_16  and  N_17 
REMARK    7  A    between atoms: N_17  and  C_18 
ROOT
HETATM    1  N   UNL     1      24.438  45.279  49.479  1.00  0.00    -0.067 N 
HETATM    2  H   UNL     1      24.930  46.112  49.132  1.00  0.00     0.280 HD
HETATM    3  C   UNL     1      24.369  45.420  50.986  1.00  0.00     0.241 C 
HETATM    4  C   UNL     1      25.792  45.563  51.527  1.00  0.00     0.029 C 
HETATM    5  C   UNL     1      26.639  44.344  51.130  1.00  0.00     0.009 C 
HETATM    6  C   UNL     1      26.634  44.147  49.617  1.00  0.00     0.028 C 
HETATM    7  C   UNL     1      25.222  44.067  49.056  1.00  0.00     0.235 C 
ENDROOT
BRANCH   4   8
HETATM    8  C   UNL     1      25.828  45.768  53.052  1.00  0.00     0.130 C 
BRANCH   8   9
HETATM    9  N   UNL     1      27.119  46.098  53.639  1.00  0.00    -0.342 N 
HETATM   10  C   UNL     1      27.751  45.280  54.560  1.00  0.00     0.320 C 
HETATM   11  N   UNL     1      28.837  45.912  55.120  1.00  0.00    -0.309 N 
HETATM   12  O   UNL     1      27.387  44.130  54.761  1.00  0.00    -0.247 OA
HETATM   13  H   UNL     1      29.089  46.808  54.729  1.00  0.00     0.170 HD
HETATM   14  H   UNL     1      27.242  47.084  53.833  1.00  0.00     0.164 HD
BRANCH  11  15
HETATM   15  C   UNL     1      29.690  45.420  56.130  1.00  0.00     0.039 A 
HETATM   16  C   UNL     1      30.649  44.428  55.927  1.00  0.00     0.071 A 
HETATM   17  C   UNL     1      31.435  43.996  56.993  1.00  0.00     0.118 A 
HETATM   18  F   UNL     1      32.353  43.043  56.786  1.00  0.00    -0.206 F 
HETATM   19  C   UNL     1      31.287  44.533  58.264  1.00  0.00     0.042 A 
HETATM   20  C   UNL     1      30.332  45.520  58.479  1.00  0.00     0.005 A 
HETATM   21  C   UNL     1      29.536  45.961  57.416  1.00  0.00     0.030 A 
ENDBRANCH  11  15
ENDBRANCH   8   9
ENDBRANCH   4   8
BRANCH   1  22
HETATM   22  C   UNL     1      23.078  45.318  48.824  1.00  0.00     0.274 C 
BRANCH  22  23
HETATM   23  C   UNL     1      22.455  46.674  48.759  1.00  0.00    -0.015 A 
HETATM   24  C   UNL     1      21.165  46.960  48.354  1.00  0.00     0.097 A 
HETATM   25  N   UNL     1      20.978  48.318  48.405  1.00  0.00    -0.360 N 
HETATM   26  C   UNL     1      22.126  48.934  48.845  1.00  0.00     0.108 A 
HETATM   27  H   UNL     1      20.131  48.817  48.151  1.00  0.00     0.165 HD
HETATM   28  C   UNL     1      23.058  47.933  49.063  1.00  0.00     0.046 A 
BRANCH  26  29
HETATM   29  C   UNL     1      22.214  50.368  48.996  1.00  0.00     0.309 C 
HETATM   30  O   UNL     1      22.932  50.928  49.813  1.00  0.00    -0.258 OA
BRANCH  29  31
HETATM   31  O   UNL     1      21.381  50.982  48.115  1.00  0.00    -0.321 OA
HETATM   32  C   UNL     1      20.266  51.634  48.725  1.00  0.00     0.213 C 
ENDBRANCH  29  31
ENDBRANCH  26  29
ENDBRANCH  22  23
ENDBRANCH   1  22
TORSDOF 7
ENDMDL
MODEL 8
REMARK VINA RESULT:      -8.1      3.121      6.541
REMARK  7 active torsions:
REMARK  status: ('A' for Active; 'I' for Inactive)
REMARK    1  A    between atoms: O_2  and  C_3 
REMARK    2  A    between atoms: C_3  and  C_4 
REMARK    3  A    between atoms: C_8  and  C_9 
REMARK    4  A    between atoms: C_9  and  N_10 
REMARK    5  A    between atoms: C_13  and  C_14 
REMARK    6  A    between atoms: C_14  and  N_15 
REMARK       I    between atoms: N_15  and  C_16 
REMARK       I    between atoms: C_16  and  N_17 
REMARK    7  A    between atoms: N_17  and  C_18 
ROOT
HETATM    1  N   UNL     1      27.191  44.461  54.624  1.00  0.00    -0.067 N 
HETATM    2  H   UNL     1      27.154  44.133  55.597  1.00  0.00     0.280 HD
HETATM    3  C   UNL     1      27.092  43.226  53.751  1.00  0.00     0.241 C 
HETATM    4  C   UNL     1      28.231  42.275  54.123  1.00  0.00     0.029 C 
HETATM    5  C   UNL     1      29.588  42.971  53.935  1.00  0.00     0.009 C 
HETATM    6  C   UNL     1      29.654  44.264  54.743  1.00  0.00     0.028 C 
HETATM    7  C   UNL     1      28.490  45.193  54.430  1.00  0.00     0.235 C 
ENDROOT
BRANCH   4   8
HETATM    8  C   UNL     1      28.187  40.960  53.327  1.00  0.00     0.130 C 
BRANCH   8   9
HETATM    9  N   UNL     1      28.785  40.976  51.999  1.00  0.00    -0.342 N 
HETATM   10  C   UNL     1      28.095  40.584  50.865  1.00  0.00     0.320 C 
HETATM   11  N   UNL     1      28.938  40.484  49.783  1.00  0.00    -0.309 N 
HETATM   12  O   UNL     1      26.882  40.425  50.868  1.00  0.00    -0.247 OA
HETATM   13  H   UNL     1      29.887  40.799  49.919  1.00  0.00     0.170 HD
HETATM   14  H   UNL     1      29.760  40.705  51.984  1.00  0.00     0.164 HD
BRANCH  11  15
HETATM   15  C   UNL     1      28.612  40.062  48.476  1.00  0.00     0.039 A 
HETATM   16  C   UNL     1      28.240  40.926  47.447  1.00  0.00     0.071 A 
HETATM   17  C   UNL     1      27.920  40.411  46.193  1.00  0.00     0.118 A 
HETATM   18  F   UNL     1      27.564  41.250  45.211  1.00  0.00    -0.206 F 
HETATM   19  C   UNL     1      27.964  39.047  45.938  1.00  0.00     0.042 A 
HETATM   20  C   UNL     1      28.331  38.176  46.958  1.00  0.00     0.005 A 
HETATM   21  C   UNL     1      28.652  38.681  48.222  1.00  0.00     0.030 A 
ENDBRANCH  11  15
ENDBRANCH   8   9
ENDBRANCH   4   8
BRANCH   1  22
HETATM   22  C   UNL     1      26.005  45.383  54.470  1.00  0.00     0.274 C 
BRANCH  22  23
HETATM   23  C   UNL     1      25.690  45.765  53.061  1.00  0.00    -0.015 A 
HETATM   24  C   UNL     1      24.942  45.027  52.164  1.00  0.00     0.097 A 
HETATM   25  N   UNL     1      24.904  45.696  50.967  1.00  0.00    -0.360 N 
HETATM   26  C   UNL     1      25.611  46.871  51.063  1.00  0.00     0.108 A 
HETATM   27  H   UNL     1      24.437  45.385  50.120  1.00  0.00     0.165 HD
HETATM   28  C   UNL     1      26.114  46.931  52.351  1.00  0.00     0.046 A 
BRANCH  26  29
HETATM   29  C   UNL     1      25.737  47.781  49.947  1.00  0.00     0.309 C 
HETATM   30  O   UNL     1      24.909  48.635  49.663  1.00  0.00    -0.258 OA
BRANCH  29  31
HETATM   31  O   UNL     1      26.890  47.533  49.272  1.00  0.00    -0.321 OA
HETATM   32  C   UNL     1      27.706  48.688  49.071  1.00  0.00     0.213 C 
ENDBRANCH  29  31
ENDBRANCH  26  29
ENDBRANCH  22  23
ENDBRANCH   1  22
TORSDOF 7
ENDMDL
MODEL 9
REMARK VINA RESULT:      -8.1      4.745      9.451
REMARK  7 active torsions:
REMARK  status: ('A' for Active; 'I' for Inactive)
REMARK    1  A    between atoms: O_2  and  C_3 
REMARK    2  A    between atoms: C_3  and  C_4 
REMARK    3  A    between atoms: C_8  and  C_9 
REMARK    4  A    between atoms: C_9  and  N_10 
REMARK    5  A    between atoms: C_13  and  C_14 
REMARK    6  A    between atoms: C_14  and  N_15 
REMARK       I    between atoms: N_15  and  C_16 
REMARK       I    between atoms: C_16  and  N_17 
REMARK    7  A    between atoms: N_17  and  C_18 
ROOT
HETATM    1  N   UNL     1      26.041  43.951  51.406  1.00  0.00    -0.067 N 
HETATM    2  H   UNL     1      25.609  44.247  52.290  1.00  0.00     0.280 HD
HETATM    3  C   UNL     1      25.994  45.152  50.483  1.00  0.00     0.241 C 
HETATM    4  C   UNL     1      24.538  45.597  50.337  1.00  0.00     0.029 C 
HETATM    5  C   UNL     1      23.683  44.447  49.782  1.00  0.00     0.009 C 
HETATM    6  C   UNL     1      23.802  43.206  50.662  1.00  0.00     0.028 C 
HETATM    7  C   UNL     1      25.251  42.789  50.869  1.00  0.00     0.235 C 
ENDROOT
BRANCH   4   8
HETATM    8  C   UNL     1      24.388  46.851  49.457  1.00  0.00     0.130 C 
BRANCH   8   9
HETATM    9  N   UNL     1      23.600  47.945  50.005  1.00  0.00    -0.342 N 
HETATM   10  C   UNL     1      22.439  48.403  49.404  1.00  0.00     0.320 C 
HETATM   11  N   UNL     1      22.008  49.571  49.988  1.00  0.00    -0.309 N 
HETATM   12  O   UNL     1      21.878  47.775  48.517  1.00  0.00    -0.247 OA
HETATM   13  H   UNL     1      22.506  49.876  50.812  1.00  0.00     0.170 HD
HETATM   14  H   UNL     1      24.155  48.687  50.414  1.00  0.00     0.164 HD
BRANCH  11  15
HETATM   15  C   UNL     1      20.899  50.360  49.615  1.00  0.00     0.039 A 
HETATM   16  C   UNL     1      19.631  50.242  50.183  1.00  0.00     0.071 A 
HETATM   17  C   UNL     1      18.594  51.056  49.735  1.00  0.00     0.118 A 
HETATM   18  F   UNL     1      17.380  50.935  50.289  1.00  0.00    -0.206 F 
HETATM   19  C   UNL     1      18.791  51.991  48.728  1.00  0.00     0.042 A 
HETATM   20  C   UNL     1      20.050  52.114  48.152  1.00  0.00     0.005 A 
HETATM   21  C   UNL     1      21.100  51.301  48.592  1.00  0.00     0.030 A 
ENDBRANCH  11  15
ENDBRANCH   8   9
ENDBRANCH   4   8
BRANCH   1  22
HETATM   22  C   UNL     1      27.449  43.545  51.769  1.00  0.00     0.274 C 
BRANCH  22  23
HETATM   23  C   UNL     1      27.940  44.088  53.070  1.00  0.00    -0.015 A 
HETATM   24  C   UNL     1      27.302  45.032  53.853  1.00  0.00     0.097 A 
HETATM   25  N   UNL     1      28.080  45.291  54.952  1.00  0.00    -0.360 N 
HETATM   26  C   UNL     1      29.222  44.527  54.911  1.00  0.00     0.108 A 
HETATM   27  H   UNL     1      27.869  45.953  55.695  1.00  0.00     0.165 HD
HETATM   28  C   UNL     1      29.159  43.778  53.748  1.00  0.00     0.046 A 
BRANCH  26  29
HETATM   29  C   UNL     1      30.226  44.595  55.948  1.00  0.00     0.309 C 
HETATM   30  O   UNL     1      30.409  45.573  56.661  1.00  0.00    -0.258 OA
BRANCH  29  31
HETATM   31  O   UNL     1      30.927  43.432  55.996  1.00  0.00    -0.321 OA
HETATM   32  C   UNL     1      31.829  43.342  57.100  1.00  0.00     0.213 C 
ENDBRANCH  29  31
ENDBRANCH  26  29
ENDBRANCH  22  23
ENDBRANCH   1  22
TORSDOF 7
ENDMDL
MODEL 10
REMARK VINA RESULT:      -8.1      2.589      5.158
REMARK  7 active torsions:
REMARK  status: ('A' for Active; 'I' for Inactive)
REMARK    1  A    between atoms: O_2  and  C_3 
REMARK    2  A    between atoms: C_3  and  C_4 
REMARK    3  A    between atoms: C_8  and  C_9 
REMARK    4  A    between atoms: C_9  and  N_10 
REMARK    5  A    between atoms: C_13  and  C_14 
REMARK    6  A    between atoms: C_14  and  N_15 
REMARK       I    between atoms: N_15  and  C_16 
REMARK       I    between atoms: C_16  and  N_17 
REMARK    7  A    between atoms: N_17  and  C_18 
ROOT
HETATM    1  N   UNL     1      25.072  45.329  50.164  1.00  0.00    -0.067 N 
HETATM    2  H   UNL     1      24.205  45.863  50.027  1.00  0.00     0.280 HD
HETATM    3  C   UNL     1      25.335  45.313  51.656  1.00  0.00     0.241 C 
HETATM    4  C   UNL     1      25.420  46.758  52.150  1.00  0.00     0.029 C 
HETATM    5  C   UNL     1      26.533  47.512  51.406  1.00  0.00     0.009 C 
HETATM    6  C   UNL     1      26.318  47.450  49.897  1.00  0.00     0.028 C 
HETATM    7  C   UNL     1      26.168  46.019  49.400  1.00  0.00     0.235 C 
ENDROOT
BRANCH   4   8
HETATM    8  C   UNL     1      25.631  46.852  53.672  1.00  0.00     0.130 C 
BRANCH   8   9
HETATM    9  N   UNL     1      27.008  46.937  54.138  1.00  0.00    -0.342 N 
HETATM   10  C   UNL     1      27.594  45.956  54.919  1.00  0.00     0.320 C 
HETATM   11  N   UNL     1      28.812  46.371  55.404  1.00  0.00    -0.309 N 
HETATM   12  O   UNL     1      27.079  44.856  55.071  1.00  0.00    -0.247 OA
HETATM   13  H   UNL     1      29.159  47.254  55.058  1.00  0.00     0.170 HD
HETATM   14  H   UNL     1      27.298  47.873  54.392  1.00  0.00     0.164 HD
BRANCH  11  15
HETATM   15  C   UNL     1      29.674  45.671  56.275  1.00  0.00     0.039 A 
HETATM   16  C   UNL     1      30.508  44.628  55.875  1.00  0.00     0.071 A 
HETATM   17  C   UNL     1      31.312  43.986  56.814  1.00  0.00     0.118 A 
HETATM   18  F   UNL     1      32.110  42.985  56.419  1.00  0.00    -0.206 F 
HETATM   19  C   UNL     1      31.306  44.363  58.150  1.00  0.00     0.042 A 
HETATM   20  C   UNL     1      30.476  45.400  58.560  1.00  0.00     0.005 A 
HETATM   21  C   UNL     1      29.662  46.051  57.627  1.00  0.00     0.030 A 
ENDBRANCH  11  15
ENDBRANCH   8   9
ENDBRANCH   4   8
BRANCH   1  22
HETATM   22  C   UNL     1      24.785  43.956  49.605  1.00  0.00     0.274 C 
BRANCH  22  23
HETATM   23  C   UNL     1      25.586  42.853  50.216  1.00  0.00    -0.015 A 
HETATM   24  C   UNL     1      25.118  41.597  50.556  1.00  0.00     0.097 A 
HETATM   25  N   UNL     1      26.145  40.882  51.117  1.00  0.00    -0.360 N 
HETATM   26  C   UNL     1      27.288  41.646  51.148  1.00  0.00     0.108 A 
HETATM   27  H   UNL     1      26.091  39.932  51.474  1.00  0.00     0.165 HD
HETATM   28  C   UNL     1      26.962  42.875  50.601  1.00  0.00     0.046 A 
BRANCH  26  29
HETATM   29  C   UNL     1      28.530  41.142  51.687  1.00  0.00     0.309 C 
HETATM   30  O   UNL     1      28.921  39.991  51.547  1.00  0.00    -0.258 OA
BRANCH  29  31
HETATM   31  O   UNL     1      29.174  42.124  52.371  1.00  0.00    -0.321 OA
HETATM   32  C   UNL     1      28.906  42.129  53.774  1.00  0.00     0.213 C 
ENDBRANCH  29  31
ENDBRANCH  26  29
ENDBRANCH  22  23
ENDBRANCH   1  22
TORSDOF 7
ENDMDL
