MODEL 1
REMARK VINA RESULT:      -9.5      0.000      0.000
REMARK  8 active torsions:
REMARK  status: ('A' for Active; 'I' for Inactive)
REMARK    1  A    between atoms: C_2  and  C_3 
REMARK    2  A    between atoms: C_5  and  C_6 
REMARK       I    between atoms: C_6  and  N_7 
REMARK    3  A    between atoms: N_7  and  C_8 
REMARK    4  A    between atoms: C_8  and  C_9 
REMARK    5  A    between atoms: C_9  and  N_10 
REMARK    6  A    between atoms: C_9  and  C_20 
REMARK       I    between atoms: N_10  and  C_11 
REMARK    7  A    between atoms: C_11  and  C_12 
REMARK    8  A    between atoms: C_14  and  C_15 
ROOT
HETATM    1  C   UNL     1      28.186  43.413  52.072  1.00  0.00     0.136 C 
ENDROOT
BRANCH   1   2
HETATM    2  C   UNL     1      27.363  42.101  52.139  1.00  0.00     0.153 C 
BRANCH   2   3
HETATM    3  N   UNL     1      27.574  41.229  50.998  1.00  0.00    -0.353 N 
HETATM    4  C   UNL     1      28.488  40.200  51.010  1.00  0.00     0.275 C 
HETATM    5  O   UNL     1      29.168  39.944  52.000  1.00  0.00    -0.265 OA
HETATM    6  H   UNL     1      27.113  41.448  50.121  1.00  0.00     0.162 HD
BRANCH   4   7
HETATM    7  C   UNL     1      28.570  39.464  49.766  1.00  0.00     0.143 A 
HETATM    8  O   UNL     1      28.051  40.011  48.621  1.00  0.00    -0.310 OA
HETATM    9  C   UNL     1      28.258  39.115  47.615  1.00  0.00     0.053 A 
HETATM   10  C   UNL     1      28.900  37.995  48.101  1.00  0.00     0.036 A 
HETATM   11  C   UNL     1      29.105  38.223  49.482  1.00  0.00     0.045 A 
BRANCH   9  12
HETATM   12  C   UNL     1      27.775  39.507  46.269  1.00  0.00     0.060 C 
HETATM   13  C   UNL     1      28.166  40.936  45.928  1.00  0.00     0.012 C 
ENDBRANCH   9  12
ENDBRANCH   4   7
ENDBRANCH   2   3
ENDBRANCH   1   2
BRANCH   1  14
HETATM   14  N   UNL     1      27.477  44.586  51.565  1.00  0.00    -0.345 N 
HETATM   15  C   UNL     1      26.953  44.732  50.302  1.00  0.00     0.276 C 
HETATM   16  O   UNL     1      27.146  43.927  49.396  1.00  0.00    -0.265 OA
HETATM   17  H   UNL     1      27.174  45.271  52.246  1.00  0.00     0.163 HD
BRANCH  15  18
HETATM   18  C   UNL     1      26.156  45.930  50.133  1.00  0.00     0.143 A 
HETATM   19  O   UNL     1      26.692  47.019  49.491  1.00  0.00    -0.310 OA
HETATM   20  C   UNL     1      25.735  47.989  49.475  1.00  0.00     0.053 A 
HETATM   21  C   UNL     1      24.590  47.540  50.096  1.00  0.00     0.036 A 
HETATM   22  C   UNL     1      24.862  46.218  50.523  1.00  0.00     0.045 A 
BRANCH  20  23
HETATM   23  C   UNL     1      26.098  49.272  48.821  1.00  0.00     0.060 C 
HETATM   24  C   UNL     1      27.590  49.549  48.923  1.00  0.00     0.012 C 
ENDBRANCH  20  23
ENDBRANCH  15  18
ENDBRANCH   1  14
BRANCH   1  25
HETATM   25  C   UNL     1      28.870  43.720  53.393  1.00  0.00    -0.031 A 
HETATM   26  C   UNL     1      28.365  44.738  54.222  1.00  0.00     0.049 A 
HETATM   27  C   UNL     1      28.994  45.053  55.426  1.00  0.00     0.102 A 
HETATM   28  C   UNL     1      30.151  44.371  55.811  1.00  0.00     0.102 A 
HETATM   29  O   UNL     1      28.427  46.054  56.172  1.00  0.00    -0.346 OA
HETATM   30  O   UNL     1      30.847  44.659  56.958  1.00  0.00    -0.346 OA
HETATM   31  C   UNL     1      30.649  43.343  55.016  1.00  0.00     0.040 A 
HETATM   32  C   UNL     1      30.469  45.936  57.484  1.00  0.00     0.202 C 
HETATM   33  C   UNL     1      28.956  46.079  57.503  1.00  0.00     0.202 C 
HETATM   34  C   UNL     1      30.014  43.021  53.814  1.00  0.00     0.012 A 
ENDBRANCH   1  25
TORSDOF 8
ENDMDL
MODEL 2
REMARK VINA RESULT:      -9.4      1.419      2.372
REMARK  8 active torsions:
REMARK  status: ('A' for Active; 'I' for Inactive)
REMARK    1  A    between atoms: C_2  and  C_3 
REMARK    2  A    between atoms: C_5  and  C_6 
REMARK       I    between atoms: C_6  and  N_7 
REMARK    3  A    between atoms: N_7  and  C_8 
REMARK    4  A    between atoms: C_8  and  C_9 
REMARK    5  A    between atoms: C_9  and  N_10 
REMARK    6  A    between atoms: C_9  and  C_20 
REMARK       I    between atoms: N_10  and  C_11 
REMARK    7  A    between atoms: C_11  and  C_12 
REMARK    8  A    between atoms: C_14  and  C_15 
ROOT
HETATM    1  C   UNL     1      27.765  43.931  52.607  1.00  0.00     0.136 C 
ENDROOT
BRANCH   1   2
HETATM    2  C   UNL     1      26.943  42.647  52.886  1.00  0.00     0.153 C 
BRANCH   2   3
HETATM    3  N   UNL     1      27.313  41.529  52.037  1.00  0.00    -0.353 N 
HETATM    4  C   UNL     1      26.578  41.163  50.933  1.00  0.00     0.275 C 
HETATM    5  O   UNL     1      25.572  41.778  50.585  1.00  0.00    -0.265 OA
HETATM    6  H   UNL     1      28.075  40.926  52.325  1.00  0.00     0.162 HD
BRANCH   4   7
HETATM    7  C   UNL     1      27.093  40.006  50.234  1.00  0.00     0.143 A 
HETATM    8  O   UNL     1      28.332  39.515  50.559  1.00  0.00    -0.310 OA
HETATM    9  C   UNL     1      28.565  38.441  49.753  1.00  0.00     0.053 A 
HETATM   10  C   UNL     1      27.494  38.237  48.910  1.00  0.00     0.036 A 
HETATM   11  C   UNL     1      26.546  39.240  49.223  1.00  0.00     0.045 A 
BRANCH   9  12
HETATM   12  C   UNL     1      29.861  37.743  49.940  1.00  0.00     0.060 C 
HETATM   13  C   UNL     1      29.956  37.096  51.311  1.00  0.00     0.012 C 
ENDBRANCH   9  12
ENDBRANCH   4   7
ENDBRANCH   2   3
ENDBRANCH   1   2
BRANCH   1  14
HETATM   14  N   UNL     1      27.041  45.026  51.965  1.00  0.00    -0.345 N 
HETATM   15  C   UNL     1      26.839  45.181  50.614  1.00  0.00     0.276 C 
HETATM   16  O   UNL     1      27.372  44.470  49.768  1.00  0.00    -0.265 OA
HETATM   17  H   UNL     1      26.477  45.619  52.562  1.00  0.00     0.163 HD
BRANCH  15  18
HETATM   18  C   UNL     1      25.940  46.267  50.276  1.00  0.00     0.143 A 
HETATM   19  O   UNL     1      26.427  47.372  49.623  1.00  0.00    -0.310 OA
HETATM   20  C   UNL     1      25.378  48.223  49.435  1.00  0.00     0.053 A 
HETATM   21  C   UNL     1      24.224  47.679  49.956  1.00  0.00     0.036 A 
HETATM   22  C   UNL     1      24.586  46.425  50.501  1.00  0.00     0.045 A 
BRANCH  20  23
HETATM   23  C   UNL     1      25.674  49.500  48.737  1.00  0.00     0.060 C 
HETATM   24  C   UNL     1      27.166  49.786  48.703  1.00  0.00     0.012 C 
ENDBRANCH  20  23
ENDBRANCH  15  18
ENDBRANCH   1  14
BRANCH   1  25
HETATM   25  C   UNL     1      28.496  44.417  53.848  1.00  0.00    -0.031 A 
HETATM   26  C   UNL     1      29.455  43.591  54.461  1.00  0.00     0.049 A 
HETATM   27  C   UNL     1      30.119  44.008  55.614  1.00  0.00     0.102 A 
HETATM   28  C   UNL     1      29.819  45.246  56.187  1.00  0.00     0.102 A 
HETATM   29  O   UNL     1      31.043  43.141  56.139  1.00  0.00    -0.346 OA
HETATM   30  O   UNL     1      30.398  45.700  57.344  1.00  0.00    -0.346 OA
HETATM   31  C   UNL     1      28.892  46.087  55.578  1.00  0.00     0.040 A 
HETATM   32  C   UNL     1      31.031  44.632  58.058  1.00  0.00     0.202 C 
HETATM   33  C   UNL     1      31.871  43.785  57.115  1.00  0.00     0.202 C 
HETATM   34  C   UNL     1      28.232  45.674  54.417  1.00  0.00     0.012 A 
ENDBRANCH   1  25
TORSDOF 8
ENDMDL
MODEL 3
REMARK VINA RESULT:      -9.2      2.899      7.523
REMARK  8 active torsions:
REMARK  status: ('A' for Active; 'I' for Inactive)
REMARK    1  A    between atoms: C_2  and  C_3 
REMARK    2  A    between atoms: C_5  and  C_6 
REMARK       I    between atoms: C_6  and  N_7 
REMARK    3  A    between atoms: N_7  and  C_8 
REMARK    4  A    between atoms: C_8  and  C_9 
REMARK    5  A    between atoms: C_9  and  N_10 
REMARK    6  A    between atoms: C_9  and  C_20 
REMARK       I    between atoms: N_10  and  C_11 
REMARK    7  A    between atoms: C_11  and  C_12 
REMARK    8  A    between atoms: C_14  and  C_15 
ROOT
HETATM    1  C   UNL     1      24.499  45.471  50.441  1.00  0.00     0.136 C 
ENDROOT
BRANCH   1   2
HETATM    2  C   UNL     1      25.393  44.573  49.549  1.00  0.00     0.153 C 
BRANCH   2   3
HETATM    3  N   UNL     1      26.423  43.866  50.289  1.00  0.00    -0.353 N 
HETATM    4  C   UNL     1      26.255  42.579  50.747  1.00  0.00     0.275 C 
HETATM    5  O   UNL     1      25.227  41.940  50.535  1.00  0.00    -0.265 OA
HETATM    6  H   UNL     1      27.253  44.371  50.578  1.00  0.00     0.162 HD
BRANCH   4   7
HETATM    7  C   UNL     1      27.385  42.061  51.487  1.00  0.00     0.143 A 
HETATM    8  O   UNL     1      28.275  42.932  52.062  1.00  0.00    -0.310 OA
HETATM    9  C   UNL     1      29.229  42.183  52.684  1.00  0.00     0.053 A 
HETATM   10  C   UNL     1      28.966  40.841  52.513  1.00  0.00     0.036 A 
HETATM   11  C   UNL     1      27.778  40.762  51.749  1.00  0.00     0.045 A 
BRANCH   9  12
HETATM   12  C   UNL     1      30.302  42.929  53.385  1.00  0.00     0.060 C 
HETATM   13  C   UNL     1      30.116  42.895  54.893  1.00  0.00     0.012 C 
ENDBRANCH   9  12
ENDBRANCH   4   7
ENDBRANCH   2   3
ENDBRANCH   1   2
BRANCH   1  14
HETATM   14  N   UNL     1      25.155  46.076  51.598  1.00  0.00    -0.345 N 
HETATM   15  C   UNL     1      25.315  45.495  52.834  1.00  0.00     0.276 C 
HETATM   16  O   UNL     1      24.795  44.430  53.149  1.00  0.00    -0.265 OA
HETATM   17  H   UNL     1      25.705  46.910  51.433  1.00  0.00     0.163 HD
BRANCH  15  18
HETATM   18  C   UNL     1      26.153  46.259  53.737  1.00  0.00     0.143 A 
HETATM   19  O   UNL     1      27.286  45.687  54.260  1.00  0.00    -0.310 OA
HETATM   20  C   UNL     1      27.872  46.619  55.065  1.00  0.00     0.053 A 
HETATM   21  C   UNL     1      27.133  47.782  55.065  1.00  0.00     0.036 A 
HETATM   22  C   UNL     1      26.026  47.549  54.215  1.00  0.00     0.045 A 
BRANCH  20  23
HETATM   23  C   UNL     1      29.130  46.214  55.744  1.00  0.00     0.060 C 
HETATM   24  C   UNL     1      28.924  46.027  57.238  1.00  0.00     0.012 C 
ENDBRANCH  20  23
ENDBRANCH  15  18
ENDBRANCH   1  14
BRANCH   1  25
HETATM   25  C   UNL     1      23.757  46.518  49.627  1.00  0.00    -0.031 A 
HETATM   26  C   UNL     1      23.978  47.884  49.878  1.00  0.00     0.049 A 
HETATM   27  C   UNL     1      23.288  48.860  49.159  1.00  0.00     0.102 A 
HETATM   28  C   UNL     1      22.349  48.487  48.195  1.00  0.00     0.102 A 
HETATM   29  O   UNL     1      23.574  50.166  49.466  1.00  0.00    -0.346 OA
HETATM   30  O   UNL     1      21.602  49.390  47.484  1.00  0.00    -0.346 OA
HETATM   31  C   UNL     1      22.137  47.140  47.916  1.00  0.00     0.040 A 
HETATM   32  C   UNL     1      21.633  50.683  48.099  1.00  0.00     0.202 C 
HETATM   33  C   UNL     1      23.056  51.062  48.475  1.00  0.00     0.202 C 
HETATM   34  C   UNL     1      22.835  46.161  48.629  1.00  0.00     0.012 A 
ENDBRANCH   1  25
TORSDOF 8
ENDMDL
MODEL 4
REMARK VINA RESULT:      -9.1      1.846      6.784
REMARK  8 active torsions:
REMARK  status: ('A' for Active; 'I' for Inactive)
REMARK    1  A    between atoms: C_2  and  C_3 
REMARK    2  A    between atoms: C_5  and  C_6 
REMARK       I    between atoms: C_6  and  N_7 
REMARK    3  A    between atoms: N_7  and  C_8 
REMARK    4  A    between atoms: C_8  and  C_9 
REMARK    5  A    between atoms: C_9  and  N_10 
REMARK    6  A    between atoms: C_9  and  C_20 
REMARK       I    between atoms: N_10  and  C_11 
REMARK    7  A    between atoms: C_11  and  C_12 
REMARK    8  A    between atoms: C_14  and  C_15 
ROOT
HETATM    1  C   UNL     1      25.451  45.604  51.643  1.00  0.00     0.136 C 
ENDROOT
BRANCH   1   2
HETATM    2  C   UNL     1      25.219  44.291  50.854  1.00  0.00     0.153 C 
BRANCH   2   3
HETATM    3  N   UNL     1      26.119  43.220  51.240  1.00  0.00    -0.353 N 
HETATM    4  C   UNL     1      27.033  42.669  50.370  1.00  0.00     0.275 C 
HETATM    5  O   UNL     1      27.156  43.070  49.215  1.00  0.00    -0.265 OA
HETATM    6  H   UNL     1      26.001  42.782  52.147  1.00  0.00     0.162 HD
BRANCH   4   7
HETATM    7  C   UNL     1      27.818  41.594  50.935  1.00  0.00     0.143 A 
HETATM    8  O   UNL     1      28.163  40.523  50.152  1.00  0.00    -0.310 OA
HETATM    9  C   UNL     1      28.888  39.670  50.929  1.00  0.00     0.053 A 
HETATM   10  C   UNL     1      29.009  40.176  52.206  1.00  0.00     0.036 A 
HETATM   11  C   UNL     1      28.326  41.415  52.208  1.00  0.00     0.045 A 
BRANCH   9  12
HETATM   12  C   UNL     1      29.376  38.431  50.275  1.00  0.00     0.060 C 
HETATM   13  C   UNL     1      29.049  38.415  48.791  1.00  0.00     0.012 C 
ENDBRANCH   9  12
ENDBRANCH   4   7
ENDBRANCH   2   3
ENDBRANCH   1   2
BRANCH   1  14
HETATM   14  N   UNL     1      26.589  45.607  52.559  1.00  0.00    -0.345 N 
HETATM   15  C   UNL     1      26.560  45.971  53.885  1.00  0.00     0.276 C 
HETATM   16  O   UNL     1      25.579  46.474  54.424  1.00  0.00    -0.265 OA
HETATM   17  H   UNL     1      27.426  45.124  52.257  1.00  0.00     0.163 HD
BRANCH  15  18
HETATM   18  C   UNL     1      27.799  45.712  54.592  1.00  0.00     0.143 A 
HETATM   19  O   UNL     1      28.414  44.493  54.459  1.00  0.00    -0.310 OA
HETATM   20  C   UNL     1      29.543  44.526  55.222  1.00  0.00     0.053 A 
HETATM   21  C   UNL     1      29.663  45.751  55.843  1.00  0.00     0.036 A 
HETATM   22  C   UNL     1      28.540  46.511  55.441  1.00  0.00     0.045 A 
BRANCH  20  23
HETATM   23  C   UNL     1      30.379  43.298  55.229  1.00  0.00     0.060 C 
HETATM   24  C   UNL     1      31.273  43.237  56.457  1.00  0.00     0.012 C 
ENDBRANCH  20  23
ENDBRANCH  15  18
ENDBRANCH   1  14
BRANCH   1  25
HETATM   25  C   UNL     1      25.488  46.817  50.727  1.00  0.00    -0.031 A 
HETATM   26  C   UNL     1      24.309  47.543  50.481  1.00  0.00     0.049 A 
HETATM   27  C   UNL     1      24.317  48.643  49.624  1.00  0.00     0.102 A 
HETATM   28  C   UNL     1      25.498  49.021  48.980  1.00  0.00     0.102 A 
HETATM   29  O   UNL     1      23.123  49.295  49.449  1.00  0.00    -0.346 OA
HETATM   30  O   UNL     1      25.569  50.062  48.090  1.00  0.00    -0.346 OA
HETATM   31  C   UNL     1      26.679  48.330  49.233  1.00  0.00     0.040 A 
HETATM   32  C   UNL     1      24.265  50.446  47.639  1.00  0.00     0.202 C 
HETATM   33  C   UNL     1      23.308  50.566  48.815  1.00  0.00     0.202 C 
HETATM   34  C   UNL     1      26.674  47.233  50.099  1.00  0.00     0.012 A 
ENDBRANCH   1  25
TORSDOF 8
ENDMDL
MODEL 5
REMARK VINA RESULT:      -9.1      1.849      8.265
REMARK  8 active torsions:
REMARK  status: ('A' for Active; 'I' for Inactive)
REMARK    1  A    between atoms: C_2  and  C_3 
REMARK    2  A    between atoms: C_5  and  C_6 
REMARK       I    between atoms: C_6  and  N_7 
REMARK    3  A    between atoms: N_7  and  C_8 
REMARK    4  A    between atoms: C_8  and  C_9 
REMARK    5  A    between atoms: C_9  and  N_10 
REMARK    6  A    between atoms: C_9  and  C_20 
REMARK       I    between atoms: N_10  and  C_11 
REMARK    7  A    between atoms: C_11  and  C_12 
REMARK    8  A    between atoms: C_14  and  C_15 
ROOT
HETATM    1  C   UNL     1      27.301  43.753  50.666  1.00  0.00     0.136 C 
ENDROOT
BRANCH   1   2
HETATM    2  C   UNL     1      25.957  44.525  50.683  1.00  0.00     0.153 C 
BRANCH   2   3
HETATM    3  N   UNL     1      26.007  45.785  49.964  1.00  0.00    -0.353 N 
HETATM    4  C   UNL     1      26.115  46.999  50.604  1.00  0.00     0.275 C 
HETATM    5  O   UNL     1      26.198  47.087  51.827  1.00  0.00    -0.265 OA
HETATM    6  H   UNL     1      25.847  45.786  48.963  1.00  0.00     0.162 HD
BRANCH   4   7
HETATM    7  C   UNL     1      26.119  48.140  49.714  1.00  0.00     0.143 A 
HETATM    8  O   UNL     1      24.930  48.700  49.325  1.00  0.00    -0.310 OA
HETATM    9  C   UNL     1      25.225  49.741  48.496  1.00  0.00     0.053 A 
HETATM   10  C   UNL     1      26.590  49.855  48.343  1.00  0.00     0.036 A 
HETATM   11  C   UNL     1      27.165  48.829  49.130  1.00  0.00     0.045 A 
BRANCH   9  12
HETATM   12  C   UNL     1      24.073  50.504  47.956  1.00  0.00     0.060 C 
HETATM   13  C   UNL     1      22.785  49.703  48.034  1.00  0.00     0.012 C 
ENDBRANCH   9  12
ENDBRANCH   4   7
ENDBRANCH   2   3
ENDBRANCH   1   2
BRANCH   1  14
HETATM   14  N   UNL     1      28.147  43.915  51.847  1.00  0.00    -0.345 N 
HETATM   15  C   UNL     1      27.751  43.754  53.154  1.00  0.00     0.276 C 
HETATM   16  O   UNL     1      26.583  43.584  53.487  1.00  0.00    -0.265 OA
HETATM   17  H   UNL     1      29.147  43.961  51.695  1.00  0.00     0.163 HD
BRANCH  15  18
HETATM   18  C   UNL     1      28.841  43.811  54.108  1.00  0.00     0.143 A 
HETATM   19  O   UNL     1      28.902  44.843  55.010  1.00  0.00    -0.310 OA
HETATM   20  C   UNL     1      30.014  44.646  55.773  1.00  0.00     0.053 A 
HETATM   21  C   UNL     1      30.669  43.501  55.375  1.00  0.00     0.036 A 
HETATM   22  C   UNL     1      29.917  42.966  54.302  1.00  0.00     0.045 A 
BRANCH  20  23
HETATM   23  C   UNL     1      30.282  45.654  56.831  1.00  0.00     0.060 C 
HETATM   24  C   UNL     1      30.806  45.005  58.102  1.00  0.00     0.012 C 
ENDBRANCH  20  23
ENDBRANCH  15  18
ENDBRANCH   1  14
BRANCH   1  25
HETATM   25  C   UNL     1      27.105  42.282  50.336  1.00  0.00    -0.031 A 
HETATM   26  C   UNL     1      28.190  41.393  50.437  1.00  0.00     0.049 A 
HETATM   27  C   UNL     1      28.037  40.045  50.115  1.00  0.00     0.102 A 
HETATM   28  C   UNL     1      26.804  39.568  49.664  1.00  0.00     0.102 A 
HETATM   29  O   UNL     1      29.147  39.250  50.251  1.00  0.00    -0.346 OA
HETATM   30  O   UNL     1      26.593  38.267  49.285  1.00  0.00    -0.346 OA
HETATM   31  C   UNL     1      25.713  40.429  49.583  1.00  0.00     0.040 A 
HETATM   32  C   UNL     1      27.834  37.587  49.061  1.00  0.00     0.202 C 
HETATM   33  C   UNL     1      28.805  37.860  50.198  1.00  0.00     0.202 C 
HETATM   34  C   UNL     1      25.863  41.778  49.915  1.00  0.00     0.012 A 
ENDBRANCH   1  25
TORSDOF 8
ENDMDL
MODEL 6
REMARK VINA RESULT:      -9.1      2.373      8.337
REMARK  8 active torsions:
REMARK  status: ('A' for Active; 'I' for Inactive)
REMARK    1  A    between atoms: C_2  and  C_3 
REMARK    2  A    between atoms: C_5  and  C_6 
REMARK       I    between atoms: C_6  and  N_7 
REMARK    3  A    between atoms: N_7  and  C_8 
REMARK    4  A    between atoms: C_8  and  C_9 
REMARK    5  A    between atoms: C_9  and  N_10 
REMARK    6  A    between atoms: C_9  and  C_20 
REMARK       I    between atoms: N_10  and  C_11 
REMARK    7  A    between atoms: C_11  and  C_12 
REMARK    8  A    between atoms: C_14  and  C_15 
ROOT
HETATM    1  C   UNL     1      26.260  46.558  50.740  1.00  0.00     0.136 C 
ENDROOT
BRANCH   1   2
HETATM    2  C   UNL     1      25.838  46.573  52.231  1.00  0.00     0.153 C 
BRANCH   2   3
HETATM    3  N   UNL     1      26.941  46.341  53.146  1.00  0.00    -0.353 N 
HETATM    4  C   UNL     1      26.870  45.430  54.176  1.00  0.00     0.275 C 
HETATM    5  O   UNL     1      25.872  44.740  54.369  1.00  0.00    -0.265 OA
HETATM    6  H   UNL     1      27.754  46.945  53.098  1.00  0.00     0.162 HD
BRANCH   4   7
HETATM    7  C   UNL     1      28.062  45.365  54.993  1.00  0.00     0.143 A 
HETATM    8  O   UNL     1      28.905  44.290  54.877  1.00  0.00    -0.310 OA
HETATM    9  C   UNL     1      29.931  44.483  55.754  1.00  0.00     0.053 A 
HETATM   10  C   UNL     1      29.755  45.668  56.437  1.00  0.00     0.036 A 
HETATM   11  C   UNL     1      28.558  46.237  55.944  1.00  0.00     0.045 A 
BRANCH   9  12
HETATM   12  C   UNL     1      30.976  43.431  55.792  1.00  0.00     0.060 C 
HETATM   13  C   UNL     1      31.617  43.328  57.165  1.00  0.00     0.012 C 
ENDBRANCH   9  12
ENDBRANCH   4   7
ENDBRANCH   2   3
ENDBRANCH   1   2
BRANCH   1  14
HETATM   14  N   UNL     1      26.117  45.279  50.048  1.00  0.00    -0.345 N 
HETATM   15  C   UNL     1      26.878  44.154  50.261  1.00  0.00     0.276 C 
HETATM   16  O   UNL     1      27.873  44.140  50.978  1.00  0.00    -0.265 OA
HETATM   17  H   UNL     1      25.273  45.140  49.506  1.00  0.00     0.163 HD
BRANCH  15  18
HETATM   18  C   UNL     1      26.401  42.982  49.554  1.00  0.00     0.143 A 
HETATM   19  O   UNL     1      27.270  42.257  48.777  1.00  0.00    -0.310 OA
HETATM   20  C   UNL     1      26.562  41.224  48.238  1.00  0.00     0.053 A 
HETATM   21  C   UNL     1      25.251  41.273  48.659  1.00  0.00     0.036 A 
HETATM   22  C   UNL     1      25.147  42.405  49.501  1.00  0.00     0.045 A 
BRANCH  20  23
HETATM   23  C   UNL     1      27.310  40.296  47.352  1.00  0.00     0.060 C 
HETATM   24  C   UNL     1      28.179  41.050  46.358  1.00  0.00     0.012 C 
ENDBRANCH  20  23
ENDBRANCH  15  18
ENDBRANCH   1  14
BRANCH   1  25
HETATM   25  C   UNL     1      25.600  47.679  49.954  1.00  0.00    -0.031 A 
HETATM   26  C   UNL     1      24.199  47.790  49.937  1.00  0.00     0.049 A 
HETATM   27  C   UNL     1      23.574  48.796  49.201  1.00  0.00     0.102 A 
HETATM   28  C   UNL     1      24.337  49.693  48.451  1.00  0.00     0.102 A 
HETATM   29  O   UNL     1      22.203  48.831  49.249  1.00  0.00    -0.346 OA
HETATM   30  O   UNL     1      23.789  50.677  47.669  1.00  0.00    -0.346 OA
HETATM   31  C   UNL     1      25.727  49.614  48.478  1.00  0.00     0.040 A 
HETATM   32  C   UNL     1      22.398  50.432  47.431  1.00  0.00     0.202 C 
HETATM   33  C   UNL     1      21.693  50.063  48.727  1.00  0.00     0.202 C 
HETATM   34  C   UNL     1      26.355  48.612  49.223  1.00  0.00     0.012 A 
ENDBRANCH   1  25
TORSDOF 8
ENDMDL
MODEL 7
REMARK VINA RESULT:      -8.9      2.030      8.557
REMARK  8 active torsions:
REMARK  status: ('A' for Active; 'I' for Inactive)
REMARK    1  A    between atoms: C_2  and  C_3 
REMARK    2  A    between atoms: C_5  and  C_6 
REMARK       I    between atoms: C_6  and  N_7 
REMARK    3  A    between atoms: N_7  and  C_8 
REMARK    4  A    between atoms: C_8  and  C_9 
REMARK    5  A    between atoms: C_9  and  N_10 
REMARK    6  A    between atoms: C_9  and  C_20 
REMARK       I    between atoms: N_10  and  C_11 
REMARK    7  A    between atoms: C_11  and  C_12 
REMARK    8  A    between atoms: C_14  and  C_15 
ROOT
HETATM    1  C   UNL     1      25.959  45.328  51.334  1.00  0.00     0.136 C 
ENDROOT
BRANCH   1   2
HETATM    2  C   UNL     1      25.488  45.459  52.805  1.00  0.00     0.153 C 
BRANCH   2   3
HETATM    3  N   UNL     1      26.553  45.261  53.772  1.00  0.00    -0.353 N 
HETATM    4  C   UNL     1      27.247  46.309  54.334  1.00  0.00     0.275 C 
HETATM    5  O   UNL     1      26.990  47.480  54.065  1.00  0.00    -0.265 OA
HETATM    6  H   UNL     1      26.875  44.319  53.961  1.00  0.00     0.162 HD
BRANCH   4   7
HETATM    7  C   UNL     1      28.289  45.905  55.253  1.00  0.00     0.143 A 
HETATM    8  O   UNL     1      29.127  44.873  54.915  1.00  0.00    -0.310 OA
HETATM    9  C   UNL     1      29.997  44.704  55.950  1.00  0.00     0.053 A 
HETATM   10  C   UNL     1      29.727  45.612  56.952  1.00  0.00     0.036 A 
HETATM   11  C   UNL     1      28.633  46.387  56.501  1.00  0.00     0.045 A 
BRANCH   9  12
HETATM   12  C   UNL     1      31.010  43.631  55.795  1.00  0.00     0.060 C 
HETATM   13  C   UNL     1      31.737  43.353  57.099  1.00  0.00     0.012 C 
ENDBRANCH   9  12
ENDBRANCH   4   7
ENDBRANCH   2   3
ENDBRANCH   1   2
BRANCH   1  14
HETATM   14  N   UNL     1      26.201  43.968  50.859  1.00  0.00    -0.345 N 
HETATM   15  C   UNL     1      27.274  43.174  51.190  1.00  0.00     0.276 C 
HETATM   16  O   UNL     1      28.239  43.578  51.831  1.00  0.00    -0.265 OA
HETATM   17  H   UNL     1      25.430  43.494  50.405  1.00  0.00     0.163 HD
BRANCH  15  18
HETATM   18  C   UNL     1      27.165  41.811  50.708  1.00  0.00     0.143 A 
HETATM   19  O   UNL     1      28.274  41.179  50.203  1.00  0.00    -0.310 OA
HETATM   20  C   UNL     1      27.888  39.926  49.828  1.00  0.00     0.053 A 
HETATM   21  C   UNL     1      26.547  39.743  50.087  1.00  0.00     0.036 A 
HETATM   22  C   UNL     1      26.081  40.956  50.648  1.00  0.00     0.045 A 
BRANCH  20  23
HETATM   23  C   UNL     1      28.939  39.052  49.249  1.00  0.00     0.060 C 
HETATM   24  C   UNL     1      29.033  37.726  49.986  1.00  0.00     0.012 C 
ENDBRANCH  20  23
ENDBRANCH  15  18
ENDBRANCH   1  14
BRANCH   1  25
HETATM   25  C   UNL     1      25.050  46.084  50.379  1.00  0.00    -0.031 A 
HETATM   26  C   UNL     1      25.240  47.463  50.177  1.00  0.00     0.049 A 
HETATM   27  C   UNL     1      24.401  48.179  49.324  1.00  0.00     0.102 A 
HETATM   28  C   UNL     1      23.344  47.534  48.677  1.00  0.00     0.102 A 
HETATM   29  O   UNL     1      24.665  49.517  49.183  1.00  0.00    -0.346 OA
HETATM   30  O   UNL     1      22.453  48.183  47.862  1.00  0.00    -0.346 OA
HETATM   31  C   UNL     1      23.158  46.165  48.845  1.00  0.00     0.040 A 
HETATM   32  C   UNL     1      22.514  49.601  48.056  1.00  0.00     0.202 C 
HETATM   33  C   UNL     1      23.958  50.076  48.070  1.00  0.00     0.202 C 
HETATM   34  C   UNL     1      24.005  45.444  49.692  1.00  0.00     0.012 A 
ENDBRANCH   1  25
TORSDOF 8
ENDMDL
MODEL 8
REMARK VINA RESULT:      -8.8      1.906      6.589
REMARK  8 active torsions:
REMARK  status: ('A' for Active; 'I' for Inactive)
REMARK    1  A    between atoms: C_2  and  C_3 
REMARK    2  A    between atoms: C_5  and  C_6 
REMARK       I    between atoms: C_6  and  N_7 
REMARK    3  A    between atoms: N_7  and  C_8 
REMARK    4  A    between atoms: C_8  and  C_9 
REMARK    5  A    between atoms: C_9  and  N_10 
REMARK    6  A    between atoms: C_9  and  C_20 
REMARK       I    between atoms: N_10  and  C_11 
REMARK    7  A    between atoms: C_11  and  C_12 
REMARK    8  A    between atoms: C_14  and  C_15 
ROOT
HETATM    1  C   UNL     1      25.399  44.569  51.073  1.00  0.00     0.136 C 
ENDROOT
BRANCH   1   2
HETATM    2  C   UNL     1      24.792  43.530  50.097  1.00  0.00     0.153 C 
BRANCH   2   3
HETATM    3  N   UNL     1      25.447  42.236  50.150  1.00  0.00    -0.353 N 
HETATM    4  C   UNL     1      26.634  41.980  49.503  1.00  0.00     0.275 C 
HETATM    5  O   UNL     1      27.224  42.842  48.857  1.00  0.00    -0.265 OA
HETATM    6  H   UNL     1      24.964  41.458  50.586  1.00  0.00     0.162 HD
BRANCH   4   7
HETATM    7  C   UNL     1      27.112  40.622  49.654  1.00  0.00     0.143 A 
HETATM    8  O   UNL     1      28.371  40.398  50.149  1.00  0.00    -0.310 OA
HETATM    9  C   UNL     1      28.559  39.048  50.180  1.00  0.00     0.053 A 
HETATM   10  C   UNL     1      27.438  38.401  49.707  1.00  0.00     0.036 A 
HETATM   11  C   UNL     1      26.506  39.412  49.374  1.00  0.00     0.045 A 
BRANCH   9  12
HETATM   12  C   UNL     1      29.867  38.575  50.694  1.00  0.00     0.060 C 
HETATM   13  C   UNL     1      29.794  37.134  51.169  1.00  0.00     0.012 C 
ENDBRANCH   9  12
ENDBRANCH   4   7
ENDBRANCH   2   3
ENDBRANCH   1   2
BRANCH   1  14
HETATM   14  N   UNL     1      26.699  44.224  51.645  1.00  0.00    -0.345 N 
HETATM   15  C   UNL     1      27.014  44.200  52.983  1.00  0.00     0.276 C 
HETATM   16  O   UNL     1      26.258  44.605  53.860  1.00  0.00    -0.265 OA
HETATM   17  H   UNL     1      27.371  43.782  51.030  1.00  0.00     0.163 HD
BRANCH  15  18
HETATM   18  C   UNL     1      28.328  43.657  53.267  1.00  0.00     0.143 A 
HETATM   19  O   UNL     1      28.899  43.870  54.497  1.00  0.00    -0.310 OA
HETATM   20  C   UNL     1      30.117  43.255  54.486  1.00  0.00     0.053 A 
HETATM   21  C   UNL     1      30.334  42.649  53.268  1.00  0.00     0.036 A 
HETATM   22  C   UNL     1      29.187  42.911  52.483  1.00  0.00     0.045 A 
BRANCH  20  23
HETATM   23  C   UNL     1      30.922  43.355  55.730  1.00  0.00     0.060 C 
HETATM   24  C   UNL     1      30.593  44.617  56.511  1.00  0.00     0.012 C 
ENDBRANCH  20  23
ENDBRANCH  15  18
ENDBRANCH   1  14
BRANCH   1  25
HETATM   25  C   UNL     1      25.423  45.965  50.472  1.00  0.00    -0.031 A 
HETATM   26  C   UNL     1      24.214  46.626  50.193  1.00  0.00     0.049 A 
HETATM   27  C   UNL     1      24.214  47.896  49.619  1.00  0.00     0.102 A 
HETATM   28  C   UNL     1      25.422  48.518  49.293  1.00  0.00     0.102 A 
HETATM   29  O   UNL     1      22.988  48.467  49.389  1.00  0.00    -0.346 OA
HETATM   30  O   UNL     1      25.496  49.745  48.685  1.00  0.00    -0.346 OA
HETATM   31  C   UNL     1      26.628  47.889  49.586  1.00  0.00     0.040 A 
HETATM   32  C   UNL     1      24.237  50.113  48.111  1.00  0.00     0.202 C 
HETATM   33  C   UNL     1      23.107  49.864  49.097  1.00  0.00     0.202 C 
HETATM   34  C   UNL     1      26.629  46.619  50.171  1.00  0.00     0.012 A 
ENDBRANCH   1  25
TORSDOF 8
ENDMDL
MODEL 9
REMARK VINA RESULT:      -8.6      2.256      6.889
REMARK  8 active torsions:
REMARK  status: ('A' for Active; 'I' for Inactive)
REMARK    1  A    between atoms: C_2  and  C_3 
REMARK    2  A    between atoms: C_5  and  C_6 
REMARK       I    between atoms: C_6  and  N_7 
REMARK    3  A    between atoms: N_7  and  C_8 
REMARK    4  A    between atoms: C_8  and  C_9 
REMARK    5  A    between atoms: C_9  and  N_10 
REMARK    6  A    between atoms: C_9  and  C_20 
REMARK       I    between atoms: N_10  and  C_11 
REMARK    7  A    between atoms: C_11  and  C_12 
REMARK    8  A    between atoms: C_14  and  C_15 
ROOT
HETATM    1  C   UNL     1      26.177  44.895  52.466  1.00  0.00     0.136 C 
ENDROOT
BRANCH   1   2
HETATM    2  C   UNL     1      26.310  46.404  52.139  1.00  0.00     0.153 C 
BRANCH   2   3
HETATM    3  N   UNL     1      25.220  46.917  51.328  1.00  0.00    -0.353 N 
HETATM    4  C   UNL     1      25.430  47.702  50.217  1.00  0.00     0.275 C 
HETATM    5  O   UNL     1      26.558  47.998  49.832  1.00  0.00    -0.265 OA
HETATM    6  H   UNL     1      24.267  46.787  51.648  1.00  0.00     0.162 HD
BRANCH   4   7
HETATM    7  C   UNL     1      24.216  48.137  49.561  1.00  0.00     0.143 A 
HETATM    8  O   UNL     1      23.976  49.477  49.400  1.00  0.00    -0.310 OA
HETATM    9  C   UNL     1      22.777  49.600  48.763  1.00  0.00     0.053 A 
HETATM   10  C   UNL     1      22.240  48.354  48.517  1.00  0.00     0.036 A 
HETATM   11  C   UNL     1      23.167  47.414  49.025  1.00  0.00     0.045 A 
BRANCH   9  12
HETATM   12  C   UNL     1      22.318  50.981  48.478  1.00  0.00     0.060 C 
HETATM   13  C   UNL     1      20.801  51.076  48.464  1.00  0.00     0.012 C 
ENDBRANCH   9  12
ENDBRANCH   4   7
ENDBRANCH   2   3
ENDBRANCH   1   2
BRANCH   1  14
HETATM   14  N   UNL     1      25.976  44.009  51.321  1.00  0.00    -0.345 N 
HETATM   15  C   UNL     1      26.687  44.032  50.145  1.00  0.00     0.276 C 
HETATM   16  O   UNL     1      27.500  44.908  49.867  1.00  0.00    -0.265 OA
HETATM   17  H   UNL     1      25.402  43.188  51.469  1.00  0.00     0.163 HD
BRANCH  15  18
HETATM   18  C   UNL     1      26.386  42.927  49.256  1.00  0.00     0.143 A 
HETATM   19  O   UNL     1      27.410  42.177  48.734  1.00  0.00    -0.310 OA
HETATM   20  C   UNL     1      26.845  41.220  47.943  1.00  0.00     0.053 A 
HETATM   21  C   UNL     1      25.473  41.344  47.951  1.00  0.00     0.036 A 
HETATM   22  C   UNL     1      25.178  42.444  48.791  1.00  0.00     0.045 A 
BRANCH  20  23
HETATM   23  C   UNL     1      27.776  40.281  47.268  1.00  0.00     0.060 C 
HETATM   24  C   UNL     1      28.588  39.479  48.273  1.00  0.00     0.012 C 
ENDBRANCH  20  23
ENDBRANCH  15  18
ENDBRANCH   1  14
BRANCH   1  25
HETATM   25  C   UNL     1      27.318  44.402  53.341  1.00  0.00    -0.031 A 
HETATM   26  C   UNL     1      27.939  45.285  54.241  1.00  0.00     0.049 A 
HETATM   27  C   UNL     1      29.004  44.859  55.035  1.00  0.00     0.102 A 
HETATM   28  C   UNL     1      29.481  43.551  54.924  1.00  0.00     0.102 A 
HETATM   29  O   UNL     1      29.543  45.787  55.890  1.00  0.00    -0.346 OA
HETATM   30  O   UNL     1      30.552  43.078  55.638  1.00  0.00    -0.346 OA
HETATM   31  C   UNL     1      28.861  42.657  54.057  1.00  0.00     0.040 A 
HETATM   32  C   UNL     1      31.316  44.153  56.196  1.00  0.00     0.202 C 
HETATM   33  C   UNL     1      30.401  45.171  56.858  1.00  0.00     0.202 C 
HETATM   34  C   UNL     1      27.787  43.079  53.268  1.00  0.00     0.012 A 
ENDBRANCH   1  25
TORSDOF 8
ENDMDL
MODEL 10
REMARK VINA RESULT:      -8.6      1.837      7.016
REMARK  8 active torsions:
REMARK  status: ('A' for Active; 'I' for Inactive)
REMARK    1  A    between atoms: C_2  and  C_3 
REMARK    2  A    between atoms: C_5  and  C_6 
REMARK       I    between atoms: C_6  and  N_7 
REMARK    3  A    between atoms: N_7  and  C_8 
REMARK    4  A    between atoms: C_8  and  C_9 
REMARK    5  A    between atoms: C_9  and  N_10 
REMARK    6  A    between atoms: C_9  and  C_20 
REMARK       I    between atoms: N_10  and  C_11 
REMARK    7  A    between atoms: C_11  and  C_12 
REMARK    8  A    between atoms: C_14  and  C_15 
ROOT
HETATM    1  C   UNL     1      26.973  43.927  51.548  1.00  0.00     0.136 C 
ENDROOT
BRANCH   1   2
HETATM    2  C   UNL     1      27.220  45.086  50.549  1.00  0.00     0.153 C 
BRANCH   2   3
HETATM    3  N   UNL     1      25.998  45.664  50.022  1.00  0.00    -0.353 N 
HETATM    4  C   UNL     1      25.561  46.921  50.373  1.00  0.00     0.275 C 
HETATM    5  O   UNL     1      26.196  47.641  51.140  1.00  0.00    -0.265 OA
HETATM    6  H   UNL     1      25.383  45.085  49.461  1.00  0.00     0.162 HD
BRANCH   4   7
HETATM    7  C   UNL     1      24.307  47.306  49.763  1.00  0.00     0.143 A 
HETATM    8  O   UNL     1      23.901  48.614  49.818  1.00  0.00    -0.310 OA
HETATM    9  C   UNL     1      22.700  48.692  49.177  1.00  0.00     0.053 A 
HETATM   10  C   UNL     1      22.326  47.448  48.715  1.00  0.00     0.036 A 
HETATM   11  C   UNL     1      23.361  46.558  49.087  1.00  0.00     0.045 A 
BRANCH   9  12
HETATM   12  C   UNL     1      22.072  50.034  49.110  1.00  0.00     0.060 C 
HETATM   13  C   UNL     1      23.091  51.115  48.793  1.00  0.00     0.012 C 
ENDBRANCH   9  12
ENDBRANCH   4   7
ENDBRANCH   2   3
ENDBRANCH   1   2
BRANCH   1  14
HETATM   14  N   UNL     1      27.031  42.578  50.990  1.00  0.00    -0.345 N 
HETATM   15  C   UNL     1      26.072  41.987  50.202  1.00  0.00     0.276 C 
HETATM   16  O   UNL     1      24.974  42.489  49.986  1.00  0.00    -0.265 OA
HETATM   17  H   UNL     1      27.925  42.105  51.020  1.00  0.00     0.163 HD
BRANCH  15  18
HETATM   18  C   UNL     1      26.473  40.707  49.652  1.00  0.00     0.143 A 
HETATM   19  O   UNL     1      27.516  40.020  50.221  1.00  0.00    -0.310 OA
HETATM   20  C   UNL     1      27.673  38.866  49.511  1.00  0.00     0.053 A 
HETATM   21  C   UNL     1      26.745  38.802  48.495  1.00  0.00     0.036 A 
HETATM   22  C   UNL     1      25.976  39.987  48.582  1.00  0.00     0.045 A 
BRANCH  20  23
HETATM   23  C   UNL     1      28.757  37.954  49.956  1.00  0.00     0.060 C 
HETATM   24  C   UNL     1      30.037  38.180  49.167  1.00  0.00     0.012 C 
ENDBRANCH  20  23
ENDBRANCH  15  18
ENDBRANCH   1  14
BRANCH   1  25
HETATM   25  C   UNL     1      27.856  44.044  52.780  1.00  0.00    -0.031 A 
HETATM   26  C   UNL     1      27.612  45.061  53.721  1.00  0.00     0.049 A 
HETATM   27  C   UNL     1      28.426  45.200  54.845  1.00  0.00     0.102 A 
HETATM   28  C   UNL     1      29.510  44.340  55.035  1.00  0.00     0.102 A 
HETATM   29  O   UNL     1      28.109  46.215  55.711  1.00  0.00    -0.346 OA
HETATM   30  O   UNL     1      30.379  44.448  56.091  1.00  0.00    -0.346 OA
HETATM   31  C   UNL     1      29.750  43.312  54.128  1.00  0.00     0.040 A 
HETATM   32  C   UNL     1      30.260  45.725  56.729  1.00  0.00     0.202 C 
HETATM   33  C   UNL     1      28.798  46.073  56.959  1.00  0.00     0.202 C 
HETATM   34  C   UNL     1      28.929  43.166  53.006  1.00  0.00     0.012 A 
ENDBRANCH   1  25
TORSDOF 8
ENDMDL
