MODEL 1
REMARK VINA RESULT:      -9.4      0.000      0.000
REMARK  9 active torsions:
REMARK  status: ('A' for Active; 'I' for Inactive)
REMARK    1  A    between atoms: C_4  and  S_5 
REMARK    2  A    between atoms: S_5  and  C_6 
REMARK    3  A    between atoms: C_6  and  C_7 
REMARK       I    between atoms: C_7  and  N_8 
REMARK    4  A    between atoms: N_8  and  C_9 
REMARK    5  A    between atoms: C_10  and  O_11 
REMARK    6  A    between atoms: C_22  and  C_23 
REMARK    7  A    between atoms: C_29  and  C_30 
REMARK       I    between atoms: C_30  and  N_31 
REMARK    8  A    between atoms: N_31  and  C_32 
REMARK    9  A    between atoms: C_33  and  O_34 
ROOT
HETATM    1  C   UNL     1      28.843  40.926  52.009  1.00  0.00     0.069 C 
HETATM    2  C   UNL     1      27.583  41.591  51.500  1.00  0.00     0.019 A 
HETATM    3  N   UNL     1      27.103  41.075  50.311  1.00  0.00    -0.353 N 
HETATM    4  C   UNL     1      26.026  41.550  49.605  1.00  0.00     0.087 A 
HETATM    5  C   UNL     1      25.312  42.583  50.106  1.00  0.00     0.055 A 
HETATM    6  C   UNL     1      24.270  43.262  49.232  1.00  0.00     0.019 C 
HETATM    7  N   UNL     1      23.405  43.825  48.507  1.00  0.00    -0.096 N 
HETATM    8  C   UNL     1      25.746  43.292  51.400  1.00  0.00     0.104 A 
HETATM    9  C   UNL     1      26.951  42.636  52.097  1.00  0.00     0.046 A 
HETATM   10  H   UNL     1      27.625  40.324  49.867  1.00  0.00     0.166 HD
ENDROOT
BRANCH   4  11
HETATM   11  S   UNL     1      25.634  40.843  48.046  1.00  0.00    -0.102 SA
BRANCH  11  12
HETATM   12  C   UNL     1      27.185  41.195  47.144  1.00  0.00     0.184 C 
BRANCH  12  13
HETATM   13  C   UNL     1      27.516  40.065  46.200  1.00  0.00     0.231 C 
HETATM   14  N   UNL     1      27.822  38.807  46.620  1.00  0.00    -0.324 N 
HETATM   15  H   UNL     1      28.107  38.222  45.837  1.00  0.00     0.169 HD
HETATM   16  O   UNL     1      27.544  40.277  44.980  1.00  0.00    -0.272 OA
BRANCH  14  17
HETATM   17  C   UNL     1      27.916  38.145  47.864  1.00  0.00     0.070 A 
HETATM   18  C   UNL     1      26.841  37.272  48.171  1.00  0.00     0.095 A 
HETATM   19  C   UNL     1      26.840  36.544  49.363  1.00  0.00     0.041 A 
HETATM   20  C   UNL     1      27.890  36.686  50.268  1.00  0.00     0.026 A 
HETATM   21  C   UNL     1      28.933  37.560  49.980  1.00  0.00     0.036 A 
HETATM   22 CL   UNL     1      30.218  37.748  51.111  1.00  0.00    -0.084 Cl
HETATM   23  C   UNL     1      28.949  38.290  48.789  1.00  0.00     0.056 A 
BRANCH  18  24
HETATM   24  O   UNL     1      25.853  37.206  47.214  1.00  0.00    -0.354 OA
HETATM   25  C   UNL     1      24.934  36.125  47.298  1.00  0.00     0.210 C 
ENDBRANCH  18  24
ENDBRANCH  14  17
ENDBRANCH  12  13
ENDBRANCH  11  12
ENDBRANCH   4  11
BRANCH   8  26
HETATM   26  C   UNL     1      25.971  44.776  51.075  1.00  0.00    -0.044 A 
HETATM   27  C   UNL     1      25.279  45.761  51.804  1.00  0.00     0.008 A 
HETATM   28  C   UNL     1      25.424  47.112  51.485  1.00  0.00     0.001 A 
HETATM   29  C   UNL     1      26.258  47.496  50.438  1.00  0.00     0.000 A 
HETATM   30  C   UNL     1      26.943  46.530  49.702  1.00  0.00     0.001 A 
HETATM   31  C   UNL     1      26.797  45.177  50.011  1.00  0.00     0.008 A 
ENDBRANCH   8  26
BRANCH   9  32
HETATM   32  C   UNL     1      27.396  43.054  53.480  1.00  0.00     0.255 C 
HETATM   33  N   UNL     1      28.436  43.946  53.558  1.00  0.00    -0.321 N 
HETATM   34  H   UNL     1      28.760  44.438  52.736  1.00  0.00     0.169 HD
HETATM   35  O   UNL     1      26.792  42.635  54.467  1.00  0.00    -0.268 OA
BRANCH  33  36
HETATM   36  C   UNL     1      29.187  44.292  54.710  1.00  0.00     0.068 A 
HETATM   37  C   UNL     1      28.847  45.495  55.365  1.00  0.00     0.095 A 
HETATM   38  C   UNL     1      29.592  45.920  56.470  1.00  0.00     0.039 A 
HETATM   39  C   UNL     1      30.677  45.163  56.916  1.00  0.00     0.003 A 
HETATM   40  C   UNL     1      31.016  43.978  56.269  1.00  0.00     0.002 A 
HETATM   41  C   UNL     1      30.271  43.541  55.171  1.00  0.00     0.032 A 
BRANCH  37  42
HETATM   42  O   UNL     1      27.760  46.163  54.849  1.00  0.00    -0.354 OA
HETATM   43  C   UNL     1      27.820  47.583  54.837  1.00  0.00     0.210 C 
ENDBRANCH  37  42
ENDBRANCH  33  36
ENDBRANCH   9  32
TORSDOF 9
ENDMDL
MODEL 2
REMARK VINA RESULT:      -9.3      5.040      9.075
REMARK  9 active torsions:
REMARK  status: ('A' for Active; 'I' for Inactive)
REMARK    1  A    between atoms: C_4  and  S_5 
REMARK    2  A    between atoms: S_5  and  C_6 
REMARK    3  A    between atoms: C_6  and  C_7 
REMARK       I    between atoms: C_7  and  N_8 
REMARK    4  A    between atoms: N_8  and  C_9 
REMARK    5  A    between atoms: C_10  and  O_11 
REMARK    6  A    between atoms: C_22  and  C_23 
REMARK    7  A    between atoms: C_29  and  C_30 
REMARK       I    between atoms: C_30  and  N_31 
REMARK    8  A    between atoms: N_31  and  C_32 
REMARK    9  A    between atoms: C_33  and  O_34 
ROOT
HETATM    1  C   UNL     1      25.033  49.372  48.732  1.00  0.00     0.069 C 
HETATM    2  C   UNL     1      24.367  48.055  49.068  1.00  0.00     0.019 A 
HETATM    3  N   UNL     1      25.222  47.095  49.575  1.00  0.00    -0.353 N 
HETATM    4  C   UNL     1      24.884  45.801  49.885  1.00  0.00     0.087 A 
HETATM    5  C   UNL     1      23.600  45.402  49.743  1.00  0.00     0.055 A 
HETATM    6  C   UNL     1      23.261  43.925  49.860  1.00  0.00     0.019 C 
HETATM    7  N   UNL     1      22.980  42.699  49.957  1.00  0.00    -0.096 N 
HETATM    8  C   UNL     1      22.539  46.345  49.151  1.00  0.00     0.104 A 
HETATM    9  C   UNL     1      23.053  47.769  48.876  1.00  0.00     0.046 A 
HETATM   10  H   UNL     1      26.208  47.326  49.663  1.00  0.00     0.166 HD
ENDROOT
BRANCH   4  11
HETATM   11  S   UNL     1      26.133  44.682  50.404  1.00  0.00    -0.102 SA
BRANCH  11  12
HETATM   12  C   UNL     1      26.451  45.323  52.087  1.00  0.00     0.184 C 
BRANCH  12  13
HETATM   13  C   UNL     1      25.850  44.407  53.125  1.00  0.00     0.231 C 
HETATM   14  N   UNL     1      26.578  43.825  54.117  1.00  0.00    -0.324 N 
HETATM   15  H   UNL     1      26.007  43.171  54.650  1.00  0.00     0.169 HD
HETATM   16  O   UNL     1      24.643  44.135  53.074  1.00  0.00    -0.272 OA
BRANCH  14  17
HETATM   17  C   UNL     1      27.927  43.844  54.534  1.00  0.00     0.070 A 
HETATM   18  C   UNL     1      28.696  42.715  54.150  1.00  0.00     0.095 A 
HETATM   19  C   UNL     1      30.050  42.637  54.486  1.00  0.00     0.041 A 
HETATM   20  C   UNL     1      30.648  43.662  55.217  1.00  0.00     0.026 A 
HETATM   21  C   UNL     1      29.888  44.757  55.616  1.00  0.00     0.036 A 
HETATM   22 CL   UNL     1      30.627  46.010  56.538  1.00  0.00    -0.084 Cl
HETATM   23  C   UNL     1      28.535  44.850  55.282  1.00  0.00     0.056 A 
BRANCH  18  24
HETATM   24  O   UNL     1      28.012  41.759  53.435  1.00  0.00    -0.354 OA
HETATM   25  C   UNL     1      28.754  40.988  52.500  1.00  0.00     0.210 C 
ENDBRANCH  18  24
ENDBRANCH  14  17
ENDBRANCH  12  13
ENDBRANCH  11  12
ENDBRANCH   4  11
BRANCH   8  26
HETATM   26  C   UNL     1      21.944  45.667  47.907  1.00  0.00    -0.044 A 
HETATM   27  C   UNL     1      20.581  45.318  47.888  1.00  0.00     0.008 A 
HETATM   28  C   UNL     1      20.035  44.649  46.793  1.00  0.00     0.001 A 
HETATM   29  C   UNL     1      20.840  44.319  45.705  1.00  0.00     0.000 A 
HETATM   30  C   UNL     1      22.194  44.650  45.714  1.00  0.00     0.001 A 
HETATM   31  C   UNL     1      22.748  45.314  46.809  1.00  0.00     0.008 A 
ENDBRANCH   8  26
BRANCH   9  32
HETATM   32  C   UNL     1      22.117  48.893  48.493  1.00  0.00     0.255 C 
HETATM   33  N   UNL     1      21.396  49.476  49.504  1.00  0.00    -0.321 N 
HETATM   34  H   UNL     1      21.616  49.290  50.473  1.00  0.00     0.169 HD
HETATM   35  O   UNL     1      22.074  49.278  47.325  1.00  0.00    -0.268 OA
BRANCH  33  36
HETATM   36  C   UNL     1      20.291  50.356  49.374  1.00  0.00     0.068 A 
HETATM   37  C   UNL     1      19.043  49.900  49.851  1.00  0.00     0.095 A 
HETATM   38  C   UNL     1      17.905  50.697  49.694  1.00  0.00     0.039 A 
HETATM   39  C   UNL     1      18.000  51.936  49.057  1.00  0.00     0.003 A 
HETATM   40  C   UNL     1      19.229  52.386  48.583  1.00  0.00     0.002 A 
HETATM   41  C   UNL     1      20.372  51.600  48.745  1.00  0.00     0.032 A 
BRANCH  37  42
HETATM   42  O   UNL     1      19.059  48.668  50.465  1.00  0.00    -0.354 OA
HETATM   43  C   UNL     1      18.643  48.618  51.824  1.00  0.00     0.210 C 
ENDBRANCH  37  42
ENDBRANCH  33  36
ENDBRANCH   9  32
TORSDOF 9
ENDMDL
MODEL 3
REMARK VINA RESULT:      -9.1      5.102      9.692
REMARK  9 active torsions:
REMARK  status: ('A' for Active; 'I' for Inactive)
REMARK    1  A    between atoms: C_4  and  S_5 
REMARK    2  A    between atoms: S_5  and  C_6 
REMARK    3  A    between atoms: C_6  and  C_7 
REMARK       I    between atoms: C_7  and  N_8 
REMARK    4  A    between atoms: N_8  and  C_9 
REMARK    5  A    between atoms: C_10  and  O_11 
REMARK    6  A    between atoms: C_22  and  C_23 
REMARK    7  A    between atoms: C_29  and  C_30 
REMARK       I    between atoms: C_30  and  N_31 
REMARK    8  A    between atoms: N_31  and  C_32 
REMARK    9  A    between atoms: C_33  and  O_34 
ROOT
HETATM    1  C   UNL     1      24.304  49.194  48.633  1.00  0.00     0.069 C 
HETATM    2  C   UNL     1      23.740  47.807  48.848  1.00  0.00     0.019 A 
HETATM    3  N   UNL     1      24.660  46.877  49.294  1.00  0.00    -0.353 N 
HETATM    4  C   UNL     1      24.420  45.540  49.492  1.00  0.00     0.087 A 
HETATM    5  C   UNL     1      23.173  45.056  49.291  1.00  0.00     0.055 A 
HETATM    6  C   UNL     1      22.950  43.553  49.282  1.00  0.00     0.019 C 
HETATM    7  N   UNL     1      22.765  42.305  49.274  1.00  0.00    -0.096 N 
HETATM    8  C   UNL     1      22.050  45.960  48.755  1.00  0.00     0.104 A 
HETATM    9  C   UNL     1      22.454  47.437  48.606  1.00  0.00     0.046 A 
HETATM   10  H   UNL     1      25.623  47.175  49.421  1.00  0.00     0.166 HD
ENDROOT
BRANCH   4  11
HETATM   11  S   UNL     1      25.746  44.482  49.945  1.00  0.00    -0.102 SA
BRANCH  11  12
HETATM   12  C   UNL     1      26.281  45.293  51.494  1.00  0.00     0.184 C 
BRANCH  12  13
HETATM   13  C   UNL     1      25.499  44.759  52.668  1.00  0.00     0.231 C 
HETATM   14  N   UNL     1      26.018  44.647  53.921  1.00  0.00    -0.324 N 
HETATM   15  H   UNL     1      25.364  44.177  54.545  1.00  0.00     0.169 HD
HETATM   16  O   UNL     1      24.335  44.370  52.502  1.00  0.00    -0.272 OA
BRANCH  14  17
HETATM   17  C   UNL     1      27.251  44.947  54.542  1.00  0.00     0.070 A 
HETATM   18  C   UNL     1      27.340  46.237  55.125  1.00  0.00     0.095 A 
HETATM   19  C   UNL     1      28.504  46.633  55.789  1.00  0.00     0.041 A 
HETATM   20  C   UNL     1      29.592  45.766  55.866  1.00  0.00     0.026 A 
HETATM   21  C   UNL     1      29.515  44.510  55.274  1.00  0.00     0.036 A 
HETATM   22 CL   UNL     1      30.871  43.451  55.354  1.00  0.00    -0.084 Cl
HETATM   23  C   UNL     1      28.356  44.100  54.611  1.00  0.00     0.056 A 
BRANCH  18  24
HETATM   24  O   UNL     1      26.214  47.017  54.990  1.00  0.00    -0.354 OA
HETATM   25  C   UNL     1      26.305  48.373  55.405  1.00  0.00     0.210 C 
ENDBRANCH  18  24
ENDBRANCH  14  17
ENDBRANCH  12  13
ENDBRANCH  11  12
ENDBRANCH   4  11
BRANCH   8  26
HETATM   26  C   UNL     1      21.529  45.342  47.448  1.00  0.00    -0.044 A 
HETATM   27  C   UNL     1      22.350  45.332  46.306  1.00  0.00     0.008 A 
HETATM   28  C   UNL     1      21.875  44.830  45.095  1.00  0.00     0.001 A 
HETATM   29  C   UNL     1      20.578  44.333  45.007  1.00  0.00     0.000 A 
HETATM   30  C   UNL     1      19.749  44.344  46.128  1.00  0.00     0.001 A 
HETATM   31  C   UNL     1      20.216  44.851  47.341  1.00  0.00     0.008 A 
ENDBRANCH   8  26
BRANCH   9  32
HETATM   32  C   UNL     1      21.439  48.513  48.295  1.00  0.00     0.255 C 
HETATM   33  N   UNL     1      21.158  49.412  49.294  1.00  0.00    -0.321 N 
HETATM   34  H   UNL     1      21.733  49.463  50.123  1.00  0.00     0.169 HD
HETATM   35  O   UNL     1      20.950  48.582  47.169  1.00  0.00    -0.268 OA
BRANCH  33  36
HETATM   36  C   UNL     1      20.085  50.338  49.338  1.00  0.00     0.068 A 
HETATM   37  C   UNL     1      18.878  49.899  49.926  1.00  0.00     0.095 A 
HETATM   38  C   UNL     1      17.765  50.745  49.942  1.00  0.00     0.039 A 
HETATM   39  C   UNL     1      17.842  52.016  49.370  1.00  0.00     0.003 A 
HETATM   40  C   UNL     1      19.030  52.449  48.788  1.00  0.00     0.002 A 
HETATM   41  C   UNL     1      20.149  51.614  48.775  1.00  0.00     0.032 A 
BRANCH  37  42
HETATM   42  O   UNL     1      18.908  48.632  50.464  1.00  0.00    -0.354 OA
HETATM   43  C   UNL     1      18.538  48.501  51.830  1.00  0.00     0.210 C 
ENDBRANCH  37  42
ENDBRANCH  33  36
ENDBRANCH   9  32
TORSDOF 9
ENDMDL
MODEL 4
REMARK VINA RESULT:      -8.8      5.628      9.561
REMARK  9 active torsions:
REMARK  status: ('A' for Active; 'I' for Inactive)
REMARK    1  A    between atoms: C_4  and  S_5 
REMARK    2  A    between atoms: S_5  and  C_6 
REMARK    3  A    between atoms: C_6  and  C_7 
REMARK       I    between atoms: C_7  and  N_8 
REMARK    4  A    between atoms: N_8  and  C_9 
REMARK    5  A    between atoms: C_10  and  O_11 
REMARK    6  A    between atoms: C_22  and  C_23 
REMARK    7  A    between atoms: C_29  and  C_30 
REMARK       I    between atoms: C_30  and  N_31 
REMARK    8  A    between atoms: N_31  and  C_32 
REMARK    9  A    between atoms: C_33  and  O_34 
ROOT
HETATM    1  C   UNL     1      23.333  49.206  49.219  1.00  0.00     0.069 C 
HETATM    2  C   UNL     1      23.031  47.726  49.131  1.00  0.00     0.019 A 
HETATM    3  N   UNL     1      24.118  46.906  49.369  1.00  0.00    -0.353 N 
HETATM    4  C   UNL     1      24.127  45.536  49.276  1.00  0.00     0.087 A 
HETATM    5  C   UNL     1      22.979  44.887  48.975  1.00  0.00     0.055 A 
HETATM    6  C   UNL     1      23.027  43.404  48.644  1.00  0.00     0.019 C 
HETATM    7  N   UNL     1      23.066  42.174  48.369  1.00  0.00    -0.096 N 
HETATM    8  C   UNL     1      21.695  45.664  48.642  1.00  0.00     0.104 A 
HETATM    9  C   UNL     1      21.824  47.188  48.813  1.00  0.00     0.046 A 
HETATM   10  H   UNL     1      25.017  47.340  49.559  1.00  0.00     0.166 HD
ENDROOT
BRANCH   4  11
HETATM   11  S   UNL     1      25.636  44.665  49.495  1.00  0.00    -0.102 SA
BRANCH  11  12
HETATM   12  C   UNL     1      25.946  45.011  51.263  1.00  0.00     0.184 C 
BRANCH  12  13
HETATM   13  C   UNL     1      25.383  43.908  52.126  1.00  0.00     0.231 C 
HETATM   14  N   UNL     1      26.064  43.354  53.165  1.00  0.00    -0.324 N 
HETATM   15  H   UNL     1      25.551  42.564  53.555  1.00  0.00     0.169 HD
HETATM   16  O   UNL     1      24.259  43.451  51.876  1.00  0.00    -0.272 OA
BRANCH  14  17
HETATM   17  C   UNL     1      27.322  43.547  53.777  1.00  0.00     0.070 A 
HETATM   18  C   UNL     1      28.249  42.486  53.610  1.00  0.00     0.095 A 
HETATM   19  C   UNL     1      29.534  42.579  54.150  1.00  0.00     0.041 A 
HETATM   20  C   UNL     1      29.906  43.711  54.873  1.00  0.00     0.026 A 
HETATM   21  C   UNL     1      28.991  44.741  55.058  1.00  0.00     0.036 A 
HETATM   22 CL   UNL     1      29.449  46.128  55.971  1.00  0.00    -0.084 Cl
HETATM   23  C   UNL     1      27.704  44.663  54.519  1.00  0.00     0.056 A 
BRANCH  18  24
HETATM   24  O   UNL     1      27.782  41.414  52.883  1.00  0.00    -0.354 OA
HETATM   25  C   UNL     1      28.719  40.715  52.075  1.00  0.00     0.210 C 
ENDBRANCH  18  24
ENDBRANCH  14  17
ENDBRANCH  12  13
ENDBRANCH  11  12
ENDBRANCH   4  11
BRANCH   8  26
HETATM   26  C   UNL     1      21.243  45.252  47.233  1.00  0.00    -0.044 A 
HETATM   27  C   UNL     1      21.996  45.655  46.114  1.00  0.00     0.008 A 
HETATM   28  C   UNL     1      21.571  45.341  44.823  1.00  0.00     0.001 A 
HETATM   29  C   UNL     1      20.394  44.624  44.631  1.00  0.00     0.000 A 
HETATM   30  C   UNL     1      19.633  44.226  45.729  1.00  0.00     0.001 A 
HETATM   31  C   UNL     1      20.048  44.542  47.023  1.00  0.00     0.008 A 
ENDBRANCH   8  26
BRANCH   9  32
HETATM   32  C   UNL     1      20.623  48.103  48.738  1.00  0.00     0.255 C 
HETATM   33  N   UNL     1      20.671  49.120  47.817  1.00  0.00    -0.321 N 
HETATM   34  H   UNL     1      21.387  49.141  47.104  1.00  0.00     0.169 HD
HETATM   35  O   UNL     1      19.643  47.881  49.447  1.00  0.00    -0.268 OA
BRANCH  33  36
HETATM   36  C   UNL     1      19.804  50.238  47.727  1.00  0.00     0.068 A 
HETATM   37  C   UNL     1      18.860  50.240  46.677  1.00  0.00     0.095 A 
HETATM   38  C   UNL     1      18.020  51.343  46.499  1.00  0.00     0.039 A 
HETATM   39  C   UNL     1      18.120  52.445  47.350  1.00  0.00     0.003 A 
HETATM   40  C   UNL     1      19.052  52.446  48.384  1.00  0.00     0.002 A 
HETATM   41  C   UNL     1      19.888  51.345  48.575  1.00  0.00     0.032 A 
BRANCH  37  42
HETATM   42  O   UNL     1      18.840  49.105  45.898  1.00  0.00    -0.354 OA
HETATM   43  C   UNL     1      17.616  48.788  45.248  1.00  0.00     0.210 C 
ENDBRANCH  37  42
ENDBRANCH  33  36
ENDBRANCH   9  32
TORSDOF 9
ENDMDL
MODEL 5
REMARK VINA RESULT:      -8.7      2.462      3.795
REMARK  9 active torsions:
REMARK  status: ('A' for Active; 'I' for Inactive)
REMARK    1  A    between atoms: C_4  and  S_5 
REMARK    2  A    between atoms: S_5  and  C_6 
REMARK    3  A    between atoms: C_6  and  C_7 
REMARK       I    between atoms: C_7  and  N_8 
REMARK    4  A    between atoms: N_8  and  C_9 
REMARK    5  A    between atoms: C_10  and  O_11 
REMARK    6  A    between atoms: C_22  and  C_23 
REMARK    7  A    between atoms: C_29  and  C_30 
REMARK       I    between atoms: C_30  and  N_31 
REMARK    8  A    between atoms: N_31  and  C_32 
REMARK    9  A    between atoms: C_33  and  O_34 
ROOT
HETATM    1  C   UNL     1      28.899  40.959  52.183  1.00  0.00     0.069 C 
HETATM    2  C   UNL     1      27.643  41.581  51.615  1.00  0.00     0.019 A 
HETATM    3  N   UNL     1      27.193  40.997  50.445  1.00  0.00    -0.353 N 
HETATM    4  C   UNL     1      26.125  41.421  49.694  1.00  0.00     0.087 A 
HETATM    5  C   UNL     1      25.390  42.472  50.125  1.00  0.00     0.055 A 
HETATM    6  C   UNL     1      24.359  43.090  49.195  1.00  0.00     0.019 C 
HETATM    7  N   UNL     1      23.503  43.604  48.424  1.00  0.00    -0.096 N 
HETATM    8  C   UNL     1      25.790  43.253  51.388  1.00  0.00     0.104 A 
HETATM    9  C   UNL     1      26.988  42.649  52.142  1.00  0.00     0.046 A 
HETATM   10  H   UNL     1      27.731  40.230  50.052  1.00  0.00     0.166 HD
ENDROOT
BRANCH   4  11
HETATM   11  S   UNL     1      25.773  40.628  48.168  1.00  0.00    -0.102 SA
BRANCH  11  12
HETATM   12  C   UNL     1      27.421  40.715  47.381  1.00  0.00     0.184 C 
BRANCH  12  13
HETATM   13  C   UNL     1      27.703  39.454  46.601  1.00  0.00     0.231 C 
HETATM   14  N   UNL     1      27.808  39.424  45.245  1.00  0.00    -0.324 N 
HETATM   15  H   UNL     1      27.904  38.466  44.910  1.00  0.00     0.169 HD
HETATM   16  O   UNL     1      27.821  38.378  47.203  1.00  0.00    -0.272 OA
BRANCH  14  17
HETATM   17  C   UNL     1      27.738  40.368  44.197  1.00  0.00     0.070 A 
HETATM   18  C   UNL     1      28.734  40.238  43.195  1.00  0.00     0.095 A 
HETATM   19  C   UNL     1      28.748  41.101  42.097  1.00  0.00     0.041 A 
HETATM   20  C   UNL     1      27.791  42.109  41.990  1.00  0.00     0.026 A 
HETATM   21  C   UNL     1      26.829  42.253  42.984  1.00  0.00     0.036 A 
HETATM   22 CL   UNL     1      25.663  43.514  42.858  1.00  0.00    -0.084 Cl
HETATM   23  C   UNL     1      26.801  41.393  44.085  1.00  0.00     0.056 A 
BRANCH  18  24
HETATM   24  O   UNL     1      29.633  39.215  43.396  1.00  0.00    -0.354 OA
HETATM   25  C   UNL     1      30.798  39.200  42.583  1.00  0.00     0.210 C 
ENDBRANCH  18  24
ENDBRANCH  14  17
ENDBRANCH  12  13
ENDBRANCH  11  12
ENDBRANCH   4  11
BRANCH   8  26
HETATM   26  C   UNL     1      26.006  44.721  50.988  1.00  0.00    -0.044 A 
HETATM   27  C   UNL     1      25.201  45.723  51.558  1.00  0.00     0.008 A 
HETATM   28  C   UNL     1      25.341  47.055  51.165  1.00  0.00     0.001 A 
HETATM   29  C   UNL     1      26.283  47.401  50.200  1.00  0.00     0.000 A 
HETATM   30  C   UNL     1      27.081  46.418  49.620  1.00  0.00     0.001 A 
HETATM   31  C   UNL     1      26.942  45.083  50.004  1.00  0.00     0.008 A 
ENDBRANCH   8  26
BRANCH   9  32
HETATM   32  C   UNL     1      27.400  43.146  53.510  1.00  0.00     0.255 C 
HETATM   33  N   UNL     1      28.525  43.928  53.576  1.00  0.00    -0.321 N 
HETATM   34  H   UNL     1      28.945  44.305  52.737  1.00  0.00     0.169 HD
HETATM   35  O   UNL     1      26.701  42.885  54.488  1.00  0.00    -0.268 OA
BRANCH  33  36
HETATM   36  C   UNL     1      29.246  44.299  54.739  1.00  0.00     0.068 A 
HETATM   37  C   UNL     1      28.908  45.531  55.342  1.00  0.00     0.095 A 
HETATM   38  C   UNL     1      29.627  45.980  56.455  1.00  0.00     0.039 A 
HETATM   39  C   UNL     1      30.681  45.218  56.962  1.00  0.00     0.003 A 
HETATM   40  C   UNL     1      31.017  44.006  56.367  1.00  0.00     0.002 A 
HETATM   41  C   UNL     1      30.299  43.545  55.262  1.00  0.00     0.032 A 
BRANCH  37  42
HETATM   42  O   UNL     1      27.852  46.201  54.768  1.00  0.00    -0.354 OA
HETATM   43  C   UNL     1      27.837  47.616  54.898  1.00  0.00     0.210 C 
ENDBRANCH  37  42
ENDBRANCH  33  36
ENDBRANCH   9  32
TORSDOF 9
ENDMDL
MODEL 6
REMARK VINA RESULT:      -8.5      1.880      2.425
REMARK  9 active torsions:
REMARK  status: ('A' for Active; 'I' for Inactive)
REMARK    1  A    between atoms: C_4  and  S_5 
REMARK    2  A    between atoms: S_5  and  C_6 
REMARK    3  A    between atoms: C_6  and  C_7 
REMARK       I    between atoms: C_7  and  N_8 
REMARK    4  A    between atoms: N_8  and  C_9 
REMARK    5  A    between atoms: C_10  and  O_11 
REMARK    6  A    between atoms: C_22  and  C_23 
REMARK    7  A    between atoms: C_29  and  C_30 
REMARK       I    between atoms: C_30  and  N_31 
REMARK    8  A    between atoms: N_31  and  C_32 
REMARK    9  A    between atoms: C_33  and  O_34 
ROOT
HETATM    1  C   UNL     1      28.604  40.851  52.080  1.00  0.00     0.069 C 
HETATM    2  C   UNL     1      27.346  41.542  51.603  1.00  0.00     0.019 A 
HETATM    3  N   UNL     1      26.799  41.006  50.453  1.00  0.00    -0.353 N 
HETATM    4  C   UNL     1      25.708  41.495  49.777  1.00  0.00     0.087 A 
HETATM    5  C   UNL     1      25.051  42.568  50.274  1.00  0.00     0.055 A 
HETATM    6  C   UNL     1      23.995  43.253  49.422  1.00  0.00     0.019 C 
HETATM    7  N   UNL     1      23.119  43.823  48.716  1.00  0.00    -0.096 N 
HETATM    8  C   UNL     1      25.564  43.301  51.525  1.00  0.00     0.104 A 
HETATM    9  C   UNL     1      26.775  42.627  52.192  1.00  0.00     0.046 A 
HETATM   10  H   UNL     1      27.276  40.224  50.012  1.00  0.00     0.166 HD
ENDROOT
BRANCH   4  11
HETATM   11  S   UNL     1      25.228  40.754  48.260  1.00  0.00    -0.102 SA
BRANCH  11  12
HETATM   12  C   UNL     1      26.644  39.628  47.998  1.00  0.00     0.184 C 
BRANCH  12  13
HETATM   13  C   UNL     1      27.672  40.270  47.099  1.00  0.00     0.231 C 
HETATM   14  N   UNL     1      28.181  39.661  45.994  1.00  0.00    -0.324 N 
HETATM   15  H   UNL     1      28.928  40.220  45.583  1.00  0.00     0.169 HD
HETATM   16  O   UNL     1      28.109  41.395  47.379  1.00  0.00    -0.272 OA
BRANCH  14  17
HETATM   17  C   UNL     1      27.988  38.430  45.330  1.00  0.00     0.070 A 
HETATM   18  C   UNL     1      26.991  38.434  44.321  1.00  0.00     0.095 A 
HETATM   19  C   UNL     1      26.732  37.278  43.580  1.00  0.00     0.041 A 
HETATM   20  C   UNL     1      27.440  36.107  43.844  1.00  0.00     0.026 A 
HETATM   21  C   UNL     1      28.400  36.095  44.850  1.00  0.00     0.036 A 
HETATM   22 CL   UNL     1      29.257  34.640  45.186  1.00  0.00    -0.084 Cl
HETATM   23  C   UNL     1      28.673  37.245  45.594  1.00  0.00     0.056 A 
BRANCH  18  24
HETATM   24  O   UNL     1      26.348  39.637  44.141  1.00  0.00    -0.354 OA
HETATM   25  C   UNL     1      24.947  39.670  44.376  1.00  0.00     0.210 C 
ENDBRANCH  18  24
ENDBRANCH  14  17
ENDBRANCH  12  13
ENDBRANCH  11  12
ENDBRANCH   4  11
BRANCH   8  26
HETATM   26  C   UNL     1      25.823  44.766  51.142  1.00  0.00    -0.044 A 
HETATM   27  C   UNL     1      25.147  45.794  51.823  1.00  0.00     0.008 A 
HETATM   28  C   UNL     1      25.323  47.127  51.451  1.00  0.00     0.001 A 
HETATM   29  C   UNL     1      26.174  47.451  50.398  1.00  0.00     0.000 A 
HETATM   30  C   UNL     1      26.844  46.442  49.708  1.00  0.00     0.001 A 
HETATM   31  C   UNL     1      26.667  45.106  50.070  1.00  0.00     0.008 A 
ENDBRANCH   8  26
BRANCH   9  32
HETATM   32  C   UNL     1      27.293  43.072  53.540  1.00  0.00     0.255 C 
HETATM   33  N   UNL     1      28.377  43.913  53.545  1.00  0.00    -0.321 N 
HETATM   34  H   UNL     1      28.694  44.357  52.694  1.00  0.00     0.169 HD
HETATM   35  O   UNL     1      26.707  42.721  54.564  1.00  0.00    -0.268 OA
BRANCH  33  36
HETATM   36  C   UNL     1      29.188  44.263  54.655  1.00  0.00     0.068 A 
HETATM   37  C   UNL     1      28.889  45.473  55.317  1.00  0.00     0.095 A 
HETATM   38  C   UNL     1      29.692  45.902  56.379  1.00  0.00     0.039 A 
HETATM   39  C   UNL     1      30.793  45.141  56.776  1.00  0.00     0.003 A 
HETATM   40  C   UNL     1      31.091  43.948  56.123  1.00  0.00     0.002 A 
HETATM   41  C   UNL     1      30.289  43.508  55.068  1.00  0.00     0.032 A 
BRANCH  37  42
HETATM   42  O   UNL     1      27.782  46.145  54.850  1.00  0.00    -0.354 OA
HETATM   43  C   UNL     1      27.857  47.564  54.808  1.00  0.00     0.210 C 
ENDBRANCH  37  42
ENDBRANCH  33  36
ENDBRANCH   9  32
TORSDOF 9
ENDMDL
MODEL 7
REMARK VINA RESULT:      -8.5      1.705      2.307
REMARK  9 active torsions:
REMARK  status: ('A' for Active; 'I' for Inactive)
REMARK    1  A    between atoms: C_4  and  S_5 
REMARK    2  A    between atoms: S_5  and  C_6 
REMARK    3  A    between atoms: C_6  and  C_7 
REMARK       I    between atoms: C_7  and  N_8 
REMARK    4  A    between atoms: N_8  and  C_9 
REMARK    5  A    between atoms: C_10  and  O_11 
REMARK    6  A    between atoms: C_22  and  C_23 
REMARK    7  A    between atoms: C_29  and  C_30 
REMARK       I    between atoms: C_30  and  N_31 
REMARK    8  A    between atoms: N_31  and  C_32 
REMARK    9  A    between atoms: C_33  and  O_34 
ROOT
HETATM    1  C   UNL     1      28.645  40.610  51.696  1.00  0.00     0.069 C 
HETATM    2  C   UNL     1      27.349  41.280  51.296  1.00  0.00     0.019 A 
HETATM    3  N   UNL     1      26.769  40.765  50.152  1.00  0.00    -0.353 N 
HETATM    4  C   UNL     1      25.637  41.244  49.539  1.00  0.00     0.087 A 
HETATM    5  C   UNL     1      24.972  42.280  50.099  1.00  0.00     0.055 A 
HETATM    6  C   UNL     1      23.862  42.962  49.316  1.00  0.00     0.019 C 
HETATM    7  N   UNL     1      22.940  43.528  48.667  1.00  0.00    -0.096 N 
HETATM    8  C   UNL     1      25.516  42.987  51.351  1.00  0.00     0.104 A 
HETATM    9  C   UNL     1      26.774  42.327  51.944  1.00  0.00     0.046 A 
HETATM   10  H   UNL     1      27.248  40.013  49.665  1.00  0.00     0.166 HD
ENDROOT
BRANCH   4  11
HETATM   11  S   UNL     1      25.113  40.539  48.020  1.00  0.00    -0.102 SA
BRANCH  11  12
HETATM   12  C   UNL     1      26.474  41.089  46.931  1.00  0.00     0.184 C 
BRANCH  12  13
HETATM   13  C   UNL     1      27.765  40.404  47.309  1.00  0.00     0.231 C 
HETATM   14  N   UNL     1      27.938  39.056  47.249  1.00  0.00    -0.324 N 
HETATM   15  H   UNL     1      28.842  38.789  47.636  1.00  0.00     0.169 HD
HETATM   16  O   UNL     1      28.716  41.080  47.723  1.00  0.00    -0.272 OA
BRANCH  14  17
HETATM   17  C   UNL     1      27.157  37.945  46.862  1.00  0.00     0.070 A 
HETATM   18  C   UNL     1      26.598  37.195  47.929  1.00  0.00     0.095 A 
HETATM   19  C   UNL     1      25.786  36.089  47.665  1.00  0.00     0.041 A 
HETATM   20  C   UNL     1      25.534  35.707  46.348  1.00  0.00     0.026 A 
HETATM   21  C   UNL     1      26.101  36.427  45.302  1.00  0.00     0.036 A 
HETATM   22 CL   UNL     1      25.805  35.937  43.678  1.00  0.00    -0.084 Cl
HETATM   23  C   UNL     1      26.911  37.537  45.552  1.00  0.00     0.056 A 
BRANCH  18  24
HETATM   24  O   UNL     1      26.909  37.652  49.189  1.00  0.00    -0.354 OA
HETATM   25  C   UNL     1      27.559  36.747  50.071  1.00  0.00     0.210 C 
ENDBRANCH  18  24
ENDBRANCH  14  17
ENDBRANCH  12  13
ENDBRANCH  11  12
ENDBRANCH   4  11
BRANCH   8  26
HETATM   26  C   UNL     1      25.718  44.471  51.008  1.00  0.00    -0.044 A 
HETATM   27  C   UNL     1      26.606  44.833  49.978  1.00  0.00     0.008 A 
HETATM   28  C   UNL     1      26.848  46.176  49.690  1.00  0.00     0.001 A 
HETATM   29  C   UNL     1      26.210  47.172  50.423  1.00  0.00     0.000 A 
HETATM   30  C   UNL     1      25.335  46.829  51.452  1.00  0.00     0.001 A 
HETATM   31  C   UNL     1      25.093  45.487  51.750  1.00  0.00     0.008 A 
ENDBRANCH   8  26
BRANCH   9  32
HETATM   32  C   UNL     1      27.336  42.743  53.284  1.00  0.00     0.255 C 
HETATM   33  N   UNL     1      28.251  43.766  53.286  1.00  0.00    -0.321 N 
HETATM   34  H   UNL     1      28.399  44.332  52.461  1.00  0.00     0.169 HD
HETATM   35  O   UNL     1      26.926  42.204  54.311  1.00  0.00    -0.268 OA
BRANCH  33  36
HETATM   36  C   UNL     1      29.093  44.163  54.355  1.00  0.00     0.068 A 
HETATM   37  C   UNL     1      28.839  45.420  54.946  1.00  0.00     0.095 A 
HETATM   38  C   UNL     1      29.675  45.893  55.962  1.00  0.00     0.039 A 
HETATM   39  C   UNL     1      30.764  45.129  56.385  1.00  0.00     0.003 A 
HETATM   40  C   UNL     1      31.018  43.891  55.802  1.00  0.00     0.002 A 
HETATM   41  C   UNL     1      30.183  43.407  54.793  1.00  0.00     0.032 A 
BRANCH  37  42
HETATM   42  O   UNL     1      27.739  46.090  54.459  1.00  0.00    -0.354 OA
HETATM   43  C   UNL     1      27.598  47.455  54.829  1.00  0.00     0.210 C 
ENDBRANCH  37  42
ENDBRANCH  33  36
ENDBRANCH   9  32
TORSDOF 9
ENDMDL
MODEL 8
REMARK VINA RESULT:      -8.5      2.149      2.864
REMARK  9 active torsions:
REMARK  status: ('A' for Active; 'I' for Inactive)
REMARK    1  A    between atoms: C_4  and  S_5 
REMARK    2  A    between atoms: S_5  and  C_6 
REMARK    3  A    between atoms: C_6  and  C_7 
REMARK       I    between atoms: C_7  and  N_8 
REMARK    4  A    between atoms: N_8  and  C_9 
REMARK    5  A    between atoms: C_10  and  O_11 
REMARK    6  A    between atoms: C_22  and  C_23 
REMARK    7  A    between atoms: C_29  and  C_30 
REMARK       I    between atoms: C_30  and  N_31 
REMARK    8  A    between atoms: N_31  and  C_32 
REMARK    9  A    between atoms: C_33  and  O_34 
ROOT
HETATM    1  C   UNL     1      28.616  40.881  52.110  1.00  0.00     0.069 C 
HETATM    2  C   UNL     1      27.358  41.583  51.650  1.00  0.00     0.019 A 
HETATM    3  N   UNL     1      26.789  41.049  50.509  1.00  0.00    -0.353 N 
HETATM    4  C   UNL     1      25.693  41.547  49.849  1.00  0.00     0.087 A 
HETATM    5  C   UNL     1      25.053  42.627  50.353  1.00  0.00     0.055 A 
HETATM    6  C   UNL     1      23.991  43.321  49.515  1.00  0.00     0.019 C 
HETATM    7  N   UNL     1      23.110  43.897  48.820  1.00  0.00    -0.096 N 
HETATM    8  C   UNL     1      25.591  43.359  51.594  1.00  0.00     0.104 A 
HETATM    9  C   UNL     1      26.806  42.674  52.244  1.00  0.00     0.046 A 
HETATM   10  H   UNL     1      27.252  40.262  50.064  1.00  0.00     0.166 HD
ENDROOT
BRANCH   4  11
HETATM   11  S   UNL     1      25.182  40.806  48.341  1.00  0.00    -0.102 SA
BRANCH  11  12
HETATM   12  C   UNL     1      26.810  40.330  47.658  1.00  0.00     0.184 C 
BRANCH  12  13
HETATM   13  C   UNL     1      27.009  38.838  47.755  1.00  0.00     0.231 C 
HETATM   14  N   UNL     1      27.646  38.107  46.800  1.00  0.00    -0.324 N 
HETATM   15  H   UNL     1      27.590  37.111  47.008  1.00  0.00     0.169 HD
HETATM   16  O   UNL     1      26.555  38.224  48.730  1.00  0.00    -0.272 OA
BRANCH  14  17
HETATM   17  C   UNL     1      28.286  38.376  45.571  1.00  0.00     0.070 A 
HETATM   18  C   UNL     1      29.083  37.321  45.057  1.00  0.00     0.095 A 
HETATM   19  C   UNL     1      29.743  37.465  43.834  1.00  0.00     0.041 A 
HETATM   20  C   UNL     1      29.636  38.657  43.120  1.00  0.00     0.026 A 
HETATM   21  C   UNL     1      28.875  39.701  43.635  1.00  0.00     0.036 A 
HETATM   22 CL   UNL     1      28.764  41.180  42.759  1.00  0.00    -0.084 Cl
HETATM   23  C   UNL     1      28.206  39.568  44.854  1.00  0.00     0.056 A 
BRANCH  18  24
HETATM   24  O   UNL     1      29.125  36.188  45.839  1.00  0.00    -0.354 OA
HETATM   25  C   UNL     1      28.803  34.952  45.217  1.00  0.00     0.210 C 
ENDBRANCH  18  24
ENDBRANCH  14  17
ENDBRANCH  12  13
ENDBRANCH  11  12
ENDBRANCH   4  11
BRANCH   8  26
HETATM   26  C   UNL     1      25.858  44.820  51.203  1.00  0.00    -0.044 A 
HETATM   27  C   UNL     1      25.196  45.856  51.886  1.00  0.00     0.008 A 
HETATM   28  C   UNL     1      25.380  47.186  51.508  1.00  0.00     0.001 A 
HETATM   29  C   UNL     1      26.224  47.499  50.446  1.00  0.00     0.000 A 
HETATM   30  C   UNL     1      26.880  46.483  49.754  1.00  0.00     0.001 A 
HETATM   31  C   UNL     1      26.696  45.149  50.123  1.00  0.00     0.008 A 
ENDBRANCH   8  26
BRANCH   9  32
HETATM   32  C   UNL     1      27.348  43.119  53.584  1.00  0.00     0.255 C 
HETATM   33  N   UNL     1      28.558  43.766  53.584  1.00  0.00    -0.321 N 
HETATM   34  H   UNL     1      28.971  44.092  52.721  1.00  0.00     0.169 HD
HETATM   35  O   UNL     1      26.679  42.939  54.601  1.00  0.00    -0.268 OA
BRANCH  33  36
HETATM   36  C   UNL     1      29.380  44.050  54.703  1.00  0.00     0.068 A 
HETATM   37  C   UNL     1      29.321  45.359  55.232  1.00  0.00     0.095 A 
HETATM   38  C   UNL     1      30.154  45.717  56.296  1.00  0.00     0.039 A 
HETATM   39  C   UNL     1      31.050  44.787  56.828  1.00  0.00     0.003 A 
HETATM   40  C   UNL     1      31.111  43.498  56.306  1.00  0.00     0.002 A 
HETATM   41  C   UNL     1      30.276  43.129  55.250  1.00  0.00     0.032 A 
BRANCH  37  42
HETATM   42  O   UNL     1      28.403  46.195  54.639  1.00  0.00    -0.354 OA
HETATM   43  C   UNL     1      27.551  46.937  55.502  1.00  0.00     0.210 C 
ENDBRANCH  37  42
ENDBRANCH  33  36
ENDBRANCH   9  32
TORSDOF 9
ENDMDL
MODEL 9
REMARK VINA RESULT:      -8.3      4.276      7.920
REMARK  9 active torsions:
REMARK  status: ('A' for Active; 'I' for Inactive)
REMARK    1  A    between atoms: C_4  and  S_5 
REMARK    2  A    between atoms: S_5  and  C_6 
REMARK    3  A    between atoms: C_6  and  C_7 
REMARK       I    between atoms: C_7  and  N_8 
REMARK    4  A    between atoms: N_8  and  C_9 
REMARK    5  A    between atoms: C_10  and  O_11 
REMARK    6  A    between atoms: C_22  and  C_23 
REMARK    7  A    between atoms: C_29  and  C_30 
REMARK       I    between atoms: C_30  and  N_31 
REMARK    8  A    between atoms: N_31  and  C_32 
REMARK    9  A    between atoms: C_33  and  O_34 
ROOT
HETATM    1  C   UNL     1      25.279  44.482  53.254  1.00  0.00     0.069 C 
HETATM    2  C   UNL     1      25.423  43.960  51.842  1.00  0.00     0.019 A 
HETATM    3  N   UNL     1      24.259  43.994  51.098  1.00  0.00    -0.353 N 
HETATM    4  C   UNL     1      24.106  43.511  49.821  1.00  0.00     0.087 A 
HETATM    5  C   UNL     1      25.177  42.989  49.181  1.00  0.00     0.055 A 
HETATM    6  C   UNL     1      24.972  42.247  47.870  1.00  0.00     0.019 C 
HETATM    7  N   UNL     1      24.802  41.631  46.783  1.00  0.00    -0.096 N 
HETATM    8  C   UNL     1      26.533  42.843  49.893  1.00  0.00     0.104 A 
HETATM    9  C   UNL     1      26.565  43.452  51.306  1.00  0.00     0.046 A 
HETATM   10  H   UNL     1      23.413  44.337  51.543  1.00  0.00     0.166 HD
ENDROOT
BRANCH   4  11
HETATM   11  S   UNL     1      22.518  43.529  49.075  1.00  0.00    -0.102 SA
BRANCH  11  12
HETATM   12  C   UNL     1      22.396  45.300  48.638  1.00  0.00     0.184 C 
BRANCH  12  13
HETATM   13  C   UNL     1      20.963  45.767  48.715  1.00  0.00     0.231 C 
HETATM   14  N   UNL     1      20.610  47.078  48.816  1.00  0.00    -0.324 N 
HETATM   15  H   UNL     1      19.605  47.174  48.952  1.00  0.00     0.169 HD
HETATM   16  O   UNL     1      20.048  44.933  48.715  1.00  0.00    -0.272 OA
BRANCH  14  17
HETATM   17  C   UNL     1      21.291  48.314  48.859  1.00  0.00     0.070 A 
HETATM   18  C   UNL     1      20.579  49.379  49.470  1.00  0.00     0.095 A 
HETATM   19  C   UNL     1      21.164  50.642  49.591  1.00  0.00     0.041 A 
HETATM   20  C   UNL     1      22.446  50.867  49.095  1.00  0.00     0.026 A 
HETATM   21  C   UNL     1      23.135  49.831  48.473  1.00  0.00     0.036 A 
HETATM   22 CL   UNL     1      24.711  50.121  47.841  1.00  0.00    -0.084 Cl
HETATM   23  C   UNL     1      22.564  48.562  48.350  1.00  0.00     0.056 A 
BRANCH  18  24
HETATM   24  O   UNL     1      19.321  49.054  49.924  1.00  0.00    -0.354 OA
HETATM   25  C   UNL     1      18.398  50.118  50.110  1.00  0.00     0.210 C 
ENDBRANCH  18  24
ENDBRANCH  14  17
ENDBRANCH  12  13
ENDBRANCH  11  12
ENDBRANCH   4  11
BRANCH   8  26
HETATM   26  C   UNL     1      26.924  41.358  49.866  1.00  0.00    -0.044 A 
HETATM   27  C   UNL     1      28.063  40.951  49.148  1.00  0.00     0.008 A 
HETATM   28  C   UNL     1      28.403  39.600  49.062  1.00  0.00     0.001 A 
HETATM   29  C   UNL     1      27.612  38.642  49.689  1.00  0.00     0.000 A 
HETATM   30  C   UNL     1      26.475  39.029  50.397  1.00  0.00     0.001 A 
HETATM   31  C   UNL     1      26.127  40.378  50.482  1.00  0.00     0.008 A 
ENDBRANCH   8  26
BRANCH   9  32
HETATM   32  C   UNL     1      27.854  43.596  52.082  1.00  0.00     0.255 C 
HETATM   33  N   UNL     1      27.781  43.446  53.445  1.00  0.00    -0.321 N 
HETATM   34  H   UNL     1      26.948  43.077  53.882  1.00  0.00     0.169 HD
HETATM   35  O   UNL     1      28.910  43.782  51.480  1.00  0.00    -0.268 OA
BRANCH  33  36
HETATM   36  C   UNL     1      28.776  43.776  54.399  1.00  0.00     0.068 A 
HETATM   37  C   UNL     1      28.710  45.061  54.982  1.00  0.00     0.095 A 
HETATM   38  C   UNL     1      29.700  45.466  55.883  1.00  0.00     0.039 A 
HETATM   39  C   UNL     1      30.756  44.609  56.197  1.00  0.00     0.003 A 
HETATM   40  C   UNL     1      30.824  43.344  55.621  1.00  0.00     0.002 A 
HETATM   41  C   UNL     1      29.835  42.927  54.728  1.00  0.00     0.032 A 
BRANCH  37  42
HETATM   42  O   UNL     1      27.628  45.825  54.609  1.00  0.00    -0.354 OA
HETATM   43  C   UNL     1      27.732  47.230  54.800  1.00  0.00     0.210 C 
ENDBRANCH  37  42
ENDBRANCH  33  36
ENDBRANCH   9  32
TORSDOF 9
ENDMDL
MODEL 10
REMARK VINA RESULT:      -8.2      5.242      9.644
REMARK  9 active torsions:
REMARK  status: ('A' for Active; 'I' for Inactive)
REMARK    1  A    between atoms: C_4  and  S_5 
REMARK    2  A    between atoms: S_5  and  C_6 
REMARK    3  A    between atoms: C_6  and  C_7 
REMARK       I    between atoms: C_7  and  N_8 
REMARK    4  A    between atoms: N_8  and  C_9 
REMARK    5  A    between atoms: C_10  and  O_11 
REMARK    6  A    between atoms: C_22  and  C_23 
REMARK    7  A    between atoms: C_29  and  C_30 
REMARK       I    between atoms: C_30  and  N_31 
REMARK    8  A    between atoms: N_31  and  C_32 
REMARK    9  A    between atoms: C_33  and  O_34 
ROOT
HETATM    1  C   UNL     1      23.202  48.609  49.151  1.00  0.00     0.069 C 
HETATM    2  C   UNL     1      22.905  47.127  49.093  1.00  0.00     0.019 A 
HETATM    3  N   UNL     1      23.868  46.327  49.678  1.00  0.00    -0.353 N 
HETATM    4  C   UNL     1      23.873  44.954  49.692  1.00  0.00     0.087 A 
HETATM    5  C   UNL     1      22.837  44.285  49.136  1.00  0.00     0.055 A 
HETATM    6  C   UNL     1      22.942  42.781  48.939  1.00  0.00     0.019 C 
HETATM    7  N   UNL     1      23.028  41.534  48.776  1.00  0.00    -0.096 N 
HETATM    8  C   UNL     1      21.709  45.035  48.408  1.00  0.00     0.104 A 
HETATM    9  C   UNL     1      21.819  46.567  48.497  1.00  0.00     0.046 A 
HETATM   10  H   UNL     1      24.690  46.774  50.074  1.00  0.00     0.166 HD
ENDROOT
BRANCH   4  11
HETATM   11  S   UNL     1      25.245  44.101  50.378  1.00  0.00    -0.102 SA
BRANCH  11  12
HETATM   12  C   UNL     1      26.308  45.521  50.821  1.00  0.00     0.184 C 
BRANCH  12  13
HETATM   13  C   UNL     1      26.023  45.976  52.232  1.00  0.00     0.231 C 
HETATM   14  N   UNL     1      26.648  45.458  53.323  1.00  0.00    -0.324 N 
HETATM   15  H   UNL     1      26.246  45.830  54.183  1.00  0.00     0.169 HD
HETATM   16  O   UNL     1      25.160  46.842  52.431  1.00  0.00    -0.272 OA
BRANCH  14  17
HETATM   17  C   UNL     1      27.648  44.490  53.559  1.00  0.00     0.070 A 
HETATM   18  C   UNL     1      28.666  44.876  54.469  1.00  0.00     0.095 A 
HETATM   19  C   UNL     1      29.693  43.988  54.798  1.00  0.00     0.041 A 
HETATM   20  C   UNL     1      29.733  42.722  54.218  1.00  0.00     0.026 A 
HETATM   21  C   UNL     1      28.750  42.351  53.307  1.00  0.00     0.036 A 
HETATM   22 CL   UNL     1      28.817  40.793  52.576  1.00  0.00    -0.084 Cl
HETATM   23  C   UNL     1      27.715  43.227  52.973  1.00  0.00     0.056 A 
BRANCH  18  24
HETATM   24  O   UNL     1      28.537  46.146  54.983  1.00  0.00    -0.354 OA
HETATM   25  C   UNL     1      28.505  46.279  56.398  1.00  0.00     0.210 C 
ENDBRANCH  18  24
ENDBRANCH  14  17
ENDBRANCH  12  13
ENDBRANCH  11  12
ENDBRANCH   4  11
BRANCH   8  26
HETATM   26  C   UNL     1      21.650  44.517  46.963  1.00  0.00    -0.044 A 
HETATM   27  C   UNL     1      22.700  44.812  46.074  1.00  0.00     0.008 A 
HETATM   28  C   UNL     1      22.639  44.401  44.743  1.00  0.00     0.001 A 
HETATM   29  C   UNL     1      21.532  43.694  44.281  1.00  0.00     0.000 A 
HETATM   30  C   UNL     1      20.480  43.402  45.148  1.00  0.00     0.001 A 
HETATM   31  C   UNL     1      20.532  43.815  46.480  1.00  0.00     0.008 A 
ENDBRANCH   8  26
BRANCH   9  32
HETATM   32  C   UNL     1      20.704  47.475  48.029  1.00  0.00     0.255 C 
HETATM   33  N   UNL     1      19.671  47.695  48.905  1.00  0.00    -0.321 N 
HETATM   34  H   UNL     1      19.744  47.417  49.874  1.00  0.00     0.169 HD
HETATM   35  O   UNL     1      20.782  48.017  46.928  1.00  0.00    -0.268 OA
BRANCH  33  36
HETATM   36  C   UNL     1      18.414  48.287  48.619  1.00  0.00     0.068 A 
HETATM   37  C   UNL     1      18.279  49.669  48.877  1.00  0.00     0.095 A 
HETATM   38  C   UNL     1      17.045  50.296  48.674  1.00  0.00     0.039 A 
HETATM   39  C   UNL     1      15.948  49.557  48.229  1.00  0.00     0.003 A 
HETATM   40  C   UNL     1      16.079  48.194  47.978  1.00  0.00     0.002 A 
HETATM   41  C   UNL     1      17.309  47.562  48.168  1.00  0.00     0.032 A 
BRANCH  37  42
HETATM   42  O   UNL     1      19.420  50.305  49.308  1.00  0.00    -0.354 OA
HETATM   43  C   UNL     1      19.295  51.668  49.693  1.00  0.00     0.210 C 
ENDBRANCH  37  42
ENDBRANCH  33  36
ENDBRANCH   9  32
TORSDOF 9
ENDMDL
