MODEL 1
REMARK VINA RESULT:      -8.9      0.000      0.000
REMARK  6 active torsions:
REMARK  status: ('A' for Active; 'I' for Inactive)
REMARK    1  A    between atoms: C_2  and  C_3 
REMARK    2  A    between atoms: C_7  and  N_8 
REMARK       I    between atoms: N_8  and  C_9 
REMARK    3  A    between atoms: C_9  and  C_10 
REMARK    4  A    between atoms: C_11  and  C_12 
REMARK    5  A    between atoms: C_14  and  O_15 
REMARK    6  A    between atoms: C_17  and  O_18 
ROOT
HETATM    1  N   UNL     1      28.952  43.278  53.109  1.00  0.00    -0.322 N 
HETATM    2  C   UNL     1      28.368  42.024  53.167  1.00  0.00     0.245 C 
HETATM    3  O   UNL     1      27.591  41.616  54.020  1.00  0.00    -0.268 OA
HETATM    4  H   UNL     1      29.799  43.324  52.563  1.00  0.00     0.169 HD
ENDROOT
BRANCH   1   5
HETATM    5  C   UNL     1      28.789  44.276  54.119  1.00  0.00     0.055 C 
HETATM    6  C   UNL     1      29.629  44.346  55.268  1.00  0.00     0.020 A 
HETATM    7  C   UNL     1      29.471  45.468  56.099  1.00  0.00     0.069 A 
HETATM    8  C   UNL     1      30.563  43.354  55.679  1.00  0.00     0.016 A 
HETATM    9  N   UNL     1      28.566  46.426  55.865  1.00  0.00    -0.252 NA
HETATM   10  C   UNL     1      30.267  45.607  57.229  1.00  0.00     0.032 A 
HETATM   11  C   UNL     1      27.725  46.318  54.813  1.00  0.00     0.043 C 
HETATM   12  C   UNL     1      27.749  45.219  53.943  1.00  0.00    -0.010 C 
HETATM   13  C   UNL     1      26.764  45.110  52.809  1.00  0.00     0.052 C 
HETATM   14  C   UNL     1      31.209  44.646  57.595  1.00  0.00     0.002 A 
HETATM   15  C   UNL     1      31.349  43.506  56.821  1.00  0.00     0.001 A 
BRANCH  11  16
HETATM   16  C   UNL     1      26.740  47.456  54.638  1.00  0.00     0.055 C 
HETATM   17  C   UNL     1      26.598  48.369  55.852  1.00  0.00     0.011 C 
ENDBRANCH  11  16
ENDBRANCH   1   5
BRANCH   2  18
HETATM   18  C   UNL     1      28.869  41.119  52.091  1.00  0.00     0.075 C 
HETATM   19  C   UNL     1      28.049  40.817  51.072  1.00  0.00     0.017 C 
BRANCH  19  20
HETATM   20  C   UNL     1      28.362  39.926  49.945  1.00  0.00    -0.033 A 
HETATM   21  C   UNL     1      27.919  40.296  48.663  1.00  0.00     0.051 A 
HETATM   22  C   UNL     1      28.113  39.457  47.560  1.00  0.00     0.102 A 
HETATM   23  C   UNL     1      28.756  38.223  47.748  1.00  0.00     0.101 A 
HETATM   24  C   UNL     1      29.217  37.854  49.014  1.00  0.00     0.040 A 
HETATM   25  C   UNL     1      29.008  38.697  50.109  1.00  0.00     0.014 A 
BRANCH  22  26
HETATM   26  O   UNL     1      27.704  39.738  46.281  1.00  0.00    -0.353 OA
HETATM   27  C   UNL     1      28.142  40.961  45.707  1.00  0.00     0.210 C 
ENDBRANCH  22  26
BRANCH  23  28
HETATM   28  O   UNL     1      28.955  37.427  46.646  1.00  0.00    -0.353 OA
HETATM   29  C   UNL     1      27.968  36.411  46.493  1.00  0.00     0.210 C 
ENDBRANCH  23  28
ENDBRANCH  19  20
ENDBRANCH   2  18
TORSDOF 6
ENDMDL
MODEL 2
REMARK VINA RESULT:      -8.6      5.751      8.762
REMARK  6 active torsions:
REMARK  status: ('A' for Active; 'I' for Inactive)
REMARK    1  A    between atoms: C_2  and  C_3 
REMARK    2  A    between atoms: C_7  and  N_8 
REMARK       I    between atoms: N_8  and  C_9 
REMARK    3  A    between atoms: C_9  and  C_10 
REMARK    4  A    between atoms: C_11  and  C_12 
REMARK    5  A    between atoms: C_14  and  O_15 
REMARK    6  A    between atoms: C_17  and  O_18 
ROOT
HETATM    1  N   UNL     1      25.684  45.508  52.171  1.00  0.00    -0.322 N 
HETATM    2  C   UNL     1      25.847  46.011  50.891  1.00  0.00     0.245 C 
HETATM    3  O   UNL     1      26.872  45.996  50.223  1.00  0.00    -0.268 OA
HETATM    4  H   UNL     1      24.908  45.901  52.683  1.00  0.00     0.169 HD
ENDROOT
BRANCH   1   5
HETATM    5  C   UNL     1      26.749  44.960  52.949  1.00  0.00     0.055 C 
HETATM    6  C   UNL     1      27.300  43.671  52.689  1.00  0.00     0.020 A 
HETATM    7  C   UNL     1      28.449  43.317  53.417  1.00  0.00     0.069 A 
HETATM    8  C   UNL     1      26.756  42.694  51.810  1.00  0.00     0.016 A 
HETATM    9  N   UNL     1      29.005  44.116  54.335  1.00  0.00    -0.252 NA
HETATM   10  C   UNL     1      29.047  42.081  53.204  1.00  0.00     0.032 A 
HETATM   11  C   UNL     1      28.436  45.307  54.627  1.00  0.00     0.043 C 
HETATM   12  C   UNL     1      27.259  45.748  54.007  1.00  0.00    -0.010 C 
HETATM   13  C   UNL     1      26.629  47.060  54.393  1.00  0.00     0.052 C 
HETATM   14  C   UNL     1      28.525  41.150  52.307  1.00  0.00     0.002 A 
HETATM   15  C   UNL     1      27.365  41.454  51.615  1.00  0.00     0.001 A 
BRANCH  11  16
HETATM   16  C   UNL     1      29.145  46.135  55.680  1.00  0.00     0.055 C 
HETATM   17  C   UNL     1      30.353  45.456  56.319  1.00  0.00     0.011 C 
ENDBRANCH  11  16
ENDBRANCH   1   5
BRANCH   2  18
HETATM   18  C   UNL     1      24.620  46.702  50.398  1.00  0.00     0.075 C 
HETATM   19  C   UNL     1      24.758  47.868  49.745  1.00  0.00     0.017 C 
BRANCH  19  20
HETATM   20  C   UNL     1      23.665  48.697  49.217  1.00  0.00    -0.033 A 
HETATM   21  C   UNL     1      22.383  48.125  49.124  1.00  0.00     0.051 A 
HETATM   22  C   UNL     1      21.315  48.830  48.557  1.00  0.00     0.102 A 
HETATM   23  C   UNL     1      21.538  50.126  48.068  1.00  0.00     0.101 A 
HETATM   24  C   UNL     1      22.802  50.711  48.171  1.00  0.00     0.040 A 
HETATM   25  C   UNL     1      23.863  49.993  48.731  1.00  0.00     0.014 A 
BRANCH  22  26
HETATM   26  O   UNL     1      20.040  48.342  48.421  1.00  0.00    -0.353 OA
HETATM   27  C   UNL     1      19.279  48.156  49.607  1.00  0.00     0.210 C 
ENDBRANCH  22  26
BRANCH  23  28
HETATM   28  O   UNL     1      20.469  50.806  47.537  1.00  0.00    -0.353 OA
HETATM   29  C   UNL     1      19.932  51.793  48.413  1.00  0.00     0.210 C 
ENDBRANCH  23  28
ENDBRANCH  19  20
ENDBRANCH   2  18
TORSDOF 6
ENDMDL
MODEL 3
REMARK VINA RESULT:      -8.4      6.003      9.069
REMARK  6 active torsions:
REMARK  status: ('A' for Active; 'I' for Inactive)
REMARK    1  A    between atoms: C_2  and  C_3 
REMARK    2  A    between atoms: C_7  and  N_8 
REMARK       I    between atoms: N_8  and  C_9 
REMARK    3  A    between atoms: C_9  and  C_10 
REMARK    4  A    between atoms: C_11  and  C_12 
REMARK    5  A    between atoms: C_14  and  O_15 
REMARK    6  A    between atoms: C_17  and  O_18 
ROOT
HETATM    1  N   UNL     1      25.219  45.364  51.701  1.00  0.00    -0.322 N 
HETATM    2  C   UNL     1      25.459  45.994  50.491  1.00  0.00     0.245 C 
HETATM    3  O   UNL     1      26.530  46.073  49.906  1.00  0.00    -0.268 OA
HETATM    4  H   UNL     1      24.394  45.683  52.186  1.00  0.00     0.169 HD
ENDROOT
BRANCH   1   5
HETATM    5  C   UNL     1      26.243  44.772  52.503  1.00  0.00     0.055 C 
HETATM    6  C   UNL     1      26.927  45.493  53.524  1.00  0.00     0.020 A 
HETATM    7  C   UNL     1      27.792  44.753  54.348  1.00  0.00     0.069 A 
HETATM    8  C   UNL     1      26.859  46.897  53.741  1.00  0.00     0.016 A 
HETATM    9  N   UNL     1      28.007  43.442  54.188  1.00  0.00    -0.252 NA
HETATM   10  C   UNL     1      28.481  45.390  55.374  1.00  0.00     0.032 A 
HETATM   11  C   UNL     1      27.409  42.779  53.173  1.00  0.00     0.043 C 
HETATM   12  C   UNL     1      26.567  43.417  52.253  1.00  0.00    -0.010 C 
HETATM   13  C   UNL     1      25.957  42.655  51.107  1.00  0.00     0.052 C 
HETATM   14  C   UNL     1      28.370  46.761  55.600  1.00  0.00     0.002 A 
HETATM   15  C   UNL     1      27.563  47.521  54.770  1.00  0.00     0.001 A 
BRANCH  11  16
HETATM   16  C   UNL     1      27.718  41.298  53.082  1.00  0.00     0.055 C 
HETATM   17  C   UNL     1      29.100  40.968  52.527  1.00  0.00     0.011 C 
ENDBRANCH  11  16
ENDBRANCH   1   5
BRANCH   2  18
HETATM   18  C   UNL     1      24.249  46.696  49.973  1.00  0.00     0.075 C 
HETATM   19  C   UNL     1      24.330  48.011  49.714  1.00  0.00     0.017 C 
BRANCH  19  20
HETATM   20  C   UNL     1      23.236  48.865  49.228  1.00  0.00    -0.033 A 
HETATM   21  C   UNL     1      21.985  48.271  48.990  1.00  0.00     0.051 A 
HETATM   22  C   UNL     1      20.923  49.007  48.452  1.00  0.00     0.102 A 
HETATM   23  C   UNL     1      21.123  50.361  48.141  1.00  0.00     0.101 A 
HETATM   24  C   UNL     1      22.356  50.967  48.391  1.00  0.00     0.040 A 
HETATM   25  C   UNL     1      23.411  50.218  48.920  1.00  0.00     0.014 A 
BRANCH  22  26
HETATM   26  O   UNL     1      19.678  48.501  48.181  1.00  0.00    -0.353 OA
HETATM   27  C   UNL     1      18.971  47.891  49.252  1.00  0.00     0.210 C 
ENDBRANCH  22  26
BRANCH  23  28
HETATM   28  O   UNL     1      20.059  51.068  47.636  1.00  0.00    -0.353 OA
HETATM   29  C   UNL     1      19.588  52.088  48.512  1.00  0.00     0.210 C 
ENDBRANCH  23  28
ENDBRANCH  19  20
ENDBRANCH   2  18
TORSDOF 6
ENDMDL
MODEL 4
REMARK VINA RESULT:      -8.2      7.255     10.857
REMARK  6 active torsions:
REMARK  status: ('A' for Active; 'I' for Inactive)
REMARK    1  A    between atoms: C_2  and  C_3 
REMARK    2  A    between atoms: C_7  and  N_8 
REMARK       I    between atoms: N_8  and  C_9 
REMARK    3  A    between atoms: C_9  and  C_10 
REMARK    4  A    between atoms: C_11  and  C_12 
REMARK    5  A    between atoms: C_14  and  O_15 
REMARK    6  A    between atoms: C_17  and  O_18 
ROOT
HETATM    1  N   UNL     1      22.782  48.338  49.553  1.00  0.00    -0.322 N 
HETATM    2  C   UNL     1      24.059  48.542  49.056  1.00  0.00     0.245 C 
HETATM    3  O   UNL     1      24.363  49.191  48.064  1.00  0.00    -0.268 OA
HETATM    4  H   UNL     1      22.686  47.527  50.145  1.00  0.00     0.169 HD
ENDROOT
BRANCH   1   5
HETATM    5  C   UNL     1      21.596  48.801  48.906  1.00  0.00     0.055 C 
HETATM    6  C   UNL     1      20.951  48.063  47.872  1.00  0.00     0.020 A 
HETATM    7  C   UNL     1      19.706  48.545  47.434  1.00  0.00     0.069 A 
HETATM    8  C   UNL     1      21.482  46.924  47.205  1.00  0.00     0.016 A 
HETATM    9  N   UNL     1      19.142  49.655  47.923  1.00  0.00    -0.252 NA
HETATM   10  C   UNL     1      19.014  47.866  46.438  1.00  0.00     0.032 A 
HETATM   11  C   UNL     1      19.791  50.390  48.853  1.00  0.00     0.043 C 
HETATM   12  C   UNL     1      21.062  50.041  49.331  1.00  0.00    -0.010 C 
HETATM   13  C   UNL     1      21.776  50.910  50.332  1.00  0.00     0.052 C 
HETATM   14  C   UNL     1      19.531  46.726  45.824  1.00  0.00     0.002 A 
HETATM   15  C   UNL     1      20.778  46.259  46.202  1.00  0.00     0.001 A 
BRANCH  11  16
HETATM   16  C   UNL     1      19.065  51.627  49.341  1.00  0.00     0.055 C 
HETATM   17  C   UNL     1      18.729  52.641  48.251  1.00  0.00     0.011 C 
ENDBRANCH  11  16
ENDBRANCH   1   5
BRANCH   2  18
HETATM   18  C   UNL     1      25.089  47.780  49.820  1.00  0.00     0.075 C 
HETATM   19  C   UNL     1      24.726  47.177  50.964  1.00  0.00     0.017 C 
BRANCH  19  20
HETATM   20  C   UNL     1      25.609  46.412  51.855  1.00  0.00    -0.033 A 
HETATM   21  C   UNL     1      25.915  46.956  53.115  1.00  0.00     0.051 A 
HETATM   22  C   UNL     1      26.811  46.319  53.981  1.00  0.00     0.102 A 
HETATM   23  C   UNL     1      27.417  45.120  53.573  1.00  0.00     0.101 A 
HETATM   24  C   UNL     1      27.105  44.561  52.332  1.00  0.00     0.040 A 
HETATM   25  C   UNL     1      26.216  45.211  51.472  1.00  0.00     0.014 A 
BRANCH  22  26
HETATM   26  O   UNL     1      27.170  46.788  55.219  1.00  0.00    -0.353 OA
HETATM   27  C   UNL     1      26.718  48.085  55.585  1.00  0.00     0.210 C 
ENDBRANCH  22  26
BRANCH  23  28
HETATM   28  O   UNL     1      28.275  44.503  54.450  1.00  0.00    -0.353 OA
HETATM   29  C   UNL     1      28.334  43.089  54.285  1.00  0.00     0.210 C 
ENDBRANCH  23  28
ENDBRANCH  19  20
ENDBRANCH   2  18
TORSDOF 6
ENDMDL
MODEL 5
REMARK VINA RESULT:      -8.2      3.774      5.135
REMARK  6 active torsions:
REMARK  status: ('A' for Active; 'I' for Inactive)
REMARK    1  A    between atoms: C_2  and  C_3 
REMARK    2  A    between atoms: C_7  and  N_8 
REMARK       I    between atoms: N_8  and  C_9 
REMARK    3  A    between atoms: C_9  and  C_10 
REMARK    4  A    between atoms: C_11  and  C_12 
REMARK    5  A    between atoms: C_14  and  O_15 
REMARK    6  A    between atoms: C_17  and  O_18 
ROOT
HETATM    1  N   UNL     1      26.979  43.309  52.683  1.00  0.00    -0.322 N 
HETATM    2  C   UNL     1      26.946  43.546  51.318  1.00  0.00     0.245 C 
HETATM    3  O   UNL     1      27.649  44.327  50.693  1.00  0.00    -0.268 OA
HETATM    4  H   UNL     1      26.133  42.913  53.063  1.00  0.00     0.169 HD
ENDROOT
BRANCH   1   5
HETATM    5  C   UNL     1      27.811  44.032  53.592  1.00  0.00     0.055 C 
HETATM    6  C   UNL     1      27.454  45.315  54.100  1.00  0.00     0.020 A 
HETATM    7  C   UNL     1      28.274  45.845  55.110  1.00  0.00     0.069 A 
HETATM    8  C   UNL     1      26.384  46.128  53.632  1.00  0.00     0.016 A 
HETATM    9  N   UNL     1      29.359  45.214  55.573  1.00  0.00    -0.252 NA
HETATM   10  C   UNL     1      27.977  47.086  55.660  1.00  0.00     0.032 A 
HETATM   11  C   UNL     1      29.732  44.031  55.038  1.00  0.00     0.043 C 
HETATM   12  C   UNL     1      29.026  43.426  53.990  1.00  0.00    -0.010 C 
HETATM   13  C   UNL     1      29.499  42.129  53.387  1.00  0.00     0.052 C 
HETATM   14  C   UNL     1      26.898  47.853  55.219  1.00  0.00     0.002 A 
HETATM   15  C   UNL     1      26.104  47.375  54.190  1.00  0.00     0.001 A 
BRANCH  11  16
HETATM   16  C   UNL     1      30.974  43.400  55.635  1.00  0.00     0.055 C 
HETATM   17  C   UNL     1      31.304  43.860  57.052  1.00  0.00     0.011 C 
ENDBRANCH  11  16
ENDBRANCH   1   5
BRANCH   2  18
HETATM   18  C   UNL     1      25.848  42.794  50.644  1.00  0.00     0.075 C 
HETATM   19  C   UNL     1      25.727  42.891  49.309  1.00  0.00     0.017 C 
BRANCH  19  20
HETATM   20  C   UNL     1      24.695  42.246  48.486  1.00  0.00    -0.033 A 
HETATM   21  C   UNL     1      23.518  42.966  48.213  1.00  0.00     0.051 A 
HETATM   22  C   UNL     1      22.461  42.384  47.503  1.00  0.00     0.102 A 
HETATM   23  C   UNL     1      22.584  41.055  47.067  1.00  0.00     0.101 A 
HETATM   24  C   UNL     1      23.756  40.338  47.316  1.00  0.00     0.040 A 
HETATM   25  C   UNL     1      24.800  40.927  48.034  1.00  0.00     0.014 A 
BRANCH  22  26
HETATM   26  O   UNL     1      21.279  43.012  47.204  1.00  0.00    -0.353 OA
HETATM   27  C   UNL     1      21.342  44.380  46.823  1.00  0.00     0.210 C 
ENDBRANCH  22  26
BRANCH  23  28
HETATM   28  O   UNL     1      21.543  40.514  46.352  1.00  0.00    -0.353 OA
HETATM   29  C   UNL     1      20.980  39.355  46.960  1.00  0.00     0.210 C 
ENDBRANCH  23  28
ENDBRANCH  19  20
ENDBRANCH   2  18
TORSDOF 6
ENDMDL
MODEL 6
REMARK VINA RESULT:      -8.1      7.027     10.459
REMARK  6 active torsions:
REMARK  status: ('A' for Active; 'I' for Inactive)
REMARK    1  A    between atoms: C_2  and  C_3 
REMARK    2  A    between atoms: C_7  and  N_8 
REMARK       I    between atoms: N_8  and  C_9 
REMARK    3  A    between atoms: C_9  and  C_10 
REMARK    4  A    between atoms: C_11  and  C_12 
REMARK    5  A    between atoms: C_14  and  O_15 
REMARK    6  A    between atoms: C_17  and  O_18 
ROOT
HETATM    1  N   UNL     1      23.148  48.471  49.499  1.00  0.00    -0.322 N 
HETATM    2  C   UNL     1      24.458  48.673  49.097  1.00  0.00     0.245 C 
HETATM    3  O   UNL     1      24.835  49.306  48.121  1.00  0.00    -0.268 OA
HETATM    4  H   UNL     1      23.009  47.670  50.095  1.00  0.00     0.169 HD
ENDROOT
BRANCH   1   5
HETATM    5  C   UNL     1      22.013  48.919  48.756  1.00  0.00     0.055 C 
HETATM    6  C   UNL     1      21.326  48.081  47.830  1.00  0.00     0.020 A 
HETATM    7  C   UNL     1      20.131  48.584  47.288  1.00  0.00     0.069 A 
HETATM    8  C   UNL     1      21.774  46.814  47.362  1.00  0.00     0.016 A 
HETATM    9  N   UNL     1      19.651  49.797  47.585  1.00  0.00    -0.252 NA
HETATM   10  C   UNL     1      19.402  47.814  46.390  1.00  0.00     0.032 A 
HETATM   11  C   UNL     1      20.344  50.615  48.408  1.00  0.00     0.043 C 
HETATM   12  C   UNL     1      21.575  50.248  48.969  1.00  0.00    -0.010 C 
HETATM   13  C   UNL     1      22.341  51.204  49.844  1.00  0.00     0.052 C 
HETATM   14  C   UNL     1      19.834  46.555  45.973  1.00  0.00     0.002 A 
HETATM   15  C   UNL     1      21.034  46.058  46.453  1.00  0.00     0.001 A 
BRANCH  11  16
HETATM   16  C   UNL     1      19.712  51.966  48.679  1.00  0.00     0.055 C 
HETATM   17  C   UNL     1      18.639  51.961  49.764  1.00  0.00     0.011 C 
ENDBRANCH  11  16
ENDBRANCH   1   5
BRANCH   2  18
HETATM   18  C   UNL     1      25.429  47.928  49.950  1.00  0.00     0.075 C 
HETATM   19  C   UNL     1      24.967  47.271  51.026  1.00  0.00     0.017 C 
BRANCH  19  20
HETATM   20  C   UNL     1      25.778  46.511  51.989  1.00  0.00    -0.033 A 
HETATM   21  C   UNL     1      25.971  45.138  51.757  1.00  0.00     0.051 A 
HETATM   22  C   UNL     1      26.665  44.339  52.673  1.00  0.00     0.102 A 
HETATM   23  C   UNL     1      27.166  44.926  53.846  1.00  0.00     0.101 A 
HETATM   24  C   UNL     1      26.996  46.293  54.077  1.00  0.00     0.040 A 
HETATM   25  C   UNL     1      26.293  47.078  53.159  1.00  0.00     0.014 A 
BRANCH  22  26
HETATM   26  O   UNL     1      26.888  42.994  52.527  1.00  0.00    -0.353 OA
HETATM   27  C   UNL     1      27.636  42.573  51.394  1.00  0.00     0.210 C 
ENDBRANCH  22  26
BRANCH  23  28
HETATM   28  O   UNL     1      27.863  44.127  54.718  1.00  0.00    -0.353 OA
HETATM   29  C   UNL     1      29.144  44.646  55.064  1.00  0.00     0.210 C 
ENDBRANCH  23  28
ENDBRANCH  19  20
ENDBRANCH   2  18
TORSDOF 6
ENDMDL
MODEL 7
REMARK VINA RESULT:      -8.0      3.131      4.699
REMARK  6 active torsions:
REMARK  status: ('A' for Active; 'I' for Inactive)
REMARK    1  A    between atoms: C_2  and  C_3 
REMARK    2  A    between atoms: C_7  and  N_8 
REMARK       I    between atoms: N_8  and  C_9 
REMARK    3  A    between atoms: C_9  and  C_10 
REMARK    4  A    between atoms: C_11  and  C_12 
REMARK    5  A    between atoms: C_14  and  O_15 
REMARK    6  A    between atoms: C_17  and  O_18 
ROOT
HETATM    1  N   UNL     1      26.912  43.011  52.797  1.00  0.00    -0.322 N 
HETATM    2  C   UNL     1      26.882  43.128  51.417  1.00  0.00     0.245 C 
HETATM    3  O   UNL     1      27.576  43.862  50.729  1.00  0.00    -0.268 OA
HETATM    4  H   UNL     1      26.070  42.637  53.207  1.00  0.00     0.169 HD
ENDROOT
BRANCH   1   5
HETATM    5  C   UNL     1      27.729  43.822  53.643  1.00  0.00     0.055 C 
HETATM    6  C   UNL     1      27.332  45.123  54.070  1.00  0.00     0.020 A 
HETATM    7  C   UNL     1      28.146  45.748  55.030  1.00  0.00     0.069 A 
HETATM    8  C   UNL     1      26.226  45.864  53.567  1.00  0.00     0.016 A 
HETATM    9  N   UNL     1      29.260  45.189  55.516  1.00  0.00    -0.252 NA
HETATM   10  C   UNL     1      27.810  47.012  55.501  1.00  0.00     0.032 A 
HETATM   11  C   UNL     1      29.669  43.986  55.055  1.00  0.00     0.043 C 
HETATM   12  C   UNL     1      28.971  43.288  54.060  1.00  0.00    -0.010 C 
HETATM   13  C   UNL     1      29.483  41.972  53.537  1.00  0.00     0.052 C 
HETATM   14  C   UNL     1      26.698  47.707  55.028  1.00  0.00     0.002 A 
HETATM   15  C   UNL     1      25.908  47.134  54.046  1.00  0.00     0.001 A 
BRANCH  11  16
HETATM   16  C   UNL     1      30.941  43.442  55.672  1.00  0.00     0.055 C 
HETATM   17  C   UNL     1      31.258  43.984  57.063  1.00  0.00     0.011 C 
ENDBRANCH  11  16
ENDBRANCH   1   5
BRANCH   2  18
HETATM   18  C   UNL     1      25.797  42.304  50.807  1.00  0.00     0.075 C 
HETATM   19  C   UNL     1      25.720  42.233  49.468  1.00  0.00     0.017 C 
BRANCH  19  20
HETATM   20  C   UNL     1      24.708  41.496  48.699  1.00  0.00    -0.033 A 
HETATM   21  C   UNL     1      25.137  40.438  47.878  1.00  0.00     0.051 A 
HETATM   22  C   UNL     1      24.238  39.746  47.058  1.00  0.00     0.102 A 
HETATM   23  C   UNL     1      22.887  40.126  47.056  1.00  0.00     0.101 A 
HETATM   24  C   UNL     1      22.446  41.163  47.882  1.00  0.00     0.040 A 
HETATM   25  C   UNL     1      23.356  41.853  48.688  1.00  0.00     0.014 A 
BRANCH  22  26
HETATM   26  O   UNL     1      24.577  38.712  46.224  1.00  0.00    -0.353 OA
HETATM   27  C   UNL     1      25.262  37.605  46.795  1.00  0.00     0.210 C 
ENDBRANCH  22  26
BRANCH  23  28
HETATM   28  O   UNL     1      22.020  39.417  46.262  1.00  0.00    -0.353 OA
HETATM   29  C   UNL     1      21.078  38.642  46.999  1.00  0.00     0.210 C 
ENDBRANCH  23  28
ENDBRANCH  19  20
ENDBRANCH   2  18
TORSDOF 6
ENDMDL
MODEL 8
REMARK VINA RESULT:      -7.9      3.908      5.517
REMARK  6 active torsions:
REMARK  status: ('A' for Active; 'I' for Inactive)
REMARK    1  A    between atoms: C_2  and  C_3 
REMARK    2  A    between atoms: C_7  and  N_8 
REMARK       I    between atoms: N_8  and  C_9 
REMARK    3  A    between atoms: C_9  and  C_10 
REMARK    4  A    between atoms: C_11  and  C_12 
REMARK    5  A    between atoms: C_14  and  O_15 
REMARK    6  A    between atoms: C_17  and  O_18 
ROOT
HETATM    1  N   UNL     1      26.714  43.411  52.514  1.00  0.00    -0.322 N 
HETATM    2  C   UNL     1      26.776  43.614  51.145  1.00  0.00     0.245 C 
HETATM    3  O   UNL     1      27.608  44.277  50.540  1.00  0.00    -0.268 OA
HETATM    4  H   UNL     1      25.805  43.143  52.859  1.00  0.00     0.169 HD
ENDROOT
BRANCH   1   5
HETATM    5  C   UNL     1      27.593  44.039  53.449  1.00  0.00     0.055 C 
HETATM    6  C   UNL     1      27.332  45.329  53.997  1.00  0.00     0.020 A 
HETATM    7  C   UNL     1      28.185  45.762  55.026  1.00  0.00     0.069 A 
HETATM    8  C   UNL     1      26.329  46.235  53.553  1.00  0.00     0.016 A 
HETATM    9  N   UNL     1      29.216  45.036  55.472  1.00  0.00    -0.252 NA
HETATM   10  C   UNL     1      27.979  47.004  55.616  1.00  0.00     0.032 A 
HETATM   11  C   UNL     1      29.501  43.845  54.900  1.00  0.00     0.043 C 
HETATM   12  C   UNL     1      28.757  43.330  53.830  1.00  0.00    -0.010 C 
HETATM   13  C   UNL     1      29.133  42.021  53.187  1.00  0.00     0.052 C 
HETATM   14  C   UNL     1      26.964  47.863  55.197  1.00  0.00     0.002 A 
HETATM   15  C   UNL     1      26.142  47.481  54.150  1.00  0.00     0.001 A 
BRANCH  11  16
HETATM   16  C   UNL     1      30.688  43.103  55.480  1.00  0.00     0.055 C 
HETATM   17  C   UNL     1      31.362  43.800  56.658  1.00  0.00     0.011 C 
ENDBRANCH  11  16
ENDBRANCH   1   5
BRANCH   2  18
HETATM   18  C   UNL     1      25.619  43.000  50.432  1.00  0.00     0.075 C 
HETATM   19  C   UNL     1      25.168  43.588  49.311  1.00  0.00     0.017 C 
BRANCH  19  20
HETATM   20  C   UNL     1      24.028  43.140  48.499  1.00  0.00    -0.033 A 
HETATM   21  C   UNL     1      23.824  41.758  48.346  1.00  0.00     0.051 A 
HETATM   22  C   UNL     1      22.806  41.262  47.523  1.00  0.00     0.102 A 
HETATM   23  C   UNL     1      21.984  42.169  46.835  1.00  0.00     0.101 A 
HETATM   24  C   UNL     1      22.166  43.545  46.995  1.00  0.00     0.040 A 
HETATM   25  C   UNL     1      23.192  44.027  47.813  1.00  0.00     0.014 A 
BRANCH  22  26
HETATM   26  O   UNL     1      22.548  39.932  47.312  1.00  0.00    -0.353 OA
HETATM   27  C   UNL     1      23.515  39.183  46.589  1.00  0.00     0.210 C 
ENDBRANCH  22  26
BRANCH  23  28
HETATM   28  O   UNL     1      20.978  41.659  46.052  1.00  0.00    -0.353 OA
HETATM   29  C   UNL     1      20.119  42.658  45.511  1.00  0.00     0.210 C 
ENDBRANCH  23  28
ENDBRANCH  19  20
ENDBRANCH   2  18
TORSDOF 6
ENDMDL
MODEL 9
REMARK VINA RESULT:      -7.9      7.225     10.875
REMARK  6 active torsions:
REMARK  status: ('A' for Active; 'I' for Inactive)
REMARK    1  A    between atoms: C_2  and  C_3 
REMARK    2  A    between atoms: C_7  and  N_8 
REMARK       I    between atoms: N_8  and  C_9 
REMARK    3  A    between atoms: C_9  and  C_10 
REMARK    4  A    between atoms: C_11  and  C_12 
REMARK    5  A    between atoms: C_14  and  O_15 
REMARK    6  A    between atoms: C_17  and  O_18 
ROOT
HETATM    1  N   UNL     1      22.570  47.980  49.469  1.00  0.00    -0.322 N 
HETATM    2  C   UNL     1      23.824  48.405  49.063  1.00  0.00     0.245 C 
HETATM    3  O   UNL     1      24.099  48.987  48.023  1.00  0.00    -0.268 OA
HETATM    4  H   UNL     1      22.577  47.241  50.156  1.00  0.00     0.169 HD
ENDROOT
BRANCH   1   5
HETATM    5  C   UNL     1      21.396  48.090  48.663  1.00  0.00     0.055 C 
HETATM    6  C   UNL     1      20.712  49.326  48.473  1.00  0.00     0.020 A 
HETATM    7  C   UNL     1      19.672  49.334  47.528  1.00  0.00     0.069 A 
HETATM    8  C   UNL     1      20.947  50.528  49.197  1.00  0.00     0.016 A 
HETATM    9  N   UNL     1      19.299  48.245  46.846  1.00  0.00    -0.252 NA
HETATM   10  C   UNL     1      18.971  50.509  47.283  1.00  0.00     0.032 A 
HETATM   11  C   UNL     1      19.904  47.060  47.082  1.00  0.00     0.043 C 
HETATM   12  C   UNL     1      20.919  46.914  48.038  1.00  0.00    -0.010 C 
HETATM   13  C   UNL     1      21.537  45.567  48.307  1.00  0.00     0.052 C 
HETATM   14  C   UNL     1      19.243  51.691  47.972  1.00  0.00     0.002 A 
HETATM   15  C   UNL     1      20.230  51.697  48.944  1.00  0.00     0.001 A 
BRANCH  11  16
HETATM   16  C   UNL     1      19.408  45.891  46.255  1.00  0.00     0.055 C 
HETATM   17  C   UNL     1      18.016  45.392  46.628  1.00  0.00     0.011 C 
ENDBRANCH  11  16
ENDBRANCH   1   5
BRANCH   2  18
HETATM   18  C   UNL     1      24.895  47.984  50.013  1.00  0.00     0.075 C 
HETATM   19  C   UNL     1      24.641  46.975  50.862  1.00  0.00     0.017 C 
BRANCH  19  20
HETATM   20  C   UNL     1      25.563  46.449  51.879  1.00  0.00    -0.033 A 
HETATM   21  C   UNL     1      25.928  45.093  51.807  1.00  0.00     0.051 A 
HETATM   22  C   UNL     1      26.738  44.507  52.786  1.00  0.00     0.102 A 
HETATM   23  C   UNL     1      27.183  45.293  53.861  1.00  0.00     0.101 A 
HETATM   24  C   UNL     1      26.842  46.646  53.933  1.00  0.00     0.040 A 
HETATM   25  C   UNL     1      26.025  47.216  52.953  1.00  0.00     0.014 A 
BRANCH  22  26
HETATM   26  O   UNL     1      27.130  43.193  52.794  1.00  0.00    -0.353 OA
HETATM   27  C   UNL     1      27.965  42.752  51.732  1.00  0.00     0.210 C 
ENDBRANCH  22  26
BRANCH  23  28
HETATM   28  O   UNL     1      27.995  44.702  54.797  1.00  0.00    -0.353 OA
HETATM   29  C   UNL     1      28.927  45.602  55.389  1.00  0.00     0.210 C 
ENDBRANCH  23  28
ENDBRANCH  19  20
ENDBRANCH   2  18
TORSDOF 6
ENDMDL
MODEL 10
REMARK VINA RESULT:      -7.8     14.383     17.827
REMARK  6 active torsions:
REMARK  status: ('A' for Active; 'I' for Inactive)
REMARK    1  A    between atoms: C_2  and  C_3 
REMARK    2  A    between atoms: C_7  and  N_8 
REMARK       I    between atoms: N_8  and  C_9 
REMARK    3  A    between atoms: C_9  and  C_10 
REMARK    4  A    between atoms: C_11  and  C_12 
REMARK    5  A    between atoms: C_14  and  O_15 
REMARK    6  A    between atoms: C_17  and  O_18 
ROOT
HETATM    1  N   UNL     1      15.363  55.330  50.344  1.00  0.00    -0.322 N 
HETATM    2  C   UNL     1      14.785  54.112  50.662  1.00  0.00     0.245 C 
HETATM    3  O   UNL     1      13.735  53.934  51.264  1.00  0.00    -0.268 OA
HETATM    4  H   UNL     1      16.355  55.293  50.166  1.00  0.00     0.169 HD
ENDROOT
BRANCH   1   5
HETATM    5  C   UNL     1      14.837  56.591  50.765  1.00  0.00     0.055 C 
HETATM    6  C   UNL     1      15.079  57.124  52.064  1.00  0.00     0.020 A 
HETATM    7  C   UNL     1      14.646  58.441  52.296  1.00  0.00     0.069 A 
HETATM    8  C   UNL     1      15.659  56.424  53.158  1.00  0.00     0.016 A 
HETATM    9  N   UNL     1      14.011  59.173  51.374  1.00  0.00    -0.252 NA
HETATM   10  C   UNL     1      14.862  59.030  53.537  1.00  0.00     0.032 A 
HETATM   11  C   UNL     1      13.722  58.636  50.167  1.00  0.00     0.043 C 
HETATM   12  C   UNL     1      14.054  57.315  49.835  1.00  0.00    -0.010 C 
HETATM   13  C   UNL     1      13.674  56.736  48.498  1.00  0.00     0.052 C 
HETATM   14  C   UNL     1      15.470  58.343  54.587  1.00  0.00     0.002 A 
HETATM   15  C   UNL     1      15.860  57.027  54.399  1.00  0.00     0.001 A 
BRANCH  11  16
HETATM   16  C   UNL     1      13.003  59.549  49.195  1.00  0.00     0.055 C 
HETATM   17  C   UNL     1      13.829  60.731  48.700  1.00  0.00     0.011 C 
ENDBRANCH  11  16
ENDBRANCH   1   5
BRANCH   2  18
HETATM   18  C   UNL     1      15.650  52.961  50.271  1.00  0.00     0.075 C 
HETATM   19  C   UNL     1      16.905  53.209  49.861  1.00  0.00     0.017 C 
BRANCH  19  20
HETATM   20  C   UNL     1      17.882  52.206  49.414  1.00  0.00    -0.033 A 
HETATM   21  C   UNL     1      17.783  50.904  49.936  1.00  0.00     0.051 A 
HETATM   22  C   UNL     1      18.727  49.921  49.615  1.00  0.00     0.102 A 
HETATM   23  C   UNL     1      19.791  50.253  48.762  1.00  0.00     0.101 A 
HETATM   24  C   UNL     1      19.888  51.538  48.223  1.00  0.00     0.040 A 
HETATM   25  C   UNL     1      18.945  52.512  48.559  1.00  0.00     0.014 A 
BRANCH  22  26
HETATM   26  O   UNL     1      18.708  48.634  50.089  1.00  0.00    -0.353 OA
HETATM   27  C   UNL     1      18.523  48.453  51.486  1.00  0.00     0.210 C 
ENDBRANCH  22  26
BRANCH  23  28
HETATM   28  O   UNL     1      20.691  49.265  48.444  1.00  0.00    -0.353 OA
HETATM   29  C   UNL     1      21.919  49.364  49.160  1.00  0.00     0.210 C 
ENDBRANCH  23  28
ENDBRANCH  19  20
ENDBRANCH   2  18
TORSDOF 6
ENDMDL
