MODEL 1
REMARK VINA RESULT:     -10.1      0.000      0.000
REMARK  4 active torsions:
REMARK  status: ('A' for Active; 'I' for Inactive)
REMARK    1  A    between atoms: C_2  and  C_3 
REMARK    2  A    between atoms: C_4  and  C_5 
REMARK       I    between atoms: C_5  and  N_6 
REMARK    3  A    between atoms: N_6  and  C_7 
REMARK    4  A    between atoms: C_14  and  C_15 
REMARK       I    between atoms: C_15  and  N_16 
ROOT
HETATM    1  C   UNL     1      25.837  47.338  50.539  1.00  0.00     0.035 A 
HETATM    2  C   UNL     1      24.571  47.627  50.013  1.00  0.00     0.046 A 
HETATM    3  C   UNL     1      24.434  48.632  49.031  1.00  0.00     0.030 A 
HETATM    4  C   UNL     1      25.569  49.311  48.604  1.00  0.00     0.063 A 
HETATM    5  N   UNL     1      25.127  50.193  47.659  1.00  0.00    -0.277 N 
HETATM    6  H   UNL     1      25.684  50.851  47.126  1.00  0.00     0.189 HD
HETATM    7  N   UNL     1      23.801  50.162  47.442  1.00  0.00    -0.168 NA
HETATM    8  C   UNL     1      23.358  49.202  48.286  1.00  0.00     0.156 A 
HETATM    9  C   UNL     1      26.844  49.054  49.110  1.00  0.00     0.034 A 
HETATM   10  C   UNL     1      26.952  48.059  50.091  1.00  0.00     0.032 A 
ENDROOT
BRANCH   1  11
HETATM   11  N   UNL     1      26.072  46.337  51.508  1.00  0.00    -0.327 N 
HETATM   12  C   UNL     1      26.764  45.159  51.330  1.00  0.00     0.227 C 
HETATM   13  O   UNL     1      27.254  44.733  50.297  1.00  0.00    -0.273 OA
HETATM   14  H   UNL     1      25.740  46.531  52.440  1.00  0.00     0.169 HD
BRANCH  12  15
HETATM   15  C   UNL     1      26.941  44.337  52.559  1.00  0.00     0.087 A 
HETATM   16  C   UNL     1      27.333  45.106  53.818  1.00  0.00     0.032 A 
HETATM   17  C   UNL     1      26.060  44.303  53.778  1.00  0.00     0.025 A 
BRANCH  16  18
HETATM   18  C   UNL     1      28.566  44.670  54.563  1.00  0.00    -0.053 A 
HETATM   19  C   UNL     1      29.151  45.525  55.515  1.00  0.00     0.009 A 
HETATM   20  C   UNL     1      30.267  45.136  56.259  1.00  0.00     0.024 A 
HETATM   21  C   UNL     1      30.820  43.876  56.060  1.00  0.00     0.034 A 
HETATM   22  C   UNL     1      30.263  43.007  55.125  1.00  0.00     0.024 A 
HETATM   23 CL   UNL     1      32.189  43.385  56.978  1.00  0.00    -0.084 Cl
HETATM   24  C   UNL     1      29.142  43.402  54.387  1.00  0.00     0.009 A 
ENDBRANCH  16  18
ENDBRANCH  12  15
ENDBRANCH   1  11
BRANCH   8  25
HETATM   25  C   UNL     1      21.932  48.854  48.363  1.00  0.00     0.270 C 
HETATM   26  N   UNL     1      21.330  49.223  49.535  1.00  0.00    -0.365 N 
HETATM   27  H   UNL     1      21.888  49.683  50.245  1.00  0.00     0.159 HD
HETATM   28  H   UNL     1      20.355  49.012  49.682  1.00  0.00     0.159 HD
HETATM   29  O   UNL     1      21.302  48.284  47.480  1.00  0.00    -0.266 OA
ENDBRANCH   8  25
TORSDOF 4
ENDMDL
MODEL 2
REMARK VINA RESULT:      -9.4      4.635      9.359
REMARK  4 active torsions:
REMARK  status: ('A' for Active; 'I' for Inactive)
REMARK    1  A    between atoms: C_2  and  C_3 
REMARK    2  A    between atoms: C_4  and  C_5 
REMARK       I    between atoms: C_5  and  N_6 
REMARK    3  A    between atoms: N_6  and  C_7 
REMARK    4  A    between atoms: C_14  and  C_15 
REMARK       I    between atoms: C_15  and  N_16 
ROOT
HETATM    1  C   UNL     1      28.192  44.343  53.784  1.00  0.00     0.035 A 
HETATM    2  C   UNL     1      28.543  44.929  55.007  1.00  0.00     0.046 A 
HETATM    3  C   UNL     1      29.711  44.505  55.677  1.00  0.00     0.030 A 
HETATM    4  C   UNL     1      30.492  43.513  55.098  1.00  0.00     0.063 A 
HETATM    5  N   UNL     1      31.540  43.332  55.957  1.00  0.00    -0.277 N 
HETATM    6  H   UNL     1      32.314  42.687  55.852  1.00  0.00     0.189 HD
HETATM    7  N   UNL     1      31.504  44.108  57.053  1.00  0.00    -0.168 NA
HETATM    8  C   UNL     1      30.376  44.838  56.896  1.00  0.00     0.156 A 
HETATM    9  C   UNL     1      30.170  42.902  53.885  1.00  0.00     0.034 A 
HETATM   10  C   UNL     1      29.001  43.333  53.244  1.00  0.00     0.032 A 
ENDROOT
BRANCH   1  11
HETATM   11  N   UNL     1      27.055  44.718  53.033  1.00  0.00    -0.327 N 
HETATM   12  C   UNL     1      26.474  45.965  52.977  1.00  0.00     0.227 C 
HETATM   13  O   UNL     1      26.795  46.964  53.602  1.00  0.00    -0.273 OA
HETATM   14  H   UNL     1      26.659  44.006  52.439  1.00  0.00     0.169 HD
BRANCH  12  15
HETATM   15  C   UNL     1      25.340  46.093  52.021  1.00  0.00     0.087 A 
HETATM   16  C   UNL     1      25.729  46.283  50.557  1.00  0.00     0.032 A 
HETATM   17  C   UNL     1      24.898  45.101  50.980  1.00  0.00     0.025 A 
BRANCH  16  18
HETATM   18  C   UNL     1      25.167  47.470  49.820  1.00  0.00    -0.053 A 
HETATM   19  C   UNL     1      23.777  47.591  49.638  1.00  0.00     0.009 A 
HETATM   20  C   UNL     1      23.217  48.701  49.002  1.00  0.00     0.024 A 
HETATM   21  C   UNL     1      24.045  49.714  48.533  1.00  0.00     0.034 A 
HETATM   22  C   UNL     1      25.425  49.623  48.698  1.00  0.00     0.024 A 
HETATM   23 CL   UNL     1      23.365  51.089  47.755  1.00  0.00    -0.084 Cl
HETATM   24  C   UNL     1      25.978  48.511  49.342  1.00  0.00     0.009 A 
ENDBRANCH  16  18
ENDBRANCH  12  15
ENDBRANCH   1  11
BRANCH   8  25
HETATM   25  C   UNL     1      29.961  45.826  57.902  1.00  0.00     0.270 C 
HETATM   26  N   UNL     1      30.999  46.394  58.588  1.00  0.00    -0.365 N 
HETATM   27  H   UNL     1      31.945  46.100  58.371  1.00  0.00     0.159 HD
HETATM   28  H   UNL     1      30.808  47.074  59.308  1.00  0.00     0.159 HD
HETATM   29  O   UNL     1      28.800  46.139  58.138  1.00  0.00    -0.266 OA
ENDBRANCH   8  25
TORSDOF 4
ENDMDL
MODEL 3
REMARK VINA RESULT:      -9.3      4.975      7.269
REMARK  4 active torsions:
REMARK  status: ('A' for Active; 'I' for Inactive)
REMARK    1  A    between atoms: C_2  and  C_3 
REMARK    2  A    between atoms: C_4  and  C_5 
REMARK       I    between atoms: C_5  and  N_6 
REMARK    3  A    between atoms: N_6  and  C_7 
REMARK    4  A    between atoms: C_14  and  C_15 
REMARK       I    between atoms: C_15  and  N_16 
ROOT
HETATM    1  C   UNL     1      26.235  41.888  51.145  1.00  0.00     0.035 A 
HETATM    2  C   UNL     1      26.925  40.699  50.873  1.00  0.00     0.046 A 
HETATM    3  C   UNL     1      26.560  39.918  49.755  1.00  0.00     0.030 A 
HETATM    4  C   UNL     1      25.520  40.355  48.943  1.00  0.00     0.063 A 
HETATM    5  N   UNL     1      25.414  39.415  47.956  1.00  0.00    -0.277 N 
HETATM    6  H   UNL     1      24.762  39.413  47.180  1.00  0.00     0.189 HD
HETATM    7  N   UNL     1      26.282  38.395  48.061  1.00  0.00    -0.168 NA
HETATM    8  C   UNL     1      26.996  38.690  49.171  1.00  0.00     0.156 A 
HETATM    9  C   UNL     1      24.808  41.530  49.187  1.00  0.00     0.034 A 
HETATM   10  C   UNL     1      25.182  42.283  50.308  1.00  0.00     0.032 A 
ENDROOT
BRANCH   1  11
HETATM   11  N   UNL     1      26.544  42.742  52.227  1.00  0.00    -0.327 N 
HETATM   12  C   UNL     1      25.745  43.733  52.753  1.00  0.00     0.227 C 
HETATM   13  O   UNL     1      24.650  44.096  52.354  1.00  0.00    -0.273 OA
HETATM   14  H   UNL     1      27.422  42.573  52.692  1.00  0.00     0.169 HD
BRANCH  12  15
HETATM   15  C   UNL     1      26.290  44.412  53.961  1.00  0.00     0.087 A 
HETATM   16  C   UNL     1      27.631  45.117  53.775  1.00  0.00     0.032 A 
HETATM   17  C   UNL     1      26.414  45.890  54.208  1.00  0.00     0.025 A 
BRANCH  16  18
HETATM   18  C   UNL     1      28.759  44.757  54.704  1.00  0.00    -0.053 A 
HETATM   19  C   UNL     1      29.482  43.567  54.502  1.00  0.00     0.009 A 
HETATM   20  C   UNL     1      30.566  43.223  55.315  1.00  0.00     0.024 A 
HETATM   21  C   UNL     1      30.943  44.071  56.350  1.00  0.00     0.034 A 
HETATM   22  C   UNL     1      30.246  45.256  56.575  1.00  0.00     0.024 A 
HETATM   23 CL   UNL     1      32.280  43.661  57.351  1.00  0.00    -0.084 Cl
HETATM   24  C   UNL     1      29.166  45.596  55.753  1.00  0.00     0.009 A 
ENDBRANCH  16  18
ENDBRANCH  12  15
ENDBRANCH   1  11
BRANCH   8  25
HETATM   25  C   UNL     1      28.067  37.803  49.646  1.00  0.00     0.270 C 
HETATM   26  N   UNL     1      27.624  36.607  50.140  1.00  0.00    -0.365 N 
HETATM   27  H   UNL     1      26.627  36.426  50.153  1.00  0.00     0.159 HD
HETATM   28  H   UNL     1      28.288  35.940  50.502  1.00  0.00     0.159 HD
HETATM   29  O   UNL     1      29.262  38.074  49.622  1.00  0.00    -0.266 OA
ENDBRANCH   8  25
TORSDOF 4
ENDMDL
MODEL 4
REMARK VINA RESULT:      -9.3      1.899      3.080
REMARK  4 active torsions:
REMARK  status: ('A' for Active; 'I' for Inactive)
REMARK    1  A    between atoms: C_2  and  C_3 
REMARK    2  A    between atoms: C_4  and  C_5 
REMARK       I    between atoms: C_5  and  N_6 
REMARK    3  A    between atoms: N_6  and  C_7 
REMARK    4  A    between atoms: C_14  and  C_15 
REMARK       I    between atoms: C_15  and  N_16 
ROOT
HETATM    1  C   UNL     1      25.799  45.172  50.974  1.00  0.00     0.035 A 
HETATM    2  C   UNL     1      25.572  46.466  50.485  1.00  0.00     0.046 A 
HETATM    3  C   UNL     1      24.370  46.756  49.806  1.00  0.00     0.030 A 
HETATM    4  C   UNL     1      23.431  45.745  49.644  1.00  0.00     0.063 A 
HETATM    5  N   UNL     1      22.389  46.325  48.975  1.00  0.00    -0.277 N 
HETATM    6  H   UNL     1      21.521  45.883  48.692  1.00  0.00     0.189 HD
HETATM    7  N   UNL     1      22.570  47.621  48.674  1.00  0.00    -0.168 NA
HETATM    8  C   UNL     1      23.793  47.903  49.179  1.00  0.00     0.156 A 
HETATM    9  C   UNL     1      23.625  44.445  50.112  1.00  0.00     0.034 A 
HETATM   10  C   UNL     1      24.831  44.179  50.773  1.00  0.00     0.032 A 
ENDROOT
BRANCH   1  11
HETATM   11  N   UNL     1      26.962  44.796  51.682  1.00  0.00    -0.327 N 
HETATM   12  C   UNL     1      27.743  43.683  51.460  1.00  0.00     0.227 C 
HETATM   13  O   UNL     1      27.551  42.789  50.651  1.00  0.00    -0.273 OA
HETATM   14  H   UNL     1      27.279  45.437  52.393  1.00  0.00     0.169 HD
BRANCH  12  15
HETATM   15  C   UNL     1      28.971  43.593  52.298  1.00  0.00     0.087 A 
HETATM   16  C   UNL     1      28.768  43.047  53.709  1.00  0.00     0.032 A 
HETATM   17  C   UNL     1      29.689  42.349  52.745  1.00  0.00     0.025 A 
BRANCH  16  18
HETATM   18  C   UNL     1      29.254  43.876  54.868  1.00  0.00    -0.053 A 
HETATM   19  C   UNL     1      30.448  43.529  55.528  1.00  0.00     0.009 A 
HETATM   20  C   UNL     1      30.954  44.300  56.576  1.00  0.00     0.024 A 
HETATM   21  C   UNL     1      30.269  45.439  56.985  1.00  0.00     0.034 A 
HETATM   22  C   UNL     1      29.084  45.807  56.352  1.00  0.00     0.024 A 
HETATM   23 CL   UNL     1      30.888  46.400  58.269  1.00  0.00    -0.084 Cl
HETATM   24  C   UNL     1      28.586  45.033  55.299  1.00  0.00     0.009 A 
ENDBRANCH  16  18
ENDBRANCH  12  15
ENDBRANCH   1  11
BRANCH   8  25
HETATM   25  C   UNL     1      24.380  49.244  49.052  1.00  0.00     0.270 C 
HETATM   26  N   UNL     1      25.658  49.251  48.562  1.00  0.00    -0.365 N 
HETATM   27  H   UNL     1      26.097  48.366  48.338  1.00  0.00     0.159 HD
HETATM   28  H   UNL     1      26.145  50.127  48.454  1.00  0.00     0.159 HD
HETATM   29  O   UNL     1      23.811  50.288  49.350  1.00  0.00    -0.266 OA
ENDBRANCH   8  25
TORSDOF 4
ENDMDL
MODEL 5
REMARK VINA RESULT:      -9.3      4.780      9.548
REMARK  4 active torsions:
REMARK  status: ('A' for Active; 'I' for Inactive)
REMARK    1  A    between atoms: C_2  and  C_3 
REMARK    2  A    between atoms: C_4  and  C_5 
REMARK       I    between atoms: C_5  and  N_6 
REMARK    3  A    between atoms: N_6  and  C_7 
REMARK    4  A    between atoms: C_14  and  C_15 
REMARK       I    between atoms: C_15  and  N_16 
ROOT
HETATM    1  C   UNL     1      24.516  46.723  50.673  1.00  0.00     0.035 A 
HETATM    2  C   UNL     1      25.141  47.063  51.879  1.00  0.00     0.046 A 
HETATM    3  C   UNL     1      25.929  46.106  52.555  1.00  0.00     0.030 A 
HETATM    4  C   UNL     1      26.070  44.841  51.998  1.00  0.00     0.063 A 
HETATM    5  N   UNL     1      26.885  44.158  52.856  1.00  0.00    -0.277 N 
HETATM    6  H   UNL     1      27.209  43.202  52.763  1.00  0.00     0.189 HD
HETATM    7  N   UNL     1      27.276  44.860  53.933  1.00  0.00    -0.168 NA
HETATM    8  C   UNL     1      26.690  46.068  53.762  1.00  0.00     0.156 A 
HETATM    9  C   UNL     1      25.458  44.465  50.801  1.00  0.00     0.034 A 
HETATM   10  C   UNL     1      24.673  45.429  50.155  1.00  0.00     0.032 A 
ENDROOT
BRANCH   1  11
HETATM   11  N   UNL     1      23.728  47.620  49.918  1.00  0.00    -0.327 N 
HETATM   12  C   UNL     1      24.167  48.725  49.224  1.00  0.00     0.227 C 
HETATM   13  O   UNL     1      25.303  49.168  49.171  1.00  0.00    -0.273 OA
HETATM   14  H   UNL     1      22.748  47.397  49.842  1.00  0.00     0.169 HD
BRANCH  12  15
HETATM   15  C   UNL     1      23.122  49.433  48.433  1.00  0.00     0.087 A 
HETATM   16  C   UNL     1      22.668  50.778  48.992  1.00  0.00     0.032 A 
HETATM   17  C   UNL     1      23.278  50.688  47.619  1.00  0.00     0.025 A 
BRANCH  16  18
HETATM   18  C   UNL     1      21.197  50.987  49.235  1.00  0.00    -0.053 A 
HETATM   19  C   UNL     1      20.461  51.843  48.394  1.00  0.00     0.009 A 
HETATM   20  C   UNL     1      19.086  52.025  48.559  1.00  0.00     0.024 A 
HETATM   21  C   UNL     1      18.421  51.350  49.576  1.00  0.00     0.034 A 
HETATM   22  C   UNL     1      19.122  50.496  50.425  1.00  0.00     0.024 A 
HETATM   23 CL   UNL     1      16.727  51.561  49.782  1.00  0.00    -0.084 Cl
HETATM   24  C   UNL     1      20.498  50.315  50.250  1.00  0.00     0.009 A 
ENDBRANCH  16  18
ENDBRANCH  12  15
ENDBRANCH   1  11
BRANCH   8  25
HETATM   25  C   UNL     1      26.866  47.145  54.745  1.00  0.00     0.270 C 
HETATM   26  N   UNL     1      28.151  47.287  55.195  1.00  0.00    -0.365 N 
HETATM   27  H   UNL     1      28.862  46.658  54.841  1.00  0.00     0.159 HD
HETATM   28  H   UNL     1      28.363  47.994  55.882  1.00  0.00     0.159 HD
HETATM   29  O   UNL     1      25.969  47.873  55.154  1.00  0.00    -0.266 OA
ENDBRANCH   8  25
TORSDOF 4
ENDMDL
MODEL 6
REMARK VINA RESULT:      -9.1      4.294      5.409
REMARK  4 active torsions:
REMARK  status: ('A' for Active; 'I' for Inactive)
REMARK    1  A    between atoms: C_2  and  C_3 
REMARK    2  A    between atoms: C_4  and  C_5 
REMARK       I    between atoms: C_5  and  N_6 
REMARK    3  A    between atoms: N_6  and  C_7 
REMARK    4  A    between atoms: C_14  and  C_15 
REMARK       I    between atoms: C_15  and  N_16 
ROOT
HETATM    1  C   UNL     1      26.134  42.108  51.160  1.00  0.00     0.035 A 
HETATM    2  C   UNL     1      25.188  42.487  50.199  1.00  0.00     0.046 A 
HETATM    3  C   UNL     1      24.878  41.611  49.137  1.00  0.00     0.030 A 
HETATM    4  C   UNL     1      25.521  40.381  49.075  1.00  0.00     0.063 A 
HETATM    5  N   UNL     1      25.011  39.763  47.967  1.00  0.00    -0.277 N 
HETATM    6  H   UNL     1      25.248  38.842  47.615  1.00  0.00     0.189 HD
HETATM    7  N   UNL     1      24.103  40.487  47.292  1.00  0.00    -0.168 NA
HETATM    8  C   UNL     1      24.011  41.634  48.002  1.00  0.00     0.156 A 
HETATM    9  C   UNL     1      26.473  39.972  50.010  1.00  0.00     0.034 A 
HETATM   10  C   UNL     1      26.771  40.864  51.049  1.00  0.00     0.032 A 
ENDROOT
BRANCH   1  11
HETATM   11  N   UNL     1      26.491  42.910  52.267  1.00  0.00    -0.327 N 
HETATM   12  C   UNL     1      25.720  43.877  52.871  1.00  0.00     0.227 C 
HETATM   13  O   UNL     1      24.611  44.262  52.536  1.00  0.00    -0.273 OA
HETATM   14  H   UNL     1      27.387  42.717  52.687  1.00  0.00     0.169 HD
BRANCH  12  15
HETATM   15  C   UNL     1      26.318  44.497  54.087  1.00  0.00     0.087 A 
HETATM   16  C   UNL     1      27.645  45.221  53.874  1.00  0.00     0.032 A 
HETATM   17  C   UNL     1      26.446  45.962  54.403  1.00  0.00     0.025 A 
BRANCH  16  18
HETATM   18  C   UNL     1      28.817  44.821  54.730  1.00  0.00    -0.053 A 
HETATM   19  C   UNL     1      29.201  45.629  55.816  1.00  0.00     0.009 A 
HETATM   20  C   UNL     1      30.254  45.267  56.660  1.00  0.00     0.024 A 
HETATM   21  C   UNL     1      30.944  44.083  56.428  1.00  0.00     0.034 A 
HETATM   22  C   UNL     1      30.588  43.262  55.360  1.00  0.00     0.024 A 
HETATM   23 CL   UNL     1      32.236  43.624  57.466  1.00  0.00    -0.084 Cl
HETATM   24  C   UNL     1      29.529  43.629  54.523  1.00  0.00     0.009 A 
ENDBRANCH  16  18
ENDBRANCH  12  15
ENDBRANCH   1  11
BRANCH   8  25
HETATM   25  C   UNL     1      23.110  42.718  47.587  1.00  0.00     0.270 C 
HETATM   26  N   UNL     1      23.732  43.736  46.917  1.00  0.00    -0.365 N 
HETATM   27  H   UNL     1      24.733  43.680  46.767  1.00  0.00     0.159 HD
HETATM   28  H   UNL     1      23.194  44.529  46.605  1.00  0.00     0.159 HD
HETATM   29  O   UNL     1      21.904  42.747  47.803  1.00  0.00    -0.266 OA
ENDBRANCH   8  25
TORSDOF 4
ENDMDL
MODEL 7
REMARK VINA RESULT:      -8.9      2.118      2.909
REMARK  4 active torsions:
REMARK  status: ('A' for Active; 'I' for Inactive)
REMARK    1  A    between atoms: C_2  and  C_3 
REMARK    2  A    between atoms: C_4  and  C_5 
REMARK       I    between atoms: C_5  and  N_6 
REMARK    3  A    between atoms: N_6  and  C_7 
REMARK    4  A    between atoms: C_14  and  C_15 
REMARK       I    between atoms: C_15  and  N_16 
ROOT
HETATM    1  C   UNL     1      24.206  46.158  49.383  1.00  0.00     0.035 A 
HETATM    2  C   UNL     1      23.836  47.489  49.618  1.00  0.00     0.046 A 
HETATM    3  C   UNL     1      22.596  47.965  49.141  1.00  0.00     0.030 A 
HETATM    4  C   UNL     1      21.764  47.093  48.449  1.00  0.00     0.063 A 
HETATM    5  N   UNL     1      20.654  47.825  48.135  1.00  0.00    -0.277 N 
HETATM    6  H   UNL     1      19.832  47.508  47.634  1.00  0.00     0.189 HD
HETATM    7  N   UNL     1      20.693  49.103  48.547  1.00  0.00    -0.168 NA
HETATM    8  C   UNL     1      21.890  49.206  49.169  1.00  0.00     0.156 A 
HETATM    9  C   UNL     1      22.103  45.763  48.191  1.00  0.00     0.034 A 
HETATM   10  C   UNL     1      23.343  45.317  48.667  1.00  0.00     0.032 A 
ENDROOT
BRANCH   1  11
HETATM   11  N   UNL     1      25.416  45.590  49.840  1.00  0.00    -0.327 N 
HETATM   12  C   UNL     1      25.849  45.503  51.145  1.00  0.00     0.227 C 
HETATM   13  O   UNL     1      25.301  45.945  52.142  1.00  0.00    -0.273 OA
HETATM   14  H   UNL     1      25.999  45.159  49.140  1.00  0.00     0.169 HD
BRANCH  12  15
HETATM   15  C   UNL     1      27.125  44.759  51.341  1.00  0.00     0.087 A 
HETATM   16  C   UNL     1      27.118  43.720  52.458  1.00  0.00     0.032 A 
HETATM   17  C   UNL     1      27.401  43.313  51.037  1.00  0.00     0.025 A 
BRANCH  16  18
HETATM   18  C   UNL     1      28.180  43.812  53.522  1.00  0.00    -0.053 A 
HETATM   19  C   UNL     1      29.227  42.873  53.552  1.00  0.00     0.009 A 
HETATM   20  C   UNL     1      30.255  42.955  54.495  1.00  0.00     0.024 A 
HETATM   21  C   UNL     1      30.250  43.985  55.429  1.00  0.00     0.034 A 
HETATM   22  C   UNL     1      29.226  44.929  55.424  1.00  0.00     0.024 A 
HETATM   23 CL   UNL     1      31.515  44.099  56.588  1.00  0.00    -0.084 Cl
HETATM   24  C   UNL     1      28.203  44.844  54.474  1.00  0.00     0.009 A 
ENDBRANCH  16  18
ENDBRANCH  12  15
ENDBRANCH   1  11
BRANCH   8  25
HETATM   25  C   UNL     1      22.331  50.473  49.769  1.00  0.00     0.270 C 
HETATM   26  N   UNL     1      21.515  50.933  50.767  1.00  0.00    -0.365 N 
HETATM   27  H   UNL     1      20.690  50.395  51.008  1.00  0.00     0.159 HD
HETATM   28  H   UNL     1      21.732  51.804  51.227  1.00  0.00     0.159 HD
HETATM   29  O   UNL     1      23.332  51.096  49.434  1.00  0.00    -0.266 OA
ENDBRANCH   8  25
TORSDOF 4
ENDMDL
MODEL 8
REMARK VINA RESULT:      -8.8      5.520     10.272
REMARK  4 active torsions:
REMARK  status: ('A' for Active; 'I' for Inactive)
REMARK    1  A    between atoms: C_2  and  C_3 
REMARK    2  A    between atoms: C_4  and  C_5 
REMARK       I    between atoms: C_5  and  N_6 
REMARK    3  A    between atoms: N_6  and  C_7 
REMARK    4  A    between atoms: C_14  and  C_15 
REMARK       I    between atoms: C_15  and  N_16 
ROOT
HETATM    1  C   UNL     1      23.068  49.230  49.150  1.00  0.00     0.035 A 
HETATM    2  C   UNL     1      23.917  48.207  49.592  1.00  0.00     0.046 A 
HETATM    3  C   UNL     1      25.296  48.267  49.300  1.00  0.00     0.030 A 
HETATM    4  C   UNL     1      25.782  49.352  48.580  1.00  0.00     0.063 A 
HETATM    5  N   UNL     1      27.128  49.139  48.471  1.00  0.00    -0.277 N 
HETATM    6  H   UNL     1      27.807  49.734  48.011  1.00  0.00     0.189 HD
HETATM    7  N   UNL     1      27.562  48.003  49.042  1.00  0.00    -0.168 NA
HETATM    8  C   UNL     1      26.439  47.450  49.557  1.00  0.00     0.156 A 
HETATM    9  C   UNL     1      24.966  50.385  48.119  1.00  0.00     0.034 A 
HETATM   10  C   UNL     1      23.598  50.297  48.413  1.00  0.00     0.032 A 
ENDROOT
BRANCH   1  11
HETATM   11  N   UNL     1      21.680  49.264  49.412  1.00  0.00    -0.327 N 
HETATM   12  C   UNL     1      20.740  48.338  49.019  1.00  0.00     0.227 C 
HETATM   13  O   UNL     1      20.916  47.347  48.328  1.00  0.00    -0.273 OA
HETATM   14  H   UNL     1      21.354  50.023  49.991  1.00  0.00     0.169 HD
BRANCH  12  15
HETATM   15  C   UNL     1      19.361  48.580  49.525  1.00  0.00     0.087 A 
HETATM   16  C   UNL     1      18.381  49.174  48.517  1.00  0.00     0.032 A 
HETATM   17  C   UNL     1      18.103  47.841  49.158  1.00  0.00     0.025 A 
BRANCH  16  18
HETATM   18  C   UNL     1      17.657  50.440  48.889  1.00  0.00    -0.053 A 
HETATM   19  C   UNL     1      16.272  50.549  48.668  1.00  0.00     0.009 A 
HETATM   20  C   UNL     1      15.559  51.690  49.044  1.00  0.00     0.024 A 
HETATM   21  C   UNL     1      16.226  52.748  49.650  1.00  0.00     0.034 A 
HETATM   22  C   UNL     1      17.598  52.670  49.881  1.00  0.00     0.024 A 
HETATM   23 CL   UNL     1      15.356  54.153  50.123  1.00  0.00    -0.084 Cl
HETATM   24  C   UNL     1      18.304  51.522  49.507  1.00  0.00     0.009 A 
ENDBRANCH  16  18
ENDBRANCH  12  15
ENDBRANCH   1  11
BRANCH   8  25
HETATM   25  C   UNL     1      26.481  46.169  50.275  1.00  0.00     0.270 C 
HETATM   26  N   UNL     1      26.144  46.258  51.598  1.00  0.00    -0.365 N 
HETATM   27  H   UNL     1      25.907  47.167  51.980  1.00  0.00     0.159 HD
HETATM   28  H   UNL     1      26.158  45.430  52.173  1.00  0.00     0.159 HD
HETATM   29  O   UNL     1      26.788  45.094  49.772  1.00  0.00    -0.266 OA
ENDBRANCH   8  25
TORSDOF 4
ENDMDL
MODEL 9
REMARK VINA RESULT:      -8.7      5.366      9.577
REMARK  4 active torsions:
REMARK  status: ('A' for Active; 'I' for Inactive)
REMARK    1  A    between atoms: C_2  and  C_3 
REMARK    2  A    between atoms: C_4  and  C_5 
REMARK       I    between atoms: C_5  and  N_6 
REMARK    3  A    between atoms: N_6  and  C_7 
REMARK    4  A    between atoms: C_14  and  C_15 
REMARK       I    between atoms: C_15  and  N_16 
ROOT
HETATM    1  C   UNL     1      23.874  46.292  49.891  1.00  0.00     0.035 A 
HETATM    2  C   UNL     1      23.682  44.990  49.411  1.00  0.00     0.046 A 
HETATM    3  C   UNL     1      24.330  43.907  50.043  1.00  0.00     0.030 A 
HETATM    4  C   UNL     1      25.145  44.162  51.139  1.00  0.00     0.063 A 
HETATM    5  N   UNL     1      25.611  42.939  51.534  1.00  0.00    -0.277 N 
HETATM    6  H   UNL     1      26.230  42.741  52.312  1.00  0.00     0.189 HD
HETATM    7  N   UNL     1      25.183  41.910  50.784  1.00  0.00    -0.168 NA
HETATM    8  C   UNL     1      24.392  42.493  49.855  1.00  0.00     0.156 A 
HETATM    9  C   UNL     1      25.365  45.445  51.641  1.00  0.00     0.034 A 
HETATM   10  C   UNL     1      24.718  46.504  50.990  1.00  0.00     0.032 A 
ENDROOT
BRANCH   1  11
HETATM   11  N   UNL     1      23.251  47.432  49.336  1.00  0.00    -0.327 N 
HETATM   12  C   UNL     1      23.840  48.647  49.066  1.00  0.00     0.227 C 
HETATM   13  O   UNL     1      24.988  48.987  49.303  1.00  0.00    -0.273 OA
HETATM   14  H   UNL     1      22.286  47.325  49.065  1.00  0.00     0.169 HD
BRANCH  12  15
HETATM   15  C   UNL     1      22.961  49.639  48.386  1.00  0.00     0.087 A 
HETATM   16  C   UNL     1      22.409  50.751  49.273  1.00  0.00     0.032 A 
HETATM   17  C   UNL     1      23.266  51.080  48.080  1.00  0.00     0.025 A 
BRANCH  16  18
HETATM   18  C   UNL     1      20.918  50.960  49.307  1.00  0.00    -0.053 A 
HETATM   19  C   UNL     1      20.126  50.227  50.210  1.00  0.00     0.009 A 
HETATM   20  C   UNL     1      18.747  50.428  50.302  1.00  0.00     0.024 A 
HETATM   21  C   UNL     1      18.135  51.372  49.486  1.00  0.00     0.034 A 
HETATM   22  C   UNL     1      18.892  52.112  48.581  1.00  0.00     0.024 A 
HETATM   23 CL   UNL     1      16.439  51.632  49.598  1.00  0.00    -0.084 Cl
HETATM   24  C   UNL     1      20.273  51.909  48.499  1.00  0.00     0.009 A 
ENDBRANCH  16  18
ENDBRANCH  12  15
ENDBRANCH   1  11
BRANCH   8  25
HETATM   25  C   UNL     1      23.720  41.697  48.818  1.00  0.00     0.270 C 
HETATM   26  N   UNL     1      24.574  41.105  47.928  1.00  0.00    -0.365 N 
HETATM   27  H   UNL     1      25.570  41.256  48.035  1.00  0.00     0.159 HD
HETATM   28  H   UNL     1      24.200  40.549  47.173  1.00  0.00     0.159 HD
HETATM   29  O   UNL     1      22.507  41.554  48.722  1.00  0.00    -0.266 OA
ENDBRANCH   8  25
TORSDOF 4
ENDMDL
MODEL 10
REMARK VINA RESULT:      -8.6      5.569      7.613
REMARK  4 active torsions:
REMARK  status: ('A' for Active; 'I' for Inactive)
REMARK    1  A    between atoms: C_2  and  C_3 
REMARK    2  A    between atoms: C_4  and  C_5 
REMARK       I    between atoms: C_5  and  N_6 
REMARK    3  A    between atoms: N_6  and  C_7 
REMARK    4  A    between atoms: C_14  and  C_15 
REMARK       I    between atoms: C_15  and  N_16 
ROOT
HETATM    1  C   UNL     1      28.565  40.375  50.936  1.00  0.00     0.035 A 
HETATM    2  C   UNL     1      28.151  40.481  49.601  1.00  0.00     0.046 A 
HETATM    3  C   UNL     1      28.409  39.423  48.703  1.00  0.00     0.030 A 
HETATM    4  C   UNL     1      29.066  38.292  49.171  1.00  0.00     0.063 A 
HETATM    5  N   UNL     1      29.155  37.455  48.093  1.00  0.00    -0.277 N 
HETATM    6  H   UNL     1      29.571  36.531  48.068  1.00  0.00     0.189 HD
HETATM    7  N   UNL     1      28.627  37.946  46.960  1.00  0.00    -0.168 NA
HETATM    8  C   UNL     1      28.163  39.165  47.320  1.00  0.00     0.156 A 
HETATM    9  C   UNL     1      29.498  38.155  50.491  1.00  0.00     0.034 A 
HETATM   10  C   UNL     1      29.239  39.223  51.361  1.00  0.00     0.032 A 
ENDROOT
BRANCH   1  11
HETATM   11  N   UNL     1      28.332  41.373  51.909  1.00  0.00    -0.327 N 
HETATM   12  C   UNL     1      27.241  42.209  51.993  1.00  0.00     0.227 C 
HETATM   13  O   UNL     1      26.300  42.285  51.219  1.00  0.00    -0.273 OA
HETATM   14  H   UNL     1      29.016  41.444  52.646  1.00  0.00     0.169 HD
BRANCH  12  15
HETATM   15  C   UNL     1      27.216  43.099  53.187  1.00  0.00     0.087 A 
HETATM   16  C   UNL     1      28.280  44.192  53.219  1.00  0.00     0.032 A 
HETATM   17  C   UNL     1      26.818  44.548  53.244  1.00  0.00     0.025 A 
BRANCH  16  18
HETATM   18  C   UNL     1      29.176  44.277  54.426  1.00  0.00    -0.053 A 
HETATM   19  C   UNL     1      29.049  45.356  55.320  1.00  0.00     0.009 A 
HETATM   20  C   UNL     1      29.830  45.443  56.476  1.00  0.00     0.024 A 
HETATM   21  C   UNL     1      30.758  44.446  56.755  1.00  0.00     0.034 A 
HETATM   22  C   UNL     1      30.907  43.366  55.888  1.00  0.00     0.024 A 
HETATM   23 CL   UNL     1      31.718  44.541  58.178  1.00  0.00    -0.084 Cl
HETATM   24  C   UNL     1      30.117  43.282  54.736  1.00  0.00     0.009 A 
ENDBRANCH  16  18
ENDBRANCH  12  15
ENDBRANCH   1  11
BRANCH   8  25
HETATM   25  C   UNL     1      27.505  40.047  46.347  1.00  0.00     0.270 C 
HETATM   26  N   UNL     1      28.177  40.172  45.162  1.00  0.00    -0.365 N 
HETATM   27  H   UNL     1      29.052  39.674  45.044  1.00  0.00     0.159 HD
HETATM   28  H   UNL     1      27.805  40.769  44.439  1.00  0.00     0.159 HD
HETATM   29  O   UNL     1      26.450  40.640  46.542  1.00  0.00    -0.266 OA
ENDBRANCH   8  25
TORSDOF 4
ENDMDL
