MODEL 1
REMARK VINA RESULT:      -9.9      0.000      0.000
REMARK  2 active torsions:
REMARK  status: ('A' for Active; 'I' for Inactive)
REMARK       I    between atoms: N_4  and  C_5 
REMARK       I    between atoms: C_5  and  N_6 
REMARK    1  A    between atoms: N_6  and  C_7 
REMARK    2  A    between atoms: C_20  and  C_21 
ROOT
HETATM    1  C   UNL     1      28.288  39.661  49.120  1.00  0.00     0.011 C 
HETATM    2  C   UNL     1      28.211  40.813  50.106  1.00  0.00     0.002 C 
HETATM    3  C   UNL     1      27.260  41.922  49.668  1.00  0.00     0.132 C 
HETATM    4  N   UNL     1      26.830  42.556  50.908  1.00  0.00    -0.325 N 
HETATM    5  C   UNL     1      26.138  43.741  51.049  1.00  0.00     0.323 C 
HETATM    6  N   UNL     1      25.778  44.327  49.855  1.00  0.00    -0.309 N 
HETATM    7  O   UNL     1      25.888  44.218  52.153  1.00  0.00    -0.247 OA
HETATM    8  C   UNL     1      27.198  41.753  52.079  1.00  0.00     0.125 C 
HETATM    9  C   UNL     1      27.639  40.411  51.469  1.00  0.00     0.036 C 
HETATM   10  H   UNL     1      25.577  43.688  49.103  1.00  0.00     0.170 HD
ENDROOT
BRANCH   6  11
HETATM   11  C   UNL     1      25.383  45.667  49.679  1.00  0.00     0.038 A 
HETATM   12  C   UNL     1      24.044  46.046  49.544  1.00  0.00     0.062 A 
HETATM   13  C   UNL     1      23.705  47.397  49.438  1.00  0.00     0.070 A 
HETATM   14  C   UNL     1      24.696  48.377  49.453  1.00  0.00     0.096 A 
HETATM   15  N   UNL     1      22.360  47.758  49.370  1.00  0.00    -0.323 N 
HETATM   16  O   UNL     1      24.442  49.718  49.384  1.00  0.00    -0.335 OA
HETATM   17  C   UNL     1      26.031  48.005  49.594  1.00  0.00     0.041 A 
HETATM   18  C   UNL     1      23.108  50.070  49.025  1.00  0.00     0.217 C 
HETATM   19  C   UNL     1      21.972  49.063  49.262  1.00  0.00     0.251 C 
HETATM   20  C   UNL     1      23.103  50.475  47.553  1.00  0.00     0.050 C 
HETATM   21  O   UNL     1      20.785  49.381  49.283  1.00  0.00    -0.270 OA
HETATM   22  C   UNL     1      26.374  46.655  49.717  1.00  0.00     0.032 A 
HETATM   23  H   UNL     1      21.630  47.063  49.450  1.00  0.00     0.169 HD
ENDBRANCH   6  11
BRANCH   8  24
HETATM   24  C   UNL     1      28.285  42.356  52.948  1.00  0.00     0.003 A 
HETATM   25  C   UNL     1      27.930  42.863  54.204  1.00  0.00     0.124 A 
HETATM   26  F   UNL     1      26.656  42.786  54.616  1.00  0.00    -0.205 F 
HETATM   27  C   UNL     1      28.869  43.443  55.053  1.00  0.00     0.043 A 
HETATM   28  C   UNL     1      30.201  43.522  54.655  1.00  0.00     0.003 A 
HETATM   29  C   UNL     1      30.582  43.014  53.414  1.00  0.00     0.001 A 
HETATM   30  C   UNL     1      29.634  42.432  52.567  1.00  0.00     0.012 A 
ENDBRANCH   8  24
TORSDOF 2
ENDMDL
MODEL 2
REMARK VINA RESULT:      -9.0      3.875      8.553
REMARK  2 active torsions:
REMARK  status: ('A' for Active; 'I' for Inactive)
REMARK       I    between atoms: N_4  and  C_5 
REMARK       I    between atoms: C_5  and  N_6 
REMARK    1  A    between atoms: N_6  and  C_7 
REMARK    2  A    between atoms: C_20  and  C_21 
ROOT
HETATM    1  C   UNL     1      30.624  43.230  54.749  1.00  0.00     0.011 C 
HETATM    2  C   UNL     1      29.529  43.273  53.698  1.00  0.00     0.002 C 
HETATM    3  C   UNL     1      29.452  42.006  52.853  1.00  0.00     0.132 C 
HETATM    4  N   UNL     1      28.067  41.942  52.404  1.00  0.00    -0.325 N 
HETATM    5  C   UNL     1      27.534  41.107  51.443  1.00  0.00     0.323 C 
HETATM    6  N   UNL     1      28.435  40.206  50.919  1.00  0.00    -0.309 N 
HETATM    7  O   UNL     1      26.359  41.189  51.093  1.00  0.00    -0.247 OA
HETATM    8  C   UNL     1      27.219  42.890  53.134  1.00  0.00     0.125 C 
HETATM    9  C   UNL     1      28.119  43.358  54.290  1.00  0.00     0.036 C 
HETATM   10  H   UNL     1      29.147  39.886  51.556  1.00  0.00     0.170 HD
ENDROOT
BRANCH   6  11
HETATM   11  C   UNL     1      28.280  39.486  49.718  1.00  0.00     0.038 A 
HETATM   12  C   UNL     1      27.818  38.166  49.686  1.00  0.00     0.062 A 
HETATM   13  C   UNL     1      27.621  37.523  48.463  1.00  0.00     0.070 A 
HETATM   14  C   UNL     1      27.892  38.182  47.266  1.00  0.00     0.096 A 
HETATM   15  N   UNL     1      27.098  36.230  48.450  1.00  0.00    -0.323 N 
HETATM   16  O   UNL     1      27.697  37.631  46.030  1.00  0.00    -0.335 OA
HETATM   17  C   UNL     1      28.346  39.499  47.292  1.00  0.00     0.041 A 
HETATM   18  C   UNL     1      27.443  36.228  46.021  1.00  0.00     0.217 C 
HETATM   19  C   UNL     1      26.888  35.553  47.283  1.00  0.00     0.251 C 
HETATM   20  C   UNL     1      28.730  35.516  45.611  1.00  0.00     0.050 C 
HETATM   21  O   UNL     1      26.353  34.446  47.274  1.00  0.00    -0.270 OA
HETATM   22  C   UNL     1      28.530  40.153  48.514  1.00  0.00     0.032 A 
HETATM   23  H   UNL     1      26.813  35.776  49.307  1.00  0.00     0.169 HD
ENDBRANCH   6  11
BRANCH   8  24
HETATM   24  C   UNL     1      26.715  44.059  52.310  1.00  0.00     0.003 A 
HETATM   25  C   UNL     1      25.597  44.767  52.769  1.00  0.00     0.124 A 
HETATM   26  F   UNL     1      25.016  44.414  53.925  1.00  0.00    -0.205 F 
HETATM   27  C   UNL     1      25.069  45.842  52.061  1.00  0.00     0.043 A 
HETATM   28  C   UNL     1      25.663  46.239  50.865  1.00  0.00     0.003 A 
HETATM   29  C   UNL     1      26.784  45.557  50.392  1.00  0.00     0.001 A 
HETATM   30  C   UNL     1      27.309  44.478  51.109  1.00  0.00     0.012 A 
ENDBRANCH   8  24
TORSDOF 2
ENDMDL
MODEL 3
REMARK VINA RESULT:      -8.9      3.684      8.512
REMARK  2 active torsions:
REMARK  status: ('A' for Active; 'I' for Inactive)
REMARK       I    between atoms: N_4  and  C_5 
REMARK       I    between atoms: C_5  and  N_6 
REMARK    1  A    between atoms: N_6  and  C_7 
REMARK    2  A    between atoms: C_20  and  C_21 
ROOT
HETATM    1  C   UNL     1      19.841  44.727  46.801  1.00  0.00     0.011 C 
HETATM    2  C   UNL     1      20.484  45.842  47.607  1.00  0.00     0.002 C 
HETATM    3  C   UNL     1      21.682  45.380  48.430  1.00  0.00     0.132 C 
HETATM    4  N   UNL     1      22.506  46.572  48.589  1.00  0.00    -0.325 N 
HETATM    5  C   UNL     1      23.588  46.737  49.429  1.00  0.00     0.323 C 
HETATM    6  N   UNL     1      23.933  45.604  50.132  1.00  0.00    -0.309 N 
HETATM    7  O   UNL     1      24.168  47.815  49.533  1.00  0.00    -0.247 OA
HETATM    8  C   UNL     1      22.072  47.650  47.694  1.00  0.00     0.125 C 
HETATM    9  C   UNL     1      21.089  46.950  46.741  1.00  0.00     0.036 C 
HETATM   10  H   UNL     1      23.768  44.732  49.655  1.00  0.00     0.170 HD
ENDROOT
BRANCH   6  11
HETATM   11  C   UNL     1      24.745  45.561  51.282  1.00  0.00     0.038 A 
HETATM   12  C   UNL     1      24.999  46.689  52.068  1.00  0.00     0.062 A 
HETATM   13  C   UNL     1      25.757  46.574  53.235  1.00  0.00     0.070 A 
HETATM   14  C   UNL     1      26.279  45.341  53.620  1.00  0.00     0.096 A 
HETATM   15  N   UNL     1      25.944  47.698  54.040  1.00  0.00    -0.323 N 
HETATM   16  O   UNL     1      27.005  45.142  54.761  1.00  0.00    -0.335 OA
HETATM   17  C   UNL     1      26.024  44.212  52.843  1.00  0.00     0.041 A 
HETATM   18  C   UNL     1      27.437  46.328  55.423  1.00  0.00     0.217 C 
HETATM   19  C   UNL     1      26.679  47.643  55.189  1.00  0.00     0.251 C 
HETATM   20  C   UNL     1      28.911  46.548  55.091  1.00  0.00     0.050 C 
HETATM   21  O   UNL     1      26.772  48.616  55.934  1.00  0.00    -0.270 OA
HETATM   22  C   UNL     1      25.252  44.319  51.683  1.00  0.00     0.032 A 
HETATM   23  H   UNL     1      25.494  48.576  53.818  1.00  0.00     0.169 HD
ENDBRANCH   6  11
BRANCH   8  24
HETATM   24  C   UNL     1      21.430  48.834  48.390  1.00  0.00     0.003 A 
HETATM   25  C   UNL     1      21.880  50.121  48.069  1.00  0.00     0.124 A 
HETATM   26  F   UNL     1      22.843  50.278  47.148  1.00  0.00    -0.205 F 
HETATM   27  C   UNL     1      21.348  51.256  48.674  1.00  0.00     0.043 A 
HETATM   28  C   UNL     1      20.337  51.122  49.622  1.00  0.00     0.003 A 
HETATM   29  C   UNL     1      19.863  49.852  49.951  1.00  0.00     0.001 A 
HETATM   30  C   UNL     1      20.402  48.717  49.338  1.00  0.00     0.012 A 
ENDBRANCH   8  24
TORSDOF 2
ENDMDL
MODEL 4
REMARK VINA RESULT:      -8.8      3.888      7.873
REMARK  2 active torsions:
REMARK  status: ('A' for Active; 'I' for Inactive)
REMARK       I    between atoms: N_4  and  C_5 
REMARK       I    between atoms: C_5  and  N_6 
REMARK    1  A    between atoms: N_6  and  C_7 
REMARK    2  A    between atoms: C_20  and  C_21 
ROOT
HETATM    1  C   UNL     1      30.608  43.375  54.914  1.00  0.00     0.011 C 
HETATM    2  C   UNL     1      29.527  43.400  53.848  1.00  0.00     0.002 C 
HETATM    3  C   UNL     1      29.532  42.164  52.953  1.00  0.00     0.132 C 
HETATM    4  N   UNL     1      28.159  42.043  52.479  1.00  0.00    -0.325 N 
HETATM    5  C   UNL     1      27.687  41.219  51.478  1.00  0.00     0.323 C 
HETATM    6  N   UNL     1      28.643  40.390  50.934  1.00  0.00    -0.309 N 
HETATM    7  O   UNL     1      26.514  41.251  51.112  1.00  0.00    -0.247 OA
HETATM    8  C   UNL     1      27.250  42.914  53.232  1.00  0.00     0.125 C 
HETATM    9  C   UNL     1      28.107  43.384  54.420  1.00  0.00     0.036 C 
HETATM   10  H   UNL     1      29.362  40.084  51.570  1.00  0.00     0.170 HD
ENDROOT
BRANCH   6  11
HETATM   11  C   UNL     1      28.544  39.710  49.705  1.00  0.00     0.038 A 
HETATM   12  C   UNL     1      28.263  40.367  48.502  1.00  0.00     0.062 A 
HETATM   13  C   UNL     1      28.243  39.653  47.302  1.00  0.00     0.070 A 
HETATM   14  C   UNL     1      28.490  38.281  47.292  1.00  0.00     0.096 A 
HETATM   15  N   UNL     1      28.025  40.336  46.106  1.00  0.00    -0.323 N 
HETATM   16  O   UNL     1      28.517  37.520  46.158  1.00  0.00    -0.335 OA
HETATM   17  C   UNL     1      28.777  37.624  48.487  1.00  0.00     0.041 A 
HETATM   18  C   UNL     1      28.013  38.154  44.984  1.00  0.00     0.217 C 
HETATM   19  C   UNL     1      27.992  39.688  44.905  1.00  0.00     0.251 C 
HETATM   20  C   UNL     1      26.602  37.632  44.731  1.00  0.00     0.050 C 
HETATM   21  O   UNL     1      27.880  40.306  43.848  1.00  0.00    -0.270 OA
HETATM   22  C   UNL     1      28.814  38.338  49.688  1.00  0.00     0.032 A 
HETATM   23  H   UNL     1      27.936  41.343  46.093  1.00  0.00     0.169 HD
ENDBRANCH   6  11
BRANCH   8  24
HETATM   24  C   UNL     1      26.694  44.086  52.445  1.00  0.00     0.003 A 
HETATM   25  C   UNL     1      25.550  44.732  52.930  1.00  0.00     0.124 A 
HETATM   26  F   UNL     1      24.990  44.320  54.076  1.00  0.00    -0.205 F 
HETATM   27  C   UNL     1      24.975  45.806  52.256  1.00  0.00     0.043 A 
HETATM   28  C   UNL     1      25.546  46.263  51.071  1.00  0.00     0.003 A 
HETATM   29  C   UNL     1      26.692  45.643  50.574  1.00  0.00     0.001 A 
HETATM   30  C   UNL     1      27.265  44.565  51.256  1.00  0.00     0.012 A 
ENDBRANCH   8  24
TORSDOF 2
ENDMDL
MODEL 5
REMARK VINA RESULT:      -8.8      3.463      8.788
REMARK  2 active torsions:
REMARK  status: ('A' for Active; 'I' for Inactive)
REMARK       I    between atoms: N_4  and  C_5 
REMARK       I    between atoms: C_5  and  N_6 
REMARK    1  A    between atoms: N_6  and  C_7 
REMARK    2  A    between atoms: C_20  and  C_21 
ROOT
HETATM    1  C   UNL     1      18.600  45.071  46.790  1.00  0.00     0.011 C 
HETATM    2  C   UNL     1      19.478  46.052  47.547  1.00  0.00     0.002 C 
HETATM    3  C   UNL     1      20.813  45.457  47.985  1.00  0.00     0.132 C 
HETATM    4  N   UNL     1      21.714  46.598  48.085  1.00  0.00    -0.325 N 
HETATM    5  C   UNL     1      22.974  46.625  48.646  1.00  0.00     0.323 C 
HETATM    6  N   UNL     1      23.416  45.400  49.095  1.00  0.00    -0.309 N 
HETATM    7  O   UNL     1      23.620  47.665  48.738  1.00  0.00    -0.247 OA
HETATM    8  C   UNL     1      21.137  47.796  47.466  1.00  0.00     0.125 C 
HETATM    9  C   UNL     1      19.916  47.253  46.704  1.00  0.00     0.036 C 
HETATM   10  H   UNL     1      23.093  44.604  48.568  1.00  0.00     0.170 HD
ENDROOT
BRANCH   6  11
HETATM   11  C   UNL     1      24.478  45.183  49.995  1.00  0.00     0.038 A 
HETATM   12  C   UNL     1      24.272  44.791  51.321  1.00  0.00     0.062 A 
HETATM   13  C   UNL     1      25.364  44.527  52.151  1.00  0.00     0.070 A 
HETATM   14  C   UNL     1      26.665  44.662  51.671  1.00  0.00     0.096 A 
HETATM   15  N   UNL     1      25.138  44.073  53.451  1.00  0.00    -0.323 N 
HETATM   16  O   UNL     1      27.782  44.393  52.411  1.00  0.00    -0.335 OA
HETATM   17  C   UNL     1      26.875  45.046  50.348  1.00  0.00     0.041 A 
HETATM   18  C   UNL     1      27.561  44.214  53.808  1.00  0.00     0.217 C 
HETATM   19  C   UNL     1      26.168  43.803  54.305  1.00  0.00     0.251 C 
HETATM   20  C   UNL     1      27.976  45.498  54.522  1.00  0.00     0.050 C 
HETATM   21  O   UNL     1      25.964  43.328  55.421  1.00  0.00    -0.270 OA
HETATM   22  C   UNL     1      25.785  45.296  49.509  1.00  0.00     0.032 A 
HETATM   23  H   UNL     1      24.200  43.885  53.779  1.00  0.00     0.169 HD
ENDBRANCH   6  11
BRANCH   8  24
HETATM   24  C   UNL     1      20.747  48.890  48.441  1.00  0.00     0.003 A 
HETATM   25  C   UNL     1      21.293  50.168  48.264  1.00  0.00     0.124 A 
HETATM   26  F   UNL     1      22.122  50.399  47.235  1.00  0.00    -0.205 F 
HETATM   27  C   UNL     1      20.992  51.219  49.125  1.00  0.00     0.043 A 
HETATM   28  C   UNL     1      20.122  51.009  50.192  1.00  0.00     0.003 A 
HETATM   29  C   UNL     1      19.556  49.749  50.383  1.00  0.00     0.001 A 
HETATM   30  C   UNL     1      19.862  48.698  49.514  1.00  0.00     0.012 A 
ENDBRANCH   8  24
TORSDOF 2
ENDMDL
MODEL 6
REMARK VINA RESULT:      -8.5      3.246      8.425
REMARK  2 active torsions:
REMARK  status: ('A' for Active; 'I' for Inactive)
REMARK       I    between atoms: N_4  and  C_5 
REMARK       I    between atoms: C_5  and  N_6 
REMARK    1  A    between atoms: N_6  and  C_7 
REMARK    2  A    between atoms: C_20  and  C_21 
ROOT
HETATM    1  C   UNL     1      27.131  47.407  55.317  1.00  0.00     0.011 C 
HETATM    2  C   UNL     1      26.884  47.111  53.848  1.00  0.00     0.002 C 
HETATM    3  C   UNL     1      26.789  45.620  53.539  1.00  0.00     0.132 C 
HETATM    4  N   UNL     1      25.961  45.540  52.343  1.00  0.00    -0.325 N 
HETATM    5  C   UNL     1      25.752  44.438  51.540  1.00  0.00     0.323 C 
HETATM    6  N   UNL     1      26.362  43.289  51.992  1.00  0.00    -0.309 N 
HETATM    7  O   UNL     1      25.085  44.504  50.510  1.00  0.00    -0.247 OA
HETATM    8  C   UNL     1      25.298  46.818  52.060  1.00  0.00     0.125 C 
HETATM    9  C   UNL     1      25.539  47.637  53.339  1.00  0.00     0.036 C 
HETATM   10  H   UNL     1      26.435  43.203  52.993  1.00  0.00     0.170 HD
ENDROOT
BRANCH   6  11
HETATM   11  C   UNL     1      26.609  42.130  51.230  1.00  0.00     0.038 A 
HETATM   12  C   UNL     1      27.784  41.383  51.355  1.00  0.00     0.062 A 
HETATM   13  C   UNL     1      27.947  40.205  50.623  1.00  0.00     0.070 A 
HETATM   14  C   UNL     1      26.949  39.770  49.753  1.00  0.00     0.096 A 
HETATM   15  N   UNL     1      29.097  39.439  50.811  1.00  0.00    -0.323 N 
HETATM   16  O   UNL     1      27.021  38.615  49.026  1.00  0.00    -0.335 OA
HETATM   17  C   UNL     1      25.773  40.507  49.630  1.00  0.00     0.041 A 
HETATM   18  C   UNL     1      28.303  37.992  48.996  1.00  0.00     0.217 C 
HETATM   19  C   UNL     1      29.309  38.281  50.119  1.00  0.00     0.251 C 
HETATM   20  C   UNL     1      28.957  38.316  47.656  1.00  0.00     0.050 C 
HETATM   21  O   UNL     1      30.286  37.571  50.347  1.00  0.00    -0.270 OA
HETATM   22  C   UNL     1      25.599  41.679  50.373  1.00  0.00     0.032 A 
HETATM   23  H   UNL     1      29.785  39.698  51.506  1.00  0.00     0.169 HD
ENDBRANCH   6  11
BRANCH   8  24
HETATM   24  C   UNL     1      25.809  47.540  50.828  1.00  0.00     0.003 A 
HETATM   25  C   UNL     1      24.875  48.116  49.957  1.00  0.00     0.124 A 
HETATM   26  F   UNL     1      23.566  48.035  50.238  1.00  0.00    -0.205 F 
HETATM   27  C   UNL     1      25.267  48.784  48.800  1.00  0.00     0.043 A 
HETATM   28  C   UNL     1      26.621  48.894  48.492  1.00  0.00     0.003 A 
HETATM   29  C   UNL     1      27.571  48.340  49.350  1.00  0.00     0.001 A 
HETATM   30  C   UNL     1      27.170  47.671  50.510  1.00  0.00     0.012 A 
ENDBRANCH   8  24
TORSDOF 2
ENDMDL
MODEL 7
REMARK VINA RESULT:      -8.4      3.908      5.667
REMARK  2 active torsions:
REMARK  status: ('A' for Active; 'I' for Inactive)
REMARK       I    between atoms: N_4  and  C_5 
REMARK       I    between atoms: C_5  and  N_6 
REMARK    1  A    between atoms: N_6  and  C_7 
REMARK    2  A    between atoms: C_20  and  C_21 
ROOT
HETATM    1  C   UNL     1      28.072  40.466  45.411  1.00  0.00     0.011 C 
HETATM    2  C   UNL     1      28.094  40.111  46.888  1.00  0.00     0.002 C 
HETATM    3  C   UNL     1      27.708  41.275  47.795  1.00  0.00     0.132 C 
HETATM    4  N   UNL     1      27.174  40.648  48.998  1.00  0.00    -0.325 N 
HETATM    5  C   UNL     1      26.886  41.255  50.203  1.00  0.00     0.323 C 
HETATM    6  N   UNL     1      27.078  42.618  50.206  1.00  0.00    -0.309 N 
HETATM    7  O   UNL     1      26.503  40.611  51.177  1.00  0.00    -0.247 OA
HETATM    8  C   UNL     1      26.926  39.217  48.794  1.00  0.00     0.125 C 
HETATM    9  C   UNL     1      27.069  39.041  47.273  1.00  0.00     0.036 C 
HETATM   10  H   UNL     1      26.902  43.083  49.329  1.00  0.00     0.170 HD
ENDROOT
BRANCH   6  11
HETATM   11  C   UNL     1      27.197  43.434  51.348  1.00  0.00     0.038 A 
HETATM   12  C   UNL     1      26.498  44.636  51.491  1.00  0.00     0.062 A 
HETATM   13  C   UNL     1      26.602  45.372  52.673  1.00  0.00     0.070 A 
HETATM   14  C   UNL     1      27.411  44.922  53.716  1.00  0.00     0.096 A 
HETATM   15  N   UNL     1      25.846  46.534  52.822  1.00  0.00    -0.323 N 
HETATM   16  O   UNL     1      27.541  45.569  54.913  1.00  0.00    -0.335 OA
HETATM   17  C   UNL     1      28.104  43.721  53.581  1.00  0.00     0.041 A 
HETATM   18  C   UNL     1      27.005  46.889  54.955  1.00  0.00     0.217 C 
HETATM   19  C   UNL     1      25.912  47.293  53.955  1.00  0.00     0.251 C 
HETATM   20  C   UNL     1      28.164  47.876  54.836  1.00  0.00     0.050 C 
HETATM   21  O   UNL     1      25.184  48.271  54.112  1.00  0.00    -0.270 OA
HETATM   22  C   UNL     1      27.990  42.974  52.405  1.00  0.00     0.032 A 
HETATM   23  H   UNL     1      25.188  46.820  52.109  1.00  0.00     0.169 HD
ENDBRANCH   6  11
BRANCH   8  24
HETATM   24  C   UNL     1      27.860  38.294  49.553  1.00  0.00     0.003 A 
HETATM   25  C   UNL     1      27.404  37.014  49.892  1.00  0.00     0.124 A 
HETATM   26  F   UNL     1      26.174  36.628  49.523  1.00  0.00    -0.205 F 
HETATM   27  C   UNL     1      28.199  36.116  50.599  1.00  0.00     0.043 A 
HETATM   28  C   UNL     1      29.486  36.487  50.981  1.00  0.00     0.003 A 
HETATM   29  C   UNL     1      29.968  37.753  50.646  1.00  0.00     0.001 A 
HETATM   30  C   UNL     1      29.164  38.649  49.935  1.00  0.00     0.012 A 
ENDBRANCH   8  24
TORSDOF 2
ENDMDL
MODEL 8
REMARK VINA RESULT:      -8.3      1.607      2.273
REMARK  2 active torsions:
REMARK  status: ('A' for Active; 'I' for Inactive)
REMARK       I    between atoms: N_4  and  C_5 
REMARK       I    between atoms: C_5  and  N_6 
REMARK    1  A    between atoms: N_6  and  C_7 
REMARK    2  A    between atoms: C_20  and  C_21 
ROOT
HETATM    1  C   UNL     1      28.786  40.116  48.403  1.00  0.00     0.011 C 
HETATM    2  C   UNL     1      28.198  41.126  49.373  1.00  0.00     0.002 C 
HETATM    3  C   UNL     1      26.965  41.840  48.829  1.00  0.00     0.132 C 
HETATM    4  N   UNL     1      26.209  42.230  50.012  1.00  0.00    -0.325 N 
HETATM    5  C   UNL     1      25.128  43.085  50.073  1.00  0.00     0.323 C 
HETATM    6  N   UNL     1      24.710  43.551  48.846  1.00  0.00    -0.309 N 
HETATM    7  O   UNL     1      24.609  43.399  51.142  1.00  0.00    -0.247 OA
HETATM    8  C   UNL     1      26.715  41.566  51.218  1.00  0.00     0.125 C 
HETATM    9  C   UNL     1      27.668  40.494  50.663  1.00  0.00     0.036 C 
HETATM   10  H   UNL     1      24.831  42.912  48.076  1.00  0.00     0.170 HD
ENDROOT
BRANCH   6  11
HETATM   11  C   UNL     1      23.882  44.669  48.625  1.00  0.00     0.038 A 
HETATM   12  C   UNL     1      24.037  45.870  49.323  1.00  0.00     0.062 A 
HETATM   13  C   UNL     1      23.231  46.968  49.017  1.00  0.00     0.070 A 
HETATM   14  C   UNL     1      22.259  46.875  48.023  1.00  0.00     0.096 A 
HETATM   15  N   UNL     1      23.445  48.177  49.679  1.00  0.00    -0.323 N 
HETATM   16  O   UNL     1      21.452  47.912  47.645  1.00  0.00    -0.335 OA
HETATM   17  C   UNL     1      22.105  45.682  47.319  1.00  0.00     0.041 A 
HETATM   18  C   UNL     1      21.470  49.046  48.509  1.00  0.00     0.217 C 
HETATM   19  C   UNL     1      22.684  49.281  49.420  1.00  0.00     0.251 C 
HETATM   20  C   UNL     1      20.212  49.005  49.372  1.00  0.00     0.050 C 
HETATM   21  O   UNL     1      22.929  50.364  49.949  1.00  0.00    -0.270 OA
HETATM   22  C   UNL     1      22.920  44.585  47.612  1.00  0.00     0.032 A 
HETATM   23  H   UNL     1      24.207  48.282  50.336  1.00  0.00     0.169 HD
ENDBRANCH   6  11
BRANCH   8  24
HETATM   24  C   UNL     1      27.416  42.482  52.203  1.00  0.00     0.003 A 
HETATM   25  C   UNL     1      27.866  41.940  53.413  1.00  0.00     0.124 A 
HETATM   26  F   UNL     1      27.690  40.634  53.664  1.00  0.00    -0.205 F 
HETATM   27  C   UNL     1      28.506  42.720  54.372  1.00  0.00     0.043 A 
HETATM   28  C   UNL     1      28.715  44.076  54.131  1.00  0.00     0.003 A 
HETATM   29  C   UNL     1      28.286  44.637  52.928  1.00  0.00     0.001 A 
HETATM   30  C   UNL     1      27.644  43.847  51.970  1.00  0.00     0.012 A 
ENDBRANCH   8  24
TORSDOF 2
ENDMDL
MODEL 9
REMARK VINA RESULT:      -8.0     13.182     14.789
REMARK  2 active torsions:
REMARK  status: ('A' for Active; 'I' for Inactive)
REMARK       I    between atoms: N_4  and  C_5 
REMARK       I    between atoms: C_5  and  N_6 
REMARK    1  A    between atoms: N_6  and  C_7 
REMARK    2  A    between atoms: C_20  and  C_21 
ROOT
HETATM    1  C   UNL     1      40.312  49.815  42.739  1.00  0.00     0.011 C 
HETATM    2  C   UNL     1      39.313  50.935  42.964  1.00  0.00     0.002 C 
HETATM    3  C   UNL     1      37.911  50.606  42.458  1.00  0.00     0.132 C 
HETATM    4  N   UNL     1      37.020  51.419  43.276  1.00  0.00    -0.325 N 
HETATM    5  C   UNL     1      35.674  51.647  43.077  1.00  0.00     0.323 C 
HETATM    6  N   UNL     1      35.139  50.961  42.010  1.00  0.00    -0.309 N 
HETATM    7  O   UNL     1      35.034  52.411  43.795  1.00  0.00    -0.247 OA
HETATM    8  C   UNL     1      37.721  51.992  44.430  1.00  0.00     0.125 C 
HETATM    9  C   UNL     1      39.063  51.241  44.444  1.00  0.00     0.036 C 
HETATM   10  H   UNL     1      35.552  50.060  41.824  1.00  0.00     0.170 HD
ENDROOT
BRANCH   6  11
HETATM   11  C   UNL     1      33.918  51.249  41.370  1.00  0.00     0.038 A 
HETATM   12  C   UNL     1      32.683  50.846  41.889  1.00  0.00     0.062 A 
HETATM   13  C   UNL     1      31.499  51.216  41.247  1.00  0.00     0.070 A 
HETATM   14  C   UNL     1      31.536  51.978  40.081  1.00  0.00     0.096 A 
HETATM   15  N   UNL     1      30.276  50.861  41.815  1.00  0.00    -0.323 N 
HETATM   16  O   UNL     1      30.423  52.405  39.413  1.00  0.00    -0.335 OA
HETATM   17  C   UNL     1      32.764  52.388  39.565  1.00  0.00     0.041 A 
HETATM   18  C   UNL     1      29.197  51.804  39.824  1.00  0.00     0.217 C 
HETATM   19  C   UNL     1      29.089  51.194  41.229  1.00  0.00     0.251 C 
HETATM   20  C   UNL     1      28.823  50.738  38.798  1.00  0.00     0.050 C 
HETATM   21  O   UNL     1      28.015  50.947  41.776  1.00  0.00    -0.270 OA
HETATM   22  C   UNL     1      33.951  52.033  40.212  1.00  0.00     0.032 A 
HETATM   23  H   UNL     1      30.236  50.387  42.708  1.00  0.00     0.169 HD
ENDBRANCH   6  11
BRANCH   8  24
HETATM   24  C   UNL     1      37.922  53.494  44.370  1.00  0.00     0.003 A 
HETATM   25  C   UNL     1      38.040  54.200  45.574  1.00  0.00     0.124 A 
HETATM   26  F   UNL     1      37.995  53.538  46.740  1.00  0.00    -0.205 F 
HETATM   27  C   UNL     1      38.213  55.581  45.600  1.00  0.00     0.043 A 
HETATM   28  C   UNL     1      38.278  56.291  44.403  1.00  0.00     0.003 A 
HETATM   29  C   UNL     1      38.174  55.609  43.191  1.00  0.00     0.001 A 
HETATM   30  C   UNL     1      38.001  54.222  43.172  1.00  0.00     0.012 A 
ENDBRANCH   8  24
TORSDOF 2
ENDMDL
MODEL 10
REMARK VINA RESULT:      -7.8     13.146     15.829
REMARK  2 active torsions:
REMARK  status: ('A' for Active; 'I' for Inactive)
REMARK       I    between atoms: N_4  and  C_5 
REMARK       I    between atoms: C_5  and  N_6 
REMARK    1  A    between atoms: N_6  and  C_7 
REMARK    2  A    between atoms: C_20  and  C_21 
ROOT
HETATM    1  C   UNL     1      30.589  46.731  40.060  1.00  0.00     0.011 C 
HETATM    2  C   UNL     1      30.831  48.224  40.192  1.00  0.00     0.002 C 
HETATM    3  C   UNL     1      32.210  48.566  40.748  1.00  0.00     0.132 C 
HETATM    4  N   UNL     1      32.503  49.895  40.225  1.00  0.00    -0.325 N 
HETATM    5  C   UNL     1      33.527  50.738  40.603  1.00  0.00     0.323 C 
HETATM    6  N   UNL     1      34.383  50.199  41.538  1.00  0.00    -0.309 N 
HETATM    7  O   UNL     1      33.638  51.871  40.141  1.00  0.00    -0.247 OA
HETATM    8  C   UNL     1      31.564  50.276  39.164  1.00  0.00     0.125 C 
HETATM    9  C   UNL     1      30.827  48.962  38.850  1.00  0.00     0.036 C 
HETATM   10  H   UNL     1      34.520  49.202  41.476  1.00  0.00     0.170 HD
ENDROOT
BRANCH   6  11
HETATM   11  C   UNL     1      35.286  50.919  42.344  1.00  0.00     0.038 A 
HETATM   12  C   UNL     1      36.665  50.924  42.110  1.00  0.00     0.062 A 
HETATM   13  C   UNL     1      37.507  51.709  42.901  1.00  0.00     0.070 A 
HETATM   14  C   UNL     1      36.985  52.484  43.935  1.00  0.00     0.096 A 
HETATM   15  N   UNL     1      38.870  51.752  42.611  1.00  0.00    -0.323 N 
HETATM   16  O   UNL     1      37.739  53.299  44.732  1.00  0.00    -0.335 OA
HETATM   17  C   UNL     1      35.611  52.488  44.167  1.00  0.00     0.041 A 
HETATM   18  C   UNL     1      39.149  53.122  44.627  1.00  0.00     0.217 C 
HETATM   19  C   UNL     1      39.739  52.499  43.353  1.00  0.00     0.251 C 
HETATM   20  C   UNL     1      39.616  52.308  45.830  1.00  0.00     0.050 C 
HETATM   21  O   UNL     1      40.925  52.595  43.043  1.00  0.00    -0.270 OA
HETATM   22  C   UNL     1      34.763  51.716  43.368  1.00  0.00     0.032 A 
HETATM   23  H   UNL     1      39.246  51.265  41.807  1.00  0.00     0.169 HD
ENDBRANCH   6  11
BRANCH   8  24
HETATM   24  C   UNL     1      30.598  51.383  39.537  1.00  0.00     0.003 A 
HETATM   25  C   UNL     1      29.975  52.101  38.508  1.00  0.00     0.124 A 
HETATM   26  F   UNL     1      30.227  51.783  37.230  1.00  0.00    -0.205 F 
HETATM   27  C   UNL     1      29.087  53.139  38.772  1.00  0.00     0.043 A 
HETATM   28  C   UNL     1      28.796  53.480  40.091  1.00  0.00     0.003 A 
HETATM   29  C   UNL     1      29.394  52.773  41.134  1.00  0.00     0.001 A 
HETATM   30  C   UNL     1      30.285  51.731  40.861  1.00  0.00     0.012 A 
ENDBRANCH   8  24
TORSDOF 2
ENDMDL
