MODEL 1
REMARK VINA RESULT:      -9.5      0.000      0.000
REMARK  6 active torsions:
REMARK  status: ('A' for Active; 'I' for Inactive)
REMARK    1  A    between atoms: C_6  and  C_7 
REMARK    2  A    between atoms: C_7  and  N_8 
REMARK    3  A    between atoms: C_12  and  C_13 
REMARK    4  A    between atoms: C_13  and  C_14 
REMARK    5  A    between atoms: N_23  and  C_24 
REMARK    6  A    between atoms: C_24  and  C_25 
ROOT
HETATM    1  C   UNL     1      26.586  43.267  51.775  1.00  0.00     0.164 C 
HETATM    2  N   UNL     1      25.979  41.943  51.830  1.00  0.00    -0.319 N 
HETATM    3  C   UNL     1      26.062  41.266  50.639  1.00  0.00     0.326 C 
HETATM    4  O   UNL     1      25.788  40.088  50.501  1.00  0.00    -0.247 OA
HETATM    5  N   UNL     1      26.497  42.129  49.687  1.00  0.00    -0.265 N 
HETATM    6  C   UNL     1      26.853  43.316  50.258  1.00  0.00     0.263 C 
HETATM    7  O   UNL     1      27.312  44.287  49.664  1.00  0.00    -0.270 OA
HETATM    8  H   UNL     1      25.922  41.414  52.695  1.00  0.00     0.166 HD
ENDROOT
BRANCH   1   9
HETATM    9  C   UNL     1      25.548  44.328  52.295  1.00  0.00     0.033 C 
HETATM   10  C   UNL     1      24.233  44.424  51.494  1.00  0.00     0.036 C 
HETATM   11  C   UNL     1      24.299  45.272  50.229  1.00  0.00     0.235 C 
HETATM   12  N   UNL     1      24.917  46.622  50.497  1.00  0.00    -0.067 N 
HETATM   13  H   UNL     1      24.235  47.157  51.046  1.00  0.00     0.280 HD
HETATM   14  C   UNL     1      26.211  46.588  51.265  1.00  0.00     0.235 C 
HETATM   15  C   UNL     1      26.075  45.756  52.525  1.00  0.00     0.036 C 
BRANCH  12  16
HETATM   16  C   UNL     1      25.126  47.397  49.200  1.00  0.00     0.273 C 
BRANCH  16  17
HETATM   17  C   UNL     1      24.093  48.463  48.943  1.00  0.00    -0.027 A 
HETATM   18  C   UNL     1      24.417  49.717  48.380  1.00  0.00    -0.054 A 
HETATM   19  C   UNL     1      23.398  50.670  48.195  1.00  0.00     0.014 A 
HETATM   20  C   UNL     1      25.823  50.099  48.000  1.00  0.00     0.049 C 
HETATM   21  C   UNL     1      22.075  50.404  48.563  1.00  0.00    -0.061 A 
HETATM   22  C   UNL     1      21.002  51.438  48.382  1.00  0.00     0.048 C 
HETATM   23  C   UNL     1      21.761  49.160  49.110  1.00  0.00     0.007 A 
HETATM   24  C   UNL     1      22.756  48.201  49.299  1.00  0.00     0.010 A 
ENDBRANCH  16  17
ENDBRANCH  12  16
ENDBRANCH   1   9
BRANCH   1  25
HETATM   25  C   UNL     1      27.859  43.241  52.622  1.00  0.00     0.072 A 
HETATM   26  N   UNL     1      27.688  43.599  53.926  1.00  0.00    -0.262 NA
HETATM   27  C   UNL     1      28.769  43.585  54.739  1.00  0.00     0.117 A 
HETATM   28  C   UNL     1      30.040  43.248  54.314  1.00  0.00     0.019 A 
HETATM   29  C   UNL     1      30.212  42.900  52.982  1.00  0.00     0.003 A 
HETATM   30  C   UNL     1      29.114  42.894  52.123  1.00  0.00     0.030 A 
ENDBRANCH   1  25
BRANCH   5  31
HETATM   31  C   UNL     1      26.567  41.837  48.266  1.00  0.00     0.168 C 
BRANCH  31  32
HETATM   32  C   UNL     1      27.822  41.039  47.863  1.00  0.00     0.140 C 
HETATM   33  O   UNL     1      27.470  39.841  47.128  1.00  0.00    -0.384 OA
HETATM   34  C   UNL     1      28.356  38.800  47.571  1.00  0.00     0.168 C 
HETATM   35  C   UNL     1      28.647  39.109  49.019  1.00  0.00     0.029 C 
HETATM   36  C   UNL     1      28.723  40.616  49.020  1.00  0.00     0.036 C 
ENDBRANCH  31  32
ENDBRANCH   5  31
TORSDOF 6
ENDMDL
MODEL 2
REMARK VINA RESULT:      -9.4      1.729      2.476
REMARK  6 active torsions:
REMARK  status: ('A' for Active; 'I' for Inactive)
REMARK    1  A    between atoms: C_6  and  C_7 
REMARK    2  A    between atoms: C_7  and  N_8 
REMARK    3  A    between atoms: C_12  and  C_13 
REMARK    4  A    between atoms: C_13  and  C_14 
REMARK    5  A    between atoms: N_23  and  C_24 
REMARK    6  A    between atoms: C_24  and  C_25 
ROOT
HETATM    1  C   UNL     1      27.498  43.915  53.980  1.00  0.00     0.164 C 
HETATM    2  N   UNL     1      27.188  42.569  54.447  1.00  0.00    -0.319 N 
HETATM    3  C   UNL     1      27.603  41.592  53.578  1.00  0.00     0.326 C 
HETATM    4  O   UNL     1      27.613  40.403  53.839  1.00  0.00    -0.247 OA
HETATM    5  N   UNL     1      27.990  42.185  52.421  1.00  0.00    -0.265 N 
HETATM    6  C   UNL     1      27.988  43.542  52.568  1.00  0.00     0.263 C 
HETATM    7  O   UNL     1      28.318  44.355  51.709  1.00  0.00    -0.270 OA
HETATM    8  H   UNL     1      27.106  42.349  55.435  1.00  0.00     0.166 HD
ENDROOT
BRANCH   1   9
HETATM    9  C   UNL     1      26.188  44.784  54.014  1.00  0.00     0.033 C 
HETATM   10  C   UNL     1      25.012  44.252  53.169  1.00  0.00     0.036 C 
HETATM   11  C   UNL     1      25.068  44.595  51.684  1.00  0.00     0.235 C 
HETATM   12  N   UNL     1      25.327  46.063  51.461  1.00  0.00    -0.067 N 
HETATM   13  H   UNL     1      24.472  46.560  51.737  1.00  0.00     0.280 HD
HETATM   14  C   UNL     1      26.474  46.634  52.252  1.00  0.00     0.235 C 
HETATM   15  C   UNL     1      26.347  46.287  53.722  1.00  0.00     0.036 C 
BRANCH  12  16
HETATM   16  C   UNL     1      25.542  46.365  49.982  1.00  0.00     0.273 C 
BRANCH  16  17
HETATM   17  C   UNL     1      24.893  47.641  49.509  1.00  0.00    -0.027 A 
HETATM   18  C   UNL     1      25.638  48.757  49.071  1.00  0.00    -0.054 A 
HETATM   19  C   UNL     1      24.957  49.921  48.670  1.00  0.00     0.014 A 
HETATM   20  C   UNL     1      27.143  48.772  49.050  1.00  0.00     0.049 C 
HETATM   21  C   UNL     1      23.561  49.998  48.702  1.00  0.00    -0.061 A 
HETATM   22  C   UNL     1      22.848  51.254  48.293  1.00  0.00     0.048 C 
HETATM   23  C   UNL     1      22.831  48.888  49.128  1.00  0.00     0.007 A 
HETATM   24  C   UNL     1      23.487  47.723  49.528  1.00  0.00     0.010 A 
ENDBRANCH  16  17
ENDBRANCH  12  16
ENDBRANCH   1   9
BRANCH   1  25
HETATM   25  C   UNL     1      28.594  44.487  54.880  1.00  0.00     0.072 A 
HETATM   26  N   UNL     1      28.214  45.550  55.643  1.00  0.00    -0.262 NA
HETATM   27  C   UNL     1      29.129  46.099  56.474  1.00  0.00     0.117 A 
HETATM   28  C   UNL     1      30.433  45.654  56.576  1.00  0.00     0.019 A 
HETATM   29  C   UNL     1      30.821  44.583  55.784  1.00  0.00     0.003 A 
HETATM   30  C   UNL     1      29.896  43.988  54.927  1.00  0.00     0.030 A 
ENDBRANCH   1  25
BRANCH   5  31
HETATM   31  C   UNL     1      28.348  41.482  51.202  1.00  0.00     0.168 C 
BRANCH  31  32
HETATM   32  C   UNL     1      27.240  40.546  50.684  1.00  0.00     0.140 C 
HETATM   33  O   UNL     1      27.642  39.880  49.461  1.00  0.00    -0.384 OA
HETATM   34  C   UNL     1      26.488  39.836  48.606  1.00  0.00     0.168 C 
HETATM   35  C   UNL     1      25.703  41.084  48.925  1.00  0.00     0.029 C 
HETATM   36  C   UNL     1      25.894  41.214  50.416  1.00  0.00     0.036 C 
ENDBRANCH  31  32
ENDBRANCH   5  31
TORSDOF 6
ENDMDL
MODEL 3
REMARK VINA RESULT:      -9.4      6.535     10.184
REMARK  6 active torsions:
REMARK  status: ('A' for Active; 'I' for Inactive)
REMARK    1  A    between atoms: C_6  and  C_7 
REMARK    2  A    between atoms: C_7  and  N_8 
REMARK    3  A    between atoms: C_12  and  C_13 
REMARK    4  A    between atoms: C_13  and  C_14 
REMARK    5  A    between atoms: N_23  and  C_24 
REMARK    6  A    between atoms: C_24  and  C_25 
ROOT
HETATM    1  C   UNL     1      20.086  49.803  48.223  1.00  0.00     0.164 C 
HETATM    2  N   UNL     1      19.498  49.694  49.552  1.00  0.00    -0.319 N 
HETATM    3  C   UNL     1      18.819  48.517  49.743  1.00  0.00     0.326 C 
HETATM    4  O   UNL     1      18.406  48.132  50.821  1.00  0.00    -0.247 OA
HETATM    5  N   UNL     1      18.707  47.890  48.546  1.00  0.00    -0.265 N 
HETATM    6  C   UNL     1      19.437  48.551  47.601  1.00  0.00     0.263 C 
HETATM    7  O   UNL     1      19.561  48.215  46.427  1.00  0.00    -0.270 OA
HETATM    8  H   UNL     1      19.898  50.169  50.357  1.00  0.00     0.166 HD
ENDROOT
BRANCH   1   9
HETATM    9  C   UNL     1      19.639  51.166  47.576  1.00  0.00     0.033 C 
HETATM   10  C   UNL     1      19.427  52.334  48.561  1.00  0.00     0.036 C 
HETATM   11  C   UNL     1      18.076  52.355  49.268  1.00  0.00     0.235 C 
HETATM   12  N   UNL     1      16.935  52.200  48.293  1.00  0.00    -0.067 N 
HETATM   13  H   UNL     1      16.882  53.075  47.759  1.00  0.00     0.280 HD
HETATM   14  C   UNL     1      17.083  51.065  47.315  1.00  0.00     0.235 C 
HETATM   15  C   UNL     1      18.431  51.115  46.623  1.00  0.00     0.036 C 
BRANCH  12  16
HETATM   16  C   UNL     1      15.604  52.060  49.024  1.00  0.00     0.273 C 
BRANCH  16  17
HETATM   17  C   UNL     1      14.988  53.369  49.445  1.00  0.00    -0.027 A 
HETATM   18  C   UNL     1      14.343  54.234  48.535  1.00  0.00    -0.054 A 
HETATM   19  C   UNL     1      13.816  55.452  49.002  1.00  0.00     0.014 A 
HETATM   20  C   UNL     1      14.226  53.928  47.065  1.00  0.00     0.049 C 
HETATM   21  C   UNL     1      13.922  55.826  50.346  1.00  0.00    -0.061 A 
HETATM   22  C   UNL     1      13.376  57.138  50.827  1.00  0.00     0.048 C 
HETATM   23  C   UNL     1      14.554  54.962  51.241  1.00  0.00     0.007 A 
HETATM   24  C   UNL     1      15.081  53.748  50.798  1.00  0.00     0.010 A 
ENDBRANCH  16  17
ENDBRANCH  12  16
ENDBRANCH   1   9
BRANCH   1  25
HETATM   25  C   UNL     1      21.604  49.702  48.365  1.00  0.00     0.072 A 
HETATM   26  N   UNL     1      22.043  48.631  49.085  1.00  0.00    -0.262 NA
HETATM   27  C   UNL     1      23.378  48.469  49.240  1.00  0.00     0.117 A 
HETATM   28  C   UNL     1      24.317  49.342  48.728  1.00  0.00     0.019 A 
HETATM   29  C   UNL     1      23.866  50.440  48.010  1.00  0.00     0.003 A 
HETATM   30  C   UNL     1      22.497  50.627  47.823  1.00  0.00     0.030 A 
ENDBRANCH   1  25
BRANCH   5  31
HETATM   31  C   UNL     1      17.922  46.693  48.300  1.00  0.00     0.168 C 
BRANCH  31  32
HETATM   32  C   UNL     1      18.755  45.398  48.311  1.00  0.00     0.140 C 
HETATM   33  O   UNL     1      20.073  45.624  48.869  1.00  0.00    -0.384 OA
HETATM   34  C   UNL     1      21.000  44.852  48.086  1.00  0.00     0.168 C 
HETATM   35  C   UNL     1      20.428  44.833  46.690  1.00  0.00     0.029 C 
HETATM   36  C   UNL     1      18.945  44.735  46.949  1.00  0.00     0.036 C 
ENDBRANCH  31  32
ENDBRANCH   5  31
TORSDOF 6
ENDMDL
MODEL 4
REMARK VINA RESULT:      -9.2     10.776     13.887
REMARK  6 active torsions:
REMARK  status: ('A' for Active; 'I' for Inactive)
REMARK    1  A    between atoms: C_6  and  C_7 
REMARK    2  A    between atoms: C_7  and  N_8 
REMARK    3  A    between atoms: C_12  and  C_13 
REMARK    4  A    between atoms: C_13  and  C_14 
REMARK    5  A    between atoms: N_23  and  C_24 
REMARK    6  A    between atoms: C_24  and  C_25 
ROOT
HETATM    1  C   UNL     1      32.913  50.539  41.176  1.00  0.00     0.164 C 
HETATM    2  N   UNL     1      32.436  50.428  39.803  1.00  0.00    -0.319 N 
HETATM    3  C   UNL     1      31.767  51.547  39.376  1.00  0.00     0.326 C 
HETATM    4  O   UNL     1      31.441  51.750  38.221  1.00  0.00    -0.247 OA
HETATM    5  N   UNL     1      31.553  52.351  40.447  1.00  0.00    -0.265 N 
HETATM    6  C   UNL     1      32.208  51.860  41.539  1.00  0.00     0.263 C 
HETATM    7  O   UNL     1      32.233  52.379  42.652  1.00  0.00    -0.270 OA
HETATM    8  H   UNL     1      32.903  49.841  39.118  1.00  0.00     0.166 HD
ENDROOT
BRANCH   1   9
HETATM    9  C   UNL     1      32.425  49.286  41.991  1.00  0.00     0.033 C 
HETATM   10  C   UNL     1      32.706  47.916  41.342  1.00  0.00     0.036 C 
HETATM   11  C   UNL     1      31.704  47.477  40.280  1.00  0.00     0.235 C 
HETATM   12  N   UNL     1      30.283  47.608  40.769  1.00  0.00    -0.067 N 
HETATM   13  H   UNL     1      30.144  46.875  41.474  1.00  0.00     0.280 HD
HETATM   14  C   UNL     1      29.947  48.932  41.401  1.00  0.00     0.235 C 
HETATM   15  C   UNL     1      30.960  49.299  42.468  1.00  0.00     0.036 C 
BRANCH  12  16
HETATM   16  C   UNL     1      29.288  47.323  39.649  1.00  0.00     0.273 C 
BRANCH  16  17
HETATM   17  C   UNL     1      28.822  45.891  39.586  1.00  0.00    -0.027 A 
HETATM   18  C   UNL     1      27.739  45.409  40.354  1.00  0.00    -0.054 A 
HETATM   19  C   UNL     1      27.381  44.052  40.257  1.00  0.00     0.014 A 
HETATM   20  C   UNL     1      26.968  46.280  41.308  1.00  0.00     0.049 C 
HETATM   21  C   UNL     1      28.078  43.170  39.423  1.00  0.00    -0.061 A 
HETATM   22  C   UNL     1      27.700  41.720  39.347  1.00  0.00     0.048 C 
HETATM   23  C   UNL     1      29.141  43.656  38.661  1.00  0.00     0.007 A 
HETATM   24  C   UNL     1      29.510  44.999  38.741  1.00  0.00     0.010 A 
ENDBRANCH  16  17
ENDBRANCH  12  16
ENDBRANCH   1   9
BRANCH   1  25
HETATM   25  C   UNL     1      34.438  50.647  41.141  1.00  0.00     0.072 A 
HETATM   26  N   UNL     1      35.050  50.534  42.353  1.00  0.00    -0.262 NA
HETATM   27  C   UNL     1      36.400  50.605  42.396  1.00  0.00     0.117 A 
HETATM   28  C   UNL     1      37.190  50.807  41.281  1.00  0.00     0.019 A 
HETATM   29  C   UNL     1      36.562  50.938  40.051  1.00  0.00     0.003 A 
HETATM   30  C   UNL     1      35.173  50.857  39.974  1.00  0.00     0.030 A 
ENDBRANCH   1  25
BRANCH   5  31
HETATM   31  C   UNL     1      30.743  53.556  40.437  1.00  0.00     0.168 C 
BRANCH  31  32
HETATM   32  C   UNL     1      29.232  53.282  40.569  1.00  0.00     0.140 C 
HETATM   33  O   UNL     1      28.963  52.303  41.603  1.00  0.00    -0.384 OA
HETATM   34  C   UNL     1      27.906  51.459  41.117  1.00  0.00     0.168 C 
HETATM   35  C   UNL     1      28.095  51.397  39.622  1.00  0.00     0.029 C 
HETATM   36  C   UNL     1      28.545  52.800  39.294  1.00  0.00     0.036 C 
ENDBRANCH  31  32
ENDBRANCH   5  31
TORSDOF 6
ENDMDL
MODEL 5
REMARK VINA RESULT:      -9.2     10.688     13.522
REMARK  6 active torsions:
REMARK  status: ('A' for Active; 'I' for Inactive)
REMARK    1  A    between atoms: C_6  and  C_7 
REMARK    2  A    between atoms: C_7  and  N_8 
REMARK    3  A    between atoms: C_12  and  C_13 
REMARK    4  A    between atoms: C_13  and  C_14 
REMARK    5  A    between atoms: N_23  and  C_24 
REMARK    6  A    between atoms: C_24  and  C_25 
ROOT
HETATM    1  C   UNL     1      32.899  50.555  41.209  1.00  0.00     0.164 C 
HETATM    2  N   UNL     1      32.473  50.461  39.818  1.00  0.00    -0.319 N 
HETATM    3  C   UNL     1      31.850  51.599  39.369  1.00  0.00     0.326 C 
HETATM    4  O   UNL     1      31.575  51.813  38.204  1.00  0.00    -0.247 OA
HETATM    5  N   UNL     1      31.616  52.405  40.434  1.00  0.00    -0.265 N 
HETATM    6  C   UNL     1      32.214  51.893  41.549  1.00  0.00     0.263 C 
HETATM    7  O   UNL     1      32.209  52.408  42.664  1.00  0.00    -0.270 OA
HETATM    8  H   UNL     1      32.952  49.864  39.149  1.00  0.00     0.166 HD
ENDROOT
BRANCH   1   9
HETATM    9  C   UNL     1      32.346  49.313  41.999  1.00  0.00     0.033 C 
HETATM   10  C   UNL     1      32.648  47.936  41.374  1.00  0.00     0.036 C 
HETATM   11  C   UNL     1      31.704  47.505  40.256  1.00  0.00     0.235 C 
HETATM   12  N   UNL     1      30.259  47.657  40.659  1.00  0.00    -0.067 N 
HETATM   13  H   UNL     1      30.068  46.929  41.358  1.00  0.00     0.280 HD
HETATM   14  C   UNL     1      29.904  48.988  41.265  1.00  0.00     0.235 C 
HETATM   15  C   UNL     1      30.857  49.348  42.387  1.00  0.00     0.036 C 
BRANCH  12  16
HETATM   16  C   UNL     1      29.328  47.378  39.483  1.00  0.00     0.273 C 
BRANCH  16  17
HETATM   17  C   UNL     1      27.897  47.115  39.876  1.00  0.00    -0.027 A 
HETATM   18  C   UNL     1      26.803  47.682  39.187  1.00  0.00    -0.054 A 
HETATM   19  C   UNL     1      25.497  47.407  39.631  1.00  0.00     0.014 A 
HETATM   20  C   UNL     1      26.973  48.606  38.010  1.00  0.00     0.049 C 
HETATM   21  C   UNL     1      25.260  46.592  40.742  1.00  0.00    -0.061 A 
HETATM   22  C   UNL     1      23.862  46.325  41.220  1.00  0.00     0.048 C 
HETATM   23  C   UNL     1      26.345  46.028  41.413  1.00  0.00     0.007 A 
HETATM   24  C   UNL     1      27.649  46.286  40.986  1.00  0.00     0.010 A 
ENDBRANCH  16  17
ENDBRANCH  12  16
ENDBRANCH   1   9
BRANCH   1  25
HETATM   25  C   UNL     1      34.426  50.623  41.233  1.00  0.00     0.072 A 
HETATM   26  N   UNL     1      35.017  50.718  40.009  1.00  0.00    -0.262 NA
HETATM   27  C   UNL     1      36.366  50.797  39.955  1.00  0.00     0.117 A 
HETATM   28  C   UNL     1      37.179  50.764  41.072  1.00  0.00     0.019 A 
HETATM   29  C   UNL     1      36.574  50.650  42.315  1.00  0.00     0.003 A 
HETATM   30  C   UNL     1      35.185  50.580  42.403  1.00  0.00     0.030 A 
ENDBRANCH   1  25
BRANCH   5  31
HETATM   31  C   UNL     1      30.838  53.630  40.398  1.00  0.00     0.168 C 
BRANCH  31  32
HETATM   32  C   UNL     1      29.318  53.396  40.482  1.00  0.00     0.140 C 
HETATM   33  O   UNL     1      28.995  52.382  41.466  1.00  0.00    -0.384 OA
HETATM   34  C   UNL     1      27.926  51.592  40.919  1.00  0.00     0.168 C 
HETATM   35  C   UNL     1      28.150  51.588  39.427  1.00  0.00     0.029 C 
HETATM   36  C   UNL     1      28.648  52.989  39.172  1.00  0.00     0.036 C 
ENDBRANCH  31  32
ENDBRANCH   5  31
TORSDOF 6
ENDMDL
MODEL 6
REMARK VINA RESULT:      -9.1      6.146     10.995
REMARK  6 active torsions:
REMARK  status: ('A' for Active; 'I' for Inactive)
REMARK    1  A    between atoms: C_6  and  C_7 
REMARK    2  A    between atoms: C_7  and  N_8 
REMARK    3  A    between atoms: C_12  and  C_13 
REMARK    4  A    between atoms: C_13  and  C_14 
REMARK    5  A    between atoms: N_23  and  C_24 
REMARK    6  A    between atoms: C_24  and  C_25 
ROOT
HETATM    1  C   UNL     1      17.859  50.788  48.605  1.00  0.00     0.164 C 
HETATM    2  N   UNL     1      18.636  51.150  47.426  1.00  0.00    -0.319 N 
HETATM    3  C   UNL     1      18.365  50.354  46.341  1.00  0.00     0.326 C 
HETATM    4  O   UNL     1      18.757  50.581  45.212  1.00  0.00    -0.247 OA
HETATM    5  N   UNL     1      17.604  49.311  46.757  1.00  0.00    -0.265 N 
HETATM    6  C   UNL     1      17.235  49.490  48.058  1.00  0.00     0.263 C 
HETATM    7  O   UNL     1      16.520  48.734  48.710  1.00  0.00    -0.270 OA
HETATM    8  H   UNL     1      18.970  52.097  47.272  1.00  0.00     0.166 HD
ENDROOT
BRANCH   1   9
HETATM    9  C   UNL     1      18.836  50.588  49.821  1.00  0.00     0.033 C 
HETATM   10  C   UNL     1      20.212  51.275  49.693  1.00  0.00     0.036 C 
HETATM   11  C   UNL     1      21.249  50.513  48.876  1.00  0.00     0.235 C 
HETATM   12  N   UNL     1      21.356  49.074  49.316  1.00  0.00    -0.067 N 
HETATM   13  H   UNL     1      21.809  49.079  50.237  1.00  0.00     0.280 HD
HETATM   14  C   UNL     1      20.044  48.349  49.446  1.00  0.00     0.235 C 
HETATM   15  C   UNL     1      19.066  49.140  50.292  1.00  0.00     0.036 C 
BRANCH  12  16
HETATM   16  C   UNL     1      22.275  48.283  48.390  1.00  0.00     0.273 C 
BRANCH  16  17
HETATM   17  C   UNL     1      23.743  48.551  48.598  1.00  0.00    -0.027 A 
HETATM   18  C   UNL     1      24.566  47.713  49.382  1.00  0.00    -0.054 A 
HETATM   19  C   UNL     1      25.922  48.046  49.549  1.00  0.00     0.014 A 
HETATM   20  C   UNL     1      24.044  46.488  50.085  1.00  0.00     0.049 C 
HETATM   21  C   UNL     1      26.471  49.191  48.962  1.00  0.00    -0.061 A 
HETATM   22  C   UNL     1      27.914  49.547  49.167  1.00  0.00     0.048 C 
HETATM   23  C   UNL     1      25.654  50.010  48.182  1.00  0.00     0.007 A 
HETATM   24  C   UNL     1      24.306  49.696  48.002  1.00  0.00     0.010 A 
ENDBRANCH  16  17
ENDBRANCH  12  16
ENDBRANCH   1   9
BRANCH   1  25
HETATM   25  C   UNL     1      16.840  51.900  48.860  1.00  0.00     0.072 A 
HETATM   26  N   UNL     1      15.928  52.082  47.864  1.00  0.00    -0.262 NA
HETATM   27  C   UNL     1      14.987  53.040  48.028  1.00  0.00     0.117 A 
HETATM   28  C   UNL     1      14.913  53.856  49.140  1.00  0.00     0.019 A 
HETATM   29  C   UNL     1      15.854  53.678  50.144  1.00  0.00     0.003 A 
HETATM   30  C   UNL     1      16.829  52.691  50.009  1.00  0.00     0.030 A 
ENDBRANCH   1  25
BRANCH   5  31
HETATM   31  C   UNL     1      17.238  48.168  45.940  1.00  0.00     0.168 C 
BRANCH  31  32
HETATM   32  C   UNL     1      18.223  46.989  46.055  1.00  0.00     0.140 C 
HETATM   33  O   UNL     1      18.421  46.341  44.774  1.00  0.00    -0.384 OA
HETATM   34  C   UNL     1      18.490  44.927  45.024  1.00  0.00     0.168 C 
HETATM   35  C   UNL     1      17.588  44.683  46.208  1.00  0.00     0.029 C 
HETATM   36  C   UNL     1      17.830  45.907  47.057  1.00  0.00     0.036 C 
ENDBRANCH  31  32
ENDBRANCH   5  31
TORSDOF 6
ENDMDL
MODEL 7
REMARK VINA RESULT:      -9.0      7.159     10.658
REMARK  6 active torsions:
REMARK  status: ('A' for Active; 'I' for Inactive)
REMARK    1  A    between atoms: C_6  and  C_7 
REMARK    2  A    between atoms: C_7  and  N_8 
REMARK    3  A    between atoms: C_12  and  C_13 
REMARK    4  A    between atoms: C_13  and  C_14 
REMARK    5  A    between atoms: N_23  and  C_24 
REMARK    6  A    between atoms: C_24  and  C_25 
ROOT
HETATM    1  C   UNL     1      19.718  50.288  49.415  1.00  0.00     0.164 C 
HETATM    2  N   UNL     1      19.414  49.812  50.758  1.00  0.00    -0.319 N 
HETATM    3  C   UNL     1      18.608  48.702  50.764  1.00  0.00     0.326 C 
HETATM    4  O   UNL     1      18.373  48.031  51.752  1.00  0.00    -0.247 OA
HETATM    5  N   UNL     1      18.147  48.503  49.504  1.00  0.00    -0.265 N 
HETATM    6  C   UNL     1      18.759  49.364  48.640  1.00  0.00     0.263 C 
HETATM    7  O   UNL     1      18.577  49.411  47.427  1.00  0.00    -0.270 OA
HETATM    8  H   UNL     1      20.045  49.967  51.539  1.00  0.00     0.166 HD
ENDROOT
BRANCH   1   9
HETATM    9  C   UNL     1      19.374  51.820  49.324  1.00  0.00     0.033 C 
HETATM   10  C   UNL     1      18.098  52.263  50.069  1.00  0.00     0.036 C 
HETATM   11  C   UNL     1      16.791  52.037  49.318  1.00  0.00     0.235 C 
HETATM   12  N   UNL     1      16.858  52.575  47.910  1.00  0.00    -0.067 N 
HETATM   13  H   UNL     1      16.859  53.599  47.984  1.00  0.00     0.280 HD
HETATM   14  C   UNL     1      18.078  52.164  47.130  1.00  0.00     0.235 C 
HETATM   15  C   UNL     1      19.345  52.440  47.914  1.00  0.00     0.036 C 
BRANCH  12  16
HETATM   16  C   UNL     1      15.609  52.202  47.119  1.00  0.00     0.273 C 
BRANCH  16  17
HETATM   17  C   UNL     1      14.907  53.373  46.481  1.00  0.00    -0.027 A 
HETATM   18  C   UNL     1      15.098  53.730  45.128  1.00  0.00    -0.054 A 
HETATM   19  C   UNL     1      14.425  54.853  44.614  1.00  0.00     0.014 A 
HETATM   20  C   UNL     1      16.026  52.977  44.212  1.00  0.00     0.049 C 
HETATM   21  C   UNL     1      13.579  55.627  45.415  1.00  0.00    -0.061 A 
HETATM   22  C   UNL     1      12.885  56.837  44.860  1.00  0.00     0.048 C 
HETATM   23  C   UNL     1      13.389  55.264  46.748  1.00  0.00     0.007 A 
HETATM   24  C   UNL     1      14.045  54.151  47.277  1.00  0.00     0.010 A 
ENDBRANCH  16  17
ENDBRANCH  12  16
ENDBRANCH   1   9
BRANCH   1  25
HETATM   25  C   UNL     1      21.196  50.011  49.137  1.00  0.00     0.072 A 
HETATM   26  N   UNL     1      21.520  48.693  49.011  1.00  0.00    -0.262 NA
HETATM   27  C   UNL     1      22.808  48.374  48.750  1.00  0.00     0.117 A 
HETATM   28  C   UNL     1      23.817  49.310  48.627  1.00  0.00     0.019 A 
HETATM   29  C   UNL     1      23.487  50.649  48.773  1.00  0.00     0.003 A 
HETATM   30  C   UNL     1      22.165  51.010  49.030  1.00  0.00     0.030 A 
ENDBRANCH   1  25
BRANCH   5  31
HETATM   31  C   UNL     1      17.144  47.523  49.127  1.00  0.00     0.168 C 
BRANCH  31  32
HETATM   32  C   UNL     1      17.733  46.259  48.473  1.00  0.00     0.140 C 
HETATM   33  O   UNL     1      19.171  46.198  48.648  1.00  0.00    -0.384 OA
HETATM   34  C   UNL     1      19.723  45.696  47.419  1.00  0.00     0.168 C 
HETATM   35  C   UNL     1      18.808  46.200  46.331  1.00  0.00     0.029 C 
HETATM   36  C   UNL     1      17.449  46.105  46.981  1.00  0.00     0.036 C 
ENDBRANCH  31  32
ENDBRANCH   5  31
TORSDOF 6
ENDMDL
MODEL 8
REMARK VINA RESULT:      -8.9     18.165     20.396
REMARK  6 active torsions:
REMARK  status: ('A' for Active; 'I' for Inactive)
REMARK    1  A    between atoms: C_6  and  C_7 
REMARK    2  A    between atoms: C_7  and  N_8 
REMARK    3  A    between atoms: C_12  and  C_13 
REMARK    4  A    between atoms: C_13  and  C_14 
REMARK    5  A    between atoms: N_23  and  C_24 
REMARK    6  A    between atoms: C_24  and  C_25 
ROOT
HETATM    1  C   UNL     1      39.237  42.668  64.278  1.00  0.00     0.164 C 
HETATM    2  N   UNL     1      39.440  43.140  65.642  1.00  0.00    -0.319 N 
HETATM    3  C   UNL     1      38.264  43.331  66.323  1.00  0.00     0.326 C 
HETATM    4  O   UNL     1      38.193  43.547  67.519  1.00  0.00    -0.247 OA
HETATM    5  N   UNL     1      37.239  43.233  65.441  1.00  0.00    -0.265 N 
HETATM    6  C   UNL     1      37.705  42.823  64.225  1.00  0.00     0.263 C 
HETATM    7  O   UNL     1      37.018  42.613  63.229  1.00  0.00    -0.270 OA
HETATM    8  H   UNL     1      40.283  42.924  66.165  1.00  0.00     0.166 HD
ENDROOT
BRANCH   1   9
HETATM    9  C   UNL     1      40.028  43.602  63.290  1.00  0.00     0.033 C 
HETATM   10  C   UNL     1      41.553  43.665  63.507  1.00  0.00     0.036 C 
HETATM   11  C   UNL     1      42.018  44.617  64.604  1.00  0.00     0.235 C 
HETATM   12  N   UNL     1      41.395  45.982  64.455  1.00  0.00    -0.067 N 
HETATM   13  H   UNL     1      41.827  46.418  63.632  1.00  0.00     0.280 HD
HETATM   14  C   UNL     1      39.903  45.982  64.253  1.00  0.00     0.235 C 
HETATM   15  C   UNL     1      39.505  45.042  63.133  1.00  0.00     0.036 C 
BRANCH  12  16
HETATM   16  C   UNL     1      41.738  46.875  65.644  1.00  0.00     0.273 C 
BRANCH  16  17
HETATM   17  C   UNL     1      40.788  48.027  65.848  1.00  0.00    -0.027 A 
HETATM   18  C   UNL     1      40.423  48.495  67.129  1.00  0.00    -0.054 A 
HETATM   19  C   UNL     1      39.509  49.559  67.235  1.00  0.00     0.014 A 
HETATM   20  C   UNL     1      40.943  47.876  68.399  1.00  0.00     0.049 C 
HETATM   21  C   UNL     1      38.951  50.158  66.101  1.00  0.00    -0.061 A 
HETATM   22  C   UNL     1      37.960  51.278  66.230  1.00  0.00     0.048 C 
HETATM   23  C   UNL     1      39.322  49.696  64.839  1.00  0.00     0.007 A 
HETATM   24  C   UNL     1      40.229  48.643  64.712  1.00  0.00     0.010 A 
ENDBRANCH  16  17
ENDBRANCH  12  16
ENDBRANCH   1   9
BRANCH   1  25
HETATM   25  C   UNL     1      39.711  41.216  64.204  1.00  0.00     0.072 A 
HETATM   26  N   UNL     1      40.377  40.772  65.307  1.00  0.00    -0.262 NA
HETATM   27  C   UNL     1      40.813  39.491  65.317  1.00  0.00     0.117 A 
HETATM   28  C   UNL     1      40.638  38.616  64.262  1.00  0.00     0.019 A 
HETATM   29  C   UNL     1      39.974  39.077  63.135  1.00  0.00     0.003 A 
HETATM   30  C   UNL     1      39.503  40.389  63.099  1.00  0.00     0.030 A 
ENDBRANCH   1  25
BRANCH   5  31
HETATM   31  C   UNL     1      35.848  43.526  65.740  1.00  0.00     0.168 C 
BRANCH  31  32
HETATM   32  C   UNL     1      35.467  45.000  65.508  1.00  0.00     0.140 C 
HETATM   33  O   UNL     1      36.048  45.508  64.281  1.00  0.00    -0.384 OA
HETATM   34  C   UNL     1      36.474  46.855  64.542  1.00  0.00     0.168 C 
HETATM   35  C   UNL     1      36.880  46.874  65.995  1.00  0.00     0.029 C 
HETATM   36  C   UNL     1      35.861  45.959  66.628  1.00  0.00     0.036 C 
ENDBRANCH  31  32
ENDBRANCH   5  31
TORSDOF 6
ENDMDL
MODEL 9
REMARK VINA RESULT:      -8.8      6.618     11.837
REMARK  6 active torsions:
REMARK  status: ('A' for Active; 'I' for Inactive)
REMARK    1  A    between atoms: C_6  and  C_7 
REMARK    2  A    between atoms: C_7  and  N_8 
REMARK    3  A    between atoms: C_12  and  C_13 
REMARK    4  A    between atoms: C_13  and  C_14 
REMARK    5  A    between atoms: N_23  and  C_24 
REMARK    6  A    between atoms: C_24  and  C_25 
ROOT
HETATM    1  C   UNL     1      17.748  50.746  48.522  1.00  0.00     0.164 C 
HETATM    2  N   UNL     1      18.380  51.013  47.235  1.00  0.00    -0.319 N 
HETATM    3  C   UNL     1      18.069  50.075  46.282  1.00  0.00     0.326 C 
HETATM    4  O   UNL     1      18.333  50.189  45.099  1.00  0.00    -0.247 OA
HETATM    5  N   UNL     1      17.433  49.043  46.889  1.00  0.00    -0.265 N 
HETATM    6  C   UNL     1      17.177  49.353  48.193  1.00  0.00     0.263 C 
HETATM    7  O   UNL     1      16.588  48.636  48.997  1.00  0.00    -0.270 OA
HETATM    8  H   UNL     1      18.623  51.954  46.941  1.00  0.00     0.166 HD
ENDROOT
BRANCH   1   9
HETATM    9  C   UNL     1      18.849  50.758  49.645  1.00  0.00     0.033 C 
HETATM   10  C   UNL     1      20.115  51.583  49.331  1.00  0.00     0.036 C 
HETATM   11  C   UNL     1      21.157  50.877  48.471  1.00  0.00     0.235 C 
HETATM   12  N   UNL     1      21.476  49.501  49.000  1.00  0.00    -0.067 N 
HETATM   13  H   UNL     1      22.007  49.634  49.868  1.00  0.00     0.280 HD
HETATM   14  C   UNL     1      20.277  48.646  49.312  1.00  0.00     0.235 C 
HETATM   15  C   UNL     1      19.293  49.389  50.193  1.00  0.00     0.036 C 
BRANCH  12  16
HETATM   16  C   UNL     1      22.395  48.745  48.045  1.00  0.00     0.273 C 
BRANCH  16  17
HETATM   17  C   UNL     1      23.861  48.864  48.374  1.00  0.00    -0.027 A 
HETATM   18  C   UNL     1      24.532  47.938  49.202  1.00  0.00    -0.054 A 
HETATM   19  C   UNL     1      25.897  48.133  49.482  1.00  0.00     0.014 A 
HETATM   20  C   UNL     1      23.838  46.762  49.836  1.00  0.00     0.049 C 
HETATM   21  C   UNL     1      26.600  49.225  48.963  1.00  0.00    -0.061 A 
HETATM   22  C   UNL     1      28.050  49.434  49.288  1.00  0.00     0.048 C 
HETATM   23  C   UNL     1      25.932  50.131  48.139  1.00  0.00     0.007 A 
HETATM   24  C   UNL     1      24.579  49.954  47.847  1.00  0.00     0.010 A 
ENDBRANCH  16  17
ENDBRANCH  12  16
ENDBRANCH   1   9
BRANCH   1  25
HETATM   25  C   UNL     1      16.676  51.811  48.753  1.00  0.00     0.072 A 
HETATM   26  N   UNL     1      15.932  52.125  47.655  1.00  0.00    -0.262 NA
HETATM   27  C   UNL     1      14.954  53.050  47.789  1.00  0.00     0.117 A 
HETATM   28  C   UNL     1      14.683  53.709  48.973  1.00  0.00     0.019 A 
HETATM   29  C   UNL     1      15.453  53.398  50.084  1.00  0.00     0.003 A 
HETATM   30  C   UNL     1      16.461  52.440  49.980  1.00  0.00     0.030 A 
ENDBRANCH   1  25
BRANCH   5  31
HETATM   31  C   UNL     1      17.081  47.788  46.250  1.00  0.00     0.168 C 
BRANCH  31  32
HETATM   32  C   UNL     1      15.715  47.822  45.539  1.00  0.00     0.140 C 
HETATM   33  O   UNL     1      15.839  48.324  44.185  1.00  0.00    -0.384 OA
HETATM   34  C   UNL     1      14.696  49.161  43.940  1.00  0.00     0.168 C 
HETATM   35  C   UNL     1      14.358  49.780  45.273  1.00  0.00     0.029 C 
HETATM   36  C   UNL     1      14.639  48.651  46.235  1.00  0.00     0.036 C 
ENDBRANCH  31  32
ENDBRANCH   5  31
TORSDOF 6
ENDMDL
MODEL 10
REMARK VINA RESULT:      -8.8      6.516     10.376
REMARK  6 active torsions:
REMARK  status: ('A' for Active; 'I' for Inactive)
REMARK    1  A    between atoms: C_6  and  C_7 
REMARK    2  A    between atoms: C_7  and  N_8 
REMARK    3  A    between atoms: C_12  and  C_13 
REMARK    4  A    between atoms: C_13  and  C_14 
REMARK    5  A    between atoms: N_23  and  C_24 
REMARK    6  A    between atoms: C_24  and  C_25 
ROOT
HETATM    1  C   UNL     1      20.675  49.107  48.802  1.00  0.00     0.164 C 
HETATM    2  N   UNL     1      20.453  47.703  49.124  1.00  0.00    -0.319 N 
HETATM    3  C   UNL     1      19.886  47.000  48.091  1.00  0.00     0.326 C 
HETATM    4  O   UNL     1      19.777  45.788  48.067  1.00  0.00    -0.247 OA
HETATM    5  N   UNL     1      19.494  47.882  47.139  1.00  0.00    -0.265 N 
HETATM    6  C   UNL     1      19.933  49.135  47.452  1.00  0.00     0.263 C 
HETATM    7  O   UNL     1      19.763  50.144  46.772  1.00  0.00    -0.270 OA
HETATM    8  H   UNL     1      21.028  47.209  49.800  1.00  0.00     0.166 HD
ENDROOT
BRANCH   1   9
HETATM    9  C   UNL     1      20.031  49.999  49.926  1.00  0.00     0.033 C 
HETATM   10  C   UNL     1      18.600  49.608  50.351  1.00  0.00     0.036 C 
HETATM   11  C   UNL     1      17.486  50.131  49.451  1.00  0.00     0.235 C 
HETATM   12  N   UNL     1      17.631  51.609  49.188  1.00  0.00    -0.067 N 
HETATM   13  H   UNL     1      17.405  52.089  50.067  1.00  0.00     0.280 HD
HETATM   14  C   UNL     1      19.005  52.047  48.757  1.00  0.00     0.235 C 
HETATM   15  C   UNL     1      20.066  51.522  49.705  1.00  0.00     0.036 C 
BRANCH  12  16
HETATM   16  C   UNL     1      16.609  52.087  48.162  1.00  0.00     0.273 C 
BRANCH  16  17
HETATM   17  C   UNL     1      15.441  52.833  48.753  1.00  0.00    -0.027 A 
HETATM   18  C   UNL     1      14.528  53.566  47.963  1.00  0.00    -0.054 A 
HETATM   19  C   UNL     1      13.477  54.257  48.593  1.00  0.00     0.014 A 
HETATM   20  C   UNL     1      14.651  53.673  46.466  1.00  0.00     0.049 C 
HETATM   21  C   UNL     1      13.321  54.239  49.983  1.00  0.00    -0.061 A 
HETATM   22  C   UNL     1      12.209  54.999  50.645  1.00  0.00     0.048 C 
HETATM   23  C   UNL     1      14.222  53.506  50.756  1.00  0.00     0.007 A 
HETATM   24  C   UNL     1      15.270  52.811  50.150  1.00  0.00     0.010 A 
ENDBRANCH  16  17
ENDBRANCH  12  16
ENDBRANCH   1   9
BRANCH   1  25
HETATM   25  C   UNL     1      22.183  49.332  48.679  1.00  0.00     0.072 A 
HETATM   26  N   UNL     1      22.953  48.453  49.379  1.00  0.00    -0.262 NA
HETATM   27  C   UNL     1      24.298  48.583  49.306  1.00  0.00     0.117 A 
HETATM   28  C   UNL     1      24.931  49.572  48.577  1.00  0.00     0.019 A 
HETATM   29  C   UNL     1      24.142  50.475  47.880  1.00  0.00     0.003 A 
HETATM   30  C   UNL     1      22.754  50.359  47.927  1.00  0.00     0.030 A 
ENDBRANCH   1  25
BRANCH   5  31
HETATM   31  C   UNL     1      18.714  47.546  45.960  1.00  0.00     0.168 C 
BRANCH  31  32
HETATM   32  C   UNL     1      17.197  47.485  46.223  1.00  0.00     0.140 C 
HETATM   33  O   UNL     1      16.534  46.610  45.277  1.00  0.00    -0.384 OA
HETATM   34  C   UNL     1      15.286  47.233  44.931  1.00  0.00     0.168 C 
HETATM   35  C   UNL     1      15.545  48.718  45.001  1.00  0.00     0.029 C 
HETATM   36  C   UNL     1      16.475  48.829  46.184  1.00  0.00     0.036 C 
ENDBRANCH  31  32
ENDBRANCH   5  31
TORSDOF 6
ENDMDL
