MODEL 1
REMARK VINA RESULT:     -10.0      0.000      0.000
REMARK  6 active torsions:
REMARK  status: ('A' for Active; 'I' for Inactive)
REMARK    1  A    between atoms: C_3  and  N_4 
REMARK       I    between atoms: N_4  and  C_5 
REMARK    2  A    between atoms: C_5  and  C_6 
REMARK       I    between atoms: C_6  and  N_7 
REMARK    3  A    between atoms: N_7  and  C_8 
REMARK    4  A    between atoms: C_9  and  C_10 
REMARK    5  A    between atoms: C_23  and  C_24 
REMARK       I    between atoms: C_24  and  N_25 
REMARK    6  A    between atoms: N_25  and  C_26 
ROOT
HETATM    1  N   UNL     1      24.852  46.647  50.434  1.00  0.00    -0.318 N 
HETATM    2  C   UNL     1      25.254  46.574  51.752  1.00  0.00     0.314 C 
HETATM    3  O   UNL     1      25.402  47.473  52.567  1.00  0.00    -0.262 OA
HETATM    4  H   UNL     1      24.787  45.736  49.985  1.00  0.00     0.169 HD
ENDROOT
BRANCH   2   5
HETATM    5  C   UNL     1      25.531  45.119  52.185  1.00  0.00     0.314 C 
HETATM    6  N   UNL     1      26.838  44.752  51.988  1.00  0.00    -0.316 N 
HETATM    7  H   UNL     1      27.476  45.450  51.591  1.00  0.00     0.169 HD
HETATM    8  O   UNL     1      24.605  44.459  52.643  1.00  0.00    -0.262 OA
BRANCH   6   9
HETATM    9  C   UNL     1      27.399  43.524  52.276  1.00  0.00     0.085 A 
HETATM   10  C   UNL     1      28.263  43.221  53.379  1.00  0.00     0.133 A 
HETATM   11  N   UNL     1      28.620  41.921  53.354  1.00  0.00    -0.171 NA
HETATM   12  N   UNL     1      28.004  41.428  52.266  1.00  0.00    -0.286 N 
HETATM   13  H   UNL     1      28.135  40.447  52.045  1.00  0.00     0.188 HD
HETATM   14  C   UNL     1      27.260  42.344  51.590  1.00  0.00     0.141 A 
BRANCH  10  15
HETATM   15  C   UNL     1      28.723  44.155  54.419  1.00  0.00     0.089 A 
HETATM   16  N   UNL     1      27.902  45.211  54.682  1.00  0.00    -0.259 NA
HETATM   17  C   UNL     1      28.302  46.085  55.631  1.00  0.00     0.117 A 
HETATM   18  C   UNL     1      29.482  45.960  56.343  1.00  0.00     0.019 A 
HETATM   19  C   UNL     1      30.308  44.877  56.067  1.00  0.00     0.004 A 
HETATM   20  C   UNL     1      29.926  43.959  55.090  1.00  0.00     0.034 A 
ENDBRANCH  10  15
ENDBRANCH   6   9
ENDBRANCH   2   5
BRANCH   1  21
HETATM   21  C   UNL     1      24.542  47.791  49.672  1.00  0.00     0.042 A 
HETATM   22  C   UNL     1      25.599  48.623  49.240  1.00  0.00    -0.035 A 
HETATM   23  C   UNL     1      27.041  48.320  49.553  1.00  0.00     0.050 C 
HETATM   24  C   UNL     1      25.307  49.784  48.503  1.00  0.00     0.010 A 
HETATM   25  C   UNL     1      23.991  50.119  48.186  1.00  0.00     0.017 A 
HETATM   26  C   UNL     1      22.945  49.288  48.594  1.00  0.00     0.034 A 
HETATM   27  C   UNL     1      23.226  48.135  49.344  1.00  0.00     0.047 A 
BRANCH  26  28
HETATM   28  C   UNL     1      21.521  49.610  48.293  1.00  0.00     0.252 C 
HETATM   29  N   UNL     1      20.905  50.514  49.140  1.00  0.00    -0.352 N 
HETATM   30  H   UNL     1      21.466  51.035  49.801  1.00  0.00     0.163 HD
HETATM   31  O   UNL     1      20.967  49.097  47.327  1.00  0.00    -0.268 OA
BRANCH  29  32
HETATM   32  C   UNL     1      19.558  50.942  48.933  1.00  0.00     0.084 A 
HETATM   33  C   UNL     1      18.901  51.908  49.877  1.00  0.00     0.027 A 
HETATM   34  C   UNL     1      19.266  52.349  48.491  1.00  0.00     0.027 A 
ENDBRANCH  29  32
ENDBRANCH  26  28
ENDBRANCH   1  21
TORSDOF 6
ENDMDL
MODEL 2
REMARK VINA RESULT:      -9.6      1.426      1.692
REMARK  6 active torsions:
REMARK  status: ('A' for Active; 'I' for Inactive)
REMARK    1  A    between atoms: C_3  and  N_4 
REMARK       I    between atoms: N_4  and  C_5 
REMARK    2  A    between atoms: C_5  and  C_6 
REMARK       I    between atoms: C_6  and  N_7 
REMARK    3  A    between atoms: N_7  and  C_8 
REMARK    4  A    between atoms: C_9  and  C_10 
REMARK    5  A    between atoms: C_23  and  C_24 
REMARK       I    between atoms: C_24  and  N_25 
REMARK    6  A    between atoms: N_25  and  C_26 
ROOT
HETATM    1  N   UNL     1      24.566  46.529  50.281  1.00  0.00    -0.318 N 
HETATM    2  C   UNL     1      24.543  45.230  49.814  1.00  0.00     0.314 C 
HETATM    3  O   UNL     1      24.306  44.816  48.690  1.00  0.00    -0.262 OA
HETATM    4  H   UNL     1      24.821  46.596  51.264  1.00  0.00     0.169 HD
ENDROOT
BRANCH   2   5
HETATM    5  C   UNL     1      24.883  44.218  50.928  1.00  0.00     0.314 C 
HETATM    6  N   UNL     1      26.219  44.204  51.236  1.00  0.00    -0.316 N 
HETATM    7  H   UNL     1      26.836  44.840  50.719  1.00  0.00     0.169 HD
HETATM    8  O   UNL     1      23.973  43.554  51.412  1.00  0.00    -0.262 OA
BRANCH   6   9
HETATM    9  C   UNL     1      26.836  43.415  52.186  1.00  0.00     0.085 A 
HETATM   10  C   UNL     1      27.312  43.844  53.470  1.00  0.00     0.133 A 
HETATM   11  N   UNL     1      27.856  42.808  54.139  1.00  0.00    -0.171 NA
HETATM   12  N   UNL     1      27.731  41.767  53.300  1.00  0.00    -0.286 N 
HETATM   13  H   UNL     1      28.083  40.864  53.601  1.00  0.00     0.188 HD
HETATM   14  C   UNL     1      27.126  42.076  52.121  1.00  0.00     0.141 A 
BRANCH  10  15
HETATM   15  C   UNL     1      27.238  45.204  54.026  1.00  0.00     0.089 A 
HETATM   16  N   UNL     1      26.168  45.954  53.637  1.00  0.00    -0.259 NA
HETATM   17  C   UNL     1      26.077  47.208  54.132  1.00  0.00     0.117 A 
HETATM   18  C   UNL     1      26.999  47.758  55.005  1.00  0.00     0.019 A 
HETATM   19  C   UNL     1      28.084  46.981  55.395  1.00  0.00     0.004 A 
HETATM   20  C   UNL     1      28.209  45.685  54.899  1.00  0.00     0.034 A 
ENDBRANCH  10  15
ENDBRANCH   6   9
ENDBRANCH   2   5
BRANCH   1  21
HETATM   21  C   UNL     1      24.281  47.718  49.581  1.00  0.00     0.042 A 
HETATM   22  C   UNL     1      25.351  48.573  49.233  1.00  0.00    -0.035 A 
HETATM   23  C   UNL     1      26.783  48.246  49.571  1.00  0.00     0.050 C 
HETATM   24  C   UNL     1      25.084  49.777  48.560  1.00  0.00     0.010 A 
HETATM   25  C   UNL     1      23.778  50.135  48.225  1.00  0.00     0.017 A 
HETATM   26  C   UNL     1      22.719  49.283  48.549  1.00  0.00     0.034 A 
HETATM   27  C   UNL     1      22.976  48.086  49.235  1.00  0.00     0.047 A 
BRANCH  26  28
HETATM   28  C   UNL     1      21.305  49.628  48.225  1.00  0.00     0.252 C 
HETATM   29  N   UNL     1      20.722  50.613  49.002  1.00  0.00    -0.352 N 
HETATM   30  H   UNL     1      21.301  51.163  49.622  1.00  0.00     0.163 HD
HETATM   31  O   UNL     1      20.732  49.062  47.300  1.00  0.00    -0.268 OA
BRANCH  29  32
HETATM   32  C   UNL     1      19.388  51.066  48.764  1.00  0.00     0.084 A 
HETATM   33  C   UNL     1      18.690  51.960  49.749  1.00  0.00     0.027 A 
HETATM   34  C   UNL     1      19.125  52.507  48.422  1.00  0.00     0.027 A 
ENDBRANCH  29  32
ENDBRANCH  26  28
ENDBRANCH   1  21
TORSDOF 6
ENDMDL
MODEL 3
REMARK VINA RESULT:      -9.1      1.851      2.466
REMARK  6 active torsions:
REMARK  status: ('A' for Active; 'I' for Inactive)
REMARK    1  A    between atoms: C_3  and  N_4 
REMARK       I    between atoms: N_4  and  C_5 
REMARK    2  A    between atoms: C_5  and  C_6 
REMARK       I    between atoms: C_6  and  N_7 
REMARK    3  A    between atoms: N_7  and  C_8 
REMARK    4  A    between atoms: C_9  and  C_10 
REMARK    5  A    between atoms: C_23  and  C_24 
REMARK       I    between atoms: C_24  and  N_25 
REMARK    6  A    between atoms: N_25  and  C_26 
ROOT
HETATM    1  N   UNL     1      24.760  45.338  49.419  1.00  0.00    -0.318 N 
HETATM    2  C   UNL     1      25.021  44.738  50.634  1.00  0.00     0.314 C 
HETATM    3  O   UNL     1      24.299  44.629  51.614  1.00  0.00    -0.262 OA
HETATM    4  H   UNL     1      25.534  45.265  48.763  1.00  0.00     0.169 HD
ENDROOT
BRANCH   2   5
HETATM    5  C   UNL     1      26.441  44.138  50.681  1.00  0.00     0.314 C 
HETATM    6  N   UNL     1      26.656  43.382  51.805  1.00  0.00    -0.316 N 
HETATM    7  H   UNL     1      25.885  43.293  52.476  1.00  0.00     0.169 HD
HETATM    8  O   UNL     1      27.209  44.379  49.756  1.00  0.00    -0.262 OA
BRANCH   6   9
HETATM    9  C   UNL     1      27.817  42.714  52.137  1.00  0.00     0.085 A 
HETATM   10  C   UNL     1      28.750  43.086  53.162  1.00  0.00     0.133 A 
HETATM   11  N   UNL     1      29.768  42.204  53.213  1.00  0.00    -0.171 NA
HETATM   12  N   UNL     1      29.486  41.313  52.248  1.00  0.00    -0.286 N 
HETATM   13  H   UNL     1      30.132  40.545  52.102  1.00  0.00     0.188 HD
HETATM   14  C   UNL     1      28.330  41.571  51.579  1.00  0.00     0.141 A 
BRANCH  10  15
HETATM   15  C   UNL     1      28.654  44.249  54.058  1.00  0.00     0.089 A 
HETATM   16  N   UNL     1      27.624  45.108  53.817  1.00  0.00    -0.259 NA
HETATM   17  C   UNL     1      27.515  46.186  54.625  1.00  0.00     0.117 A 
HETATM   18  C   UNL     1      28.381  46.454  55.671  1.00  0.00     0.019 A 
HETATM   19  C   UNL     1      29.425  45.568  55.906  1.00  0.00     0.004 A 
HETATM   20  C   UNL     1      29.568  44.448  55.088  1.00  0.00     0.034 A 
ENDBRANCH  10  15
ENDBRANCH   6   9
ENDBRANCH   2   5
BRANCH   1  21
HETATM   21  C   UNL     1      23.597  46.019  49.007  1.00  0.00     0.042 A 
HETATM   22  C   UNL     1      22.646  45.324  48.227  1.00  0.00    -0.035 A 
HETATM   23  C   UNL     1      22.828  43.880  47.835  1.00  0.00     0.050 C 
HETATM   24  C   UNL     1      21.493  45.994  47.783  1.00  0.00     0.010 A 
HETATM   25  C   UNL     1      21.272  47.332  48.110  1.00  0.00     0.017 A 
HETATM   26  C   UNL     1      22.201  48.017  48.899  1.00  0.00     0.034 A 
HETATM   27  C   UNL     1      23.362  47.360  49.333  1.00  0.00     0.047 A 
BRANCH  26  28
HETATM   28  C   UNL     1      22.017  49.451  49.263  1.00  0.00     0.252 C 
HETATM   29  N   UNL     1      20.749  49.972  49.077  1.00  0.00    -0.352 N 
HETATM   30  H   UNL     1      19.981  49.346  48.873  1.00  0.00     0.163 HD
HETATM   31  O   UNL     1      22.956  50.093  49.719  1.00  0.00    -0.268 OA
BRANCH  29  32
HETATM   32  C   UNL     1      20.430  51.319  49.430  1.00  0.00     0.084 A 
HETATM   33  C   UNL     1      19.597  52.178  48.522  1.00  0.00     0.027 A 
HETATM   34  C   UNL     1      19.026  51.691  49.821  1.00  0.00     0.027 A 
ENDBRANCH  29  32
ENDBRANCH  26  28
ENDBRANCH   1  21
TORSDOF 6
ENDMDL
MODEL 4
REMARK VINA RESULT:      -8.7      5.182      8.436
REMARK  6 active torsions:
REMARK  status: ('A' for Active; 'I' for Inactive)
REMARK    1  A    between atoms: C_3  and  N_4 
REMARK       I    between atoms: N_4  and  C_5 
REMARK    2  A    between atoms: C_5  and  C_6 
REMARK       I    between atoms: C_6  and  N_7 
REMARK    3  A    between atoms: N_7  and  C_8 
REMARK    4  A    between atoms: C_9  and  C_10 
REMARK    5  A    between atoms: C_23  and  C_24 
REMARK       I    between atoms: C_24  and  N_25 
REMARK    6  A    between atoms: N_25  and  C_26 
ROOT
HETATM    1  N   UNL     1      25.633  42.890  51.804  1.00  0.00    -0.318 N 
HETATM    2  C   UNL     1      26.784  43.212  52.494  1.00  0.00     0.314 C 
HETATM    3  O   UNL     1      27.938  42.872  52.277  1.00  0.00    -0.262 OA
HETATM    4  H   UNL     1      24.801  43.333  52.185  1.00  0.00     0.169 HD
ENDROOT
BRANCH   2   5
HETATM    5  C   UNL     1      26.491  44.142  53.689  1.00  0.00     0.314 C 
HETATM    6  N   UNL     1      27.045  45.387  53.535  1.00  0.00    -0.316 N 
HETATM    7  H   UNL     1      27.576  45.571  52.678  1.00  0.00     0.169 HD
HETATM    8  O   UNL     1      25.822  43.705  54.619  1.00  0.00    -0.262 OA
BRANCH   6   9
HETATM    9  C   UNL     1      26.960  46.441  54.423  1.00  0.00     0.085 A 
HETATM   10  C   UNL     1      27.806  46.664  55.560  1.00  0.00     0.133 A 
HETATM   11  N   UNL     1      27.441  47.792  56.202  1.00  0.00    -0.171 NA
HETATM   12  N   UNL     1      26.397  48.256  55.495  1.00  0.00    -0.286 N 
HETATM   13  H   UNL     1      25.952  49.113  55.804  1.00  0.00     0.188 HD
HETATM   14  C   UNL     1      26.073  47.486  54.420  1.00  0.00     0.141 A 
BRANCH  10  15
HETATM   15  C   UNL     1      28.925  45.819  56.004  1.00  0.00     0.089 A 
HETATM   16  N   UNL     1      29.362  44.885  55.112  1.00  0.00    -0.259 NA
HETATM   17  C   UNL     1      30.388  44.094  55.495  1.00  0.00     0.117 A 
HETATM   18  C   UNL     1      31.011  44.187  56.728  1.00  0.00     0.019 A 
HETATM   19  C   UNL     1      30.557  45.145  57.626  1.00  0.00     0.004 A 
HETATM   20  C   UNL     1      29.497  45.974  57.263  1.00  0.00     0.034 A 
ENDBRANCH  10  15
ENDBRANCH   6   9
ENDBRANCH   2   5
BRANCH   1  21
HETATM   21  C   UNL     1      25.488  42.047  50.684  1.00  0.00     0.042 A 
HETATM   22  C   UNL     1      24.407  42.271  49.803  1.00  0.00    -0.035 A 
HETATM   23  C   UNL     1      23.417  43.388  50.012  1.00  0.00     0.050 C 
HETATM   24  C   UNL     1      24.229  41.423  48.696  1.00  0.00     0.010 A 
HETATM   25  C   UNL     1      25.110  40.369  48.453  1.00  0.00     0.017 A 
HETATM   26  C   UNL     1      26.192  40.157  49.311  1.00  0.00     0.034 A 
HETATM   27  C   UNL     1      26.368  40.989  50.426  1.00  0.00     0.047 A 
BRANCH  26  28
HETATM   28  C   UNL     1      27.153  39.036  49.102  1.00  0.00     0.252 C 
HETATM   29  N   UNL     1      28.032  38.781  50.139  1.00  0.00    -0.352 N 
HETATM   30  H   UNL     1      27.885  39.229  51.034  1.00  0.00     0.163 HD
HETATM   31  O   UNL     1      27.121  38.386  48.063  1.00  0.00    -0.268 OA
BRANCH  29  32
HETATM   32  C   UNL     1      28.971  37.706  50.083  1.00  0.00     0.084 A 
HETATM   33  C   UNL     1      30.445  37.975  49.962  1.00  0.00     0.027 A 
HETATM   34  C   UNL     1      29.886  37.434  51.245  1.00  0.00     0.027 A 
ENDBRANCH  29  32
ENDBRANCH  26  28
ENDBRANCH   1  21
TORSDOF 6
ENDMDL
MODEL 5
REMARK VINA RESULT:      -8.5      1.950      3.661
REMARK  6 active torsions:
REMARK  status: ('A' for Active; 'I' for Inactive)
REMARK    1  A    between atoms: C_3  and  N_4 
REMARK       I    between atoms: N_4  and  C_5 
REMARK    2  A    between atoms: C_5  and  C_6 
REMARK       I    between atoms: C_6  and  N_7 
REMARK    3  A    between atoms: N_7  and  C_8 
REMARK    4  A    between atoms: C_9  and  C_10 
REMARK    5  A    between atoms: C_23  and  C_24 
REMARK       I    between atoms: C_24  and  N_25 
REMARK    6  A    between atoms: N_25  and  C_26 
ROOT
HETATM    1  N   UNL     1      24.612  47.148  50.383  1.00  0.00    -0.318 N 
HETATM    2  C   UNL     1      24.581  45.800  50.088  1.00  0.00     0.314 C 
HETATM    3  O   UNL     1      24.359  45.246  49.022  1.00  0.00    -0.262 OA
HETATM    4  H   UNL     1      24.849  47.340  51.353  1.00  0.00     0.169 HD
ENDROOT
BRANCH   2   5
HETATM    5  C   UNL     1      24.887  44.938  51.331  1.00  0.00     0.314 C 
HETATM    6  N   UNL     1      26.232  44.825  51.574  1.00  0.00    -0.316 N 
HETATM    7  H   UNL     1      26.875  45.304  50.934  1.00  0.00     0.169 HD
HETATM    8  O   UNL     1      23.948  44.459  51.956  1.00  0.00    -0.262 OA
BRANCH   6   9
HETATM    9  C   UNL     1      26.826  44.127  52.606  1.00  0.00     0.085 A 
HETATM   10  C   UNL     1      27.242  42.755  52.576  1.00  0.00     0.133 A 
HETATM   11  N   UNL     1      27.787  42.403  53.758  1.00  0.00    -0.171 NA
HETATM   12  N   UNL     1      27.708  43.516  54.505  1.00  0.00    -0.286 N 
HETATM   13  H   UNL     1      28.064  43.482  55.454  1.00  0.00     0.188 HD
HETATM   14  C   UNL     1      27.145  44.575  53.863  1.00  0.00     0.141 A 
BRANCH  10  15
HETATM   15  C   UNL     1      27.119  41.823  51.444  1.00  0.00     0.089 A 
HETATM   16  N   UNL     1      25.911  41.802  50.812  1.00  0.00    -0.259 NA
HETATM   17  C   UNL     1      25.771  40.953  49.771  1.00  0.00     0.117 A 
HETATM   18  C   UNL     1      26.779  40.120  49.316  1.00  0.00     0.019 A 
HETATM   19  C   UNL     1      28.006  40.154  49.968  1.00  0.00     0.004 A 
HETATM   20  C   UNL     1      28.182  41.016  51.049  1.00  0.00     0.034 A 
ENDBRANCH  10  15
ENDBRANCH   6   9
ENDBRANCH   2   5
BRANCH   1  21
HETATM   21  C   UNL     1      24.355  48.239  49.529  1.00  0.00     0.042 A 
HETATM   22  C   UNL     1      25.450  48.918  48.949  1.00  0.00    -0.035 A 
HETATM   23  C   UNL     1      26.877  48.504  49.200  1.00  0.00     0.050 C 
HETATM   24  C   UNL     1      25.214  50.026  48.117  1.00  0.00     0.010 A 
HETATM   25  C   UNL     1      23.915  50.459  47.852  1.00  0.00     0.017 A 
HETATM   26  C   UNL     1      22.829  49.778  48.408  1.00  0.00     0.034 A 
HETATM   27  C   UNL     1      23.056  48.680  49.252  1.00  0.00     0.047 A 
BRANCH  26  28
HETATM   28  C   UNL     1      21.423  50.210  48.166  1.00  0.00     0.252 C 
HETATM   29  N   UNL     1      20.599  49.291  47.542  1.00  0.00    -0.352 N 
HETATM   30  H   UNL     1      20.915  48.337  47.431  1.00  0.00     0.163 HD
HETATM   31  O   UNL     1      21.049  51.319  48.534  1.00  0.00    -0.268 OA
BRANCH  29  32
HETATM   32  C   UNL     1      19.219  49.565  47.294  1.00  0.00     0.084 A 
HETATM   33  C   UNL     1      18.754  50.022  45.940  1.00  0.00     0.027 A 
HETATM   34  C   UNL     1      18.406  48.646  46.424  1.00  0.00     0.027 A 
ENDBRANCH  29  32
ENDBRANCH  26  28
ENDBRANCH   1  21
TORSDOF 6
ENDMDL
MODEL 6
REMARK VINA RESULT:      -8.5      2.830     10.231
REMARK  6 active torsions:
REMARK  status: ('A' for Active; 'I' for Inactive)
REMARK    1  A    between atoms: C_3  and  N_4 
REMARK       I    between atoms: N_4  and  C_5 
REMARK    2  A    between atoms: C_5  and  C_6 
REMARK       I    between atoms: C_6  and  N_7 
REMARK    3  A    between atoms: N_7  and  C_8 
REMARK    4  A    between atoms: C_9  and  C_10 
REMARK    5  A    between atoms: C_23  and  C_24 
REMARK       I    between atoms: C_24  and  N_25 
REMARK    6  A    between atoms: N_25  and  C_26 
ROOT
HETATM    1  N   UNL     1      22.035  48.100  48.974  1.00  0.00    -0.318 N 
HETATM    2  C   UNL     1      21.301  47.553  47.941  1.00  0.00     0.314 C 
HETATM    3  O   UNL     1      21.687  47.068  46.889  1.00  0.00    -0.262 OA
HETATM    4  H   UNL     1      21.460  48.411  49.753  1.00  0.00     0.169 HD
ENDROOT
BRANCH   2   5
HETATM    5  C   UNL     1      19.787  47.589  48.237  1.00  0.00     0.314 C 
HETATM    6  N   UNL     1      19.041  47.877  47.122  1.00  0.00    -0.316 N 
HETATM    7  H   UNL     1      19.540  48.033  46.240  1.00  0.00     0.169 HD
HETATM    8  O   UNL     1      19.409  47.367  49.382  1.00  0.00    -0.262 OA
BRANCH   6   9
HETATM    9  C   UNL     1      17.665  47.980  47.057  1.00  0.00     0.085 A 
HETATM   10  C   UNL     1      16.873  49.089  47.502  1.00  0.00     0.133 A 
HETATM   11  N   UNL     1      15.565  48.851  47.281  1.00  0.00    -0.171 NA
HETATM   12  N   UNL     1      15.538  47.630  46.723  1.00  0.00    -0.286 N 
HETATM   13  H   UNL     1      14.638  47.238  46.470  1.00  0.00     0.188 HD
HETATM   14  C   UNL     1      16.767  47.068  46.564  1.00  0.00     0.141 A 
BRANCH  10  15
HETATM   15  C   UNL     1      17.366  50.333  48.114  1.00  0.00     0.089 A 
HETATM   16  N   UNL     1      18.576  50.780  47.673  1.00  0.00    -0.259 NA
HETATM   17  C   UNL     1      19.053  51.919  48.220  1.00  0.00     0.117 A 
HETATM   18  C   UNL     1      18.382  52.647  49.188  1.00  0.00     0.019 A 
HETATM   19  C   UNL     1      17.148  52.181  49.626  1.00  0.00     0.004 A 
HETATM   20  C   UNL     1      16.630  51.006  49.084  1.00  0.00     0.034 A 
ENDBRANCH  10  15
ENDBRANCH   6   9
ENDBRANCH   2   5
BRANCH   1  21
HETATM   21  C   UNL     1      23.430  48.275  49.062  1.00  0.00     0.042 A 
HETATM   22  C   UNL     1      23.984  49.513  48.666  1.00  0.00    -0.035 A 
HETATM   23  C   UNL     1      23.132  50.653  48.169  1.00  0.00     0.050 C 
HETATM   24  C   UNL     1      25.376  49.697  48.720  1.00  0.00     0.010 A 
HETATM   25  C   UNL     1      26.216  48.677  49.167  1.00  0.00     0.017 A 
HETATM   26  C   UNL     1      25.671  47.459  49.578  1.00  0.00     0.034 A 
HETATM   27  C   UNL     1      24.284  47.261  49.513  1.00  0.00     0.047 A 
BRANCH  26  28
HETATM   28  C   UNL     1      26.528  46.333  50.050  1.00  0.00     0.252 C 
HETATM   29  N   UNL     1      26.186  45.773  51.268  1.00  0.00    -0.352 N 
HETATM   30  H   UNL     1      25.304  46.019  51.697  1.00  0.00     0.163 HD
HETATM   31  O   UNL     1      27.460  45.940  49.359  1.00  0.00    -0.268 OA
BRANCH  29  32
HETATM   32  C   UNL     1      26.899  44.660  51.810  1.00  0.00     0.084 A 
HETATM   33  C   UNL     1      27.474  44.713  53.197  1.00  0.00     0.027 A 
HETATM   34  C   UNL     1      26.294  43.833  52.911  1.00  0.00     0.027 A 
ENDBRANCH  29  32
ENDBRANCH  26  28
ENDBRANCH   1  21
TORSDOF 6
ENDMDL
MODEL 7
REMARK VINA RESULT:      -8.3      2.859     10.684
REMARK  6 active torsions:
REMARK  status: ('A' for Active; 'I' for Inactive)
REMARK    1  A    between atoms: C_3  and  N_4 
REMARK       I    between atoms: N_4  and  C_5 
REMARK    2  A    between atoms: C_5  and  C_6 
REMARK       I    between atoms: C_6  and  N_7 
REMARK    3  A    between atoms: N_7  and  C_8 
REMARK    4  A    between atoms: C_9  and  C_10 
REMARK    5  A    between atoms: C_23  and  C_24 
REMARK       I    between atoms: C_24  and  N_25 
REMARK    6  A    between atoms: N_25  and  C_26 
ROOT
HETATM    1  N   UNL     1      22.142  48.941  49.676  1.00  0.00    -0.318 N 
HETATM    2  C   UNL     1      21.106  48.330  48.999  1.00  0.00     0.314 C 
HETATM    3  O   UNL     1      21.147  47.450  48.153  1.00  0.00    -0.262 OA
HETATM    4  H   UNL     1      21.825  49.631  50.353  1.00  0.00     0.169 HD
ENDROOT
BRANCH   2   5
HETATM    5  C   UNL     1      19.734  48.885  49.435  1.00  0.00     0.314 C 
HETATM    6  N   UNL     1      19.514  50.159  48.976  1.00  0.00    -0.316 N 
HETATM    7  H   UNL     1      20.249  50.598  48.413  1.00  0.00     0.169 HD
HETATM    8  O   UNL     1      19.004  48.173  50.115  1.00  0.00    -0.262 OA
BRANCH   6   9
HETATM    9  C   UNL     1      18.386  50.927  49.192  1.00  0.00     0.085 A 
HETATM   10  C   UNL     1      17.108  50.756  48.565  1.00  0.00     0.133 A 
HETATM   11  N   UNL     1      16.237  51.681  49.014  1.00  0.00    -0.171 NA
HETATM   12  N   UNL     1      16.948  52.411  49.889  1.00  0.00    -0.286 N 
HETATM   13  H   UNL     1      16.485  53.182  50.358  1.00  0.00     0.188 HD
HETATM   14  C   UNL     1      18.237  51.999  50.034  1.00  0.00     0.141 A 
BRANCH  10  15
HETATM   15  C   UNL     1      16.745  49.733  47.571  1.00  0.00     0.089 A 
HETATM   16  N   UNL     1      17.675  49.477  46.607  1.00  0.00    -0.259 NA
HETATM   17  C   UNL     1      17.366  48.543  45.681  1.00  0.00     0.117 A 
HETATM   18  C   UNL     1      16.173  47.841  45.665  1.00  0.00     0.019 A 
HETATM   19  C   UNL     1      15.235  48.112  46.655  1.00  0.00     0.004 A 
HETATM   20  C   UNL     1      15.522  49.072  47.623  1.00  0.00     0.034 A 
ENDBRANCH  10  15
ENDBRANCH   6   9
ENDBRANCH   2   5
BRANCH   1  21
HETATM   21  C   UNL     1      23.528  48.732  49.533  1.00  0.00     0.042 A 
HETATM   22  C   UNL     1      24.282  49.668  48.791  1.00  0.00    -0.035 A 
HETATM   23  C   UNL     1      23.656  50.887  48.163  1.00  0.00     0.050 C 
HETATM   24  C   UNL     1      25.661  49.461  48.615  1.00  0.00     0.010 A 
HETATM   25  C   UNL     1      26.295  48.349  49.169  1.00  0.00     0.017 A 
HETATM   26  C   UNL     1      25.556  47.432  49.920  1.00  0.00     0.034 A 
HETATM   27  C   UNL     1      24.177  47.622  50.089  1.00  0.00     0.047 A 
BRANCH  26  28
HETATM   28  C   UNL     1      26.185  46.221  50.521  1.00  0.00     0.252 C 
HETATM   29  N   UNL     1      25.722  45.846  51.770  1.00  0.00    -0.352 N 
HETATM   30  H   UNL     1      24.890  46.284  52.142  1.00  0.00     0.163 HD
HETATM   31  O   UNL     1      27.046  45.605  49.902  1.00  0.00    -0.268 OA
BRANCH  29  32
HETATM   32  C   UNL     1      26.209  44.678  52.433  1.00  0.00     0.084 A 
HETATM   33  C   UNL     1      27.295  44.776  53.468  1.00  0.00     0.027 A 
HETATM   34  C   UNL     1      25.894  44.441  53.885  1.00  0.00     0.027 A 
ENDBRANCH  29  32
ENDBRANCH  26  28
ENDBRANCH   1  21
TORSDOF 6
ENDMDL
MODEL 8
REMARK VINA RESULT:      -8.2      2.791      9.645
REMARK  6 active torsions:
REMARK  status: ('A' for Active; 'I' for Inactive)
REMARK    1  A    between atoms: C_3  and  N_4 
REMARK       I    between atoms: N_4  and  C_5 
REMARK    2  A    between atoms: C_5  and  C_6 
REMARK       I    between atoms: C_6  and  N_7 
REMARK    3  A    between atoms: N_7  and  C_8 
REMARK    4  A    between atoms: C_9  and  C_10 
REMARK    5  A    between atoms: C_23  and  C_24 
REMARK       I    between atoms: C_24  and  N_25 
REMARK    6  A    between atoms: N_25  and  C_26 
ROOT
HETATM    1  N   UNL     1      22.688  46.344  49.199  1.00  0.00    -0.318 N 
HETATM    2  C   UNL     1      21.975  45.212  48.863  1.00  0.00     0.314 C 
HETATM    3  O   UNL     1      22.249  44.037  49.061  1.00  0.00    -0.262 OA
HETATM    4  H   UNL     1      22.216  47.207  48.937  1.00  0.00     0.169 HD
ENDROOT
BRANCH   2   5
HETATM    5  C   UNL     1      20.654  45.561  48.147  1.00  0.00     0.314 C 
HETATM    6  N   UNL     1      19.779  46.237  48.960  1.00  0.00    -0.316 N 
HETATM    7  H   UNL     1      20.075  46.435  49.921  1.00  0.00     0.169 HD
HETATM    8  O   UNL     1      20.515  45.222  46.977  1.00  0.00    -0.262 OA
BRANCH   6   9
HETATM    9  C   UNL     1      18.520  46.689  48.616  1.00  0.00     0.085 A 
HETATM   10  C   UNL     1      18.056  48.045  48.684  1.00  0.00     0.133 A 
HETATM   11  N   UNL     1      16.777  48.125  48.268  1.00  0.00    -0.171 NA
HETATM   12  N   UNL     1      16.448  46.860  47.956  1.00  0.00    -0.286 N 
HETATM   13  H   UNL     1      15.510  46.679  47.616  1.00  0.00     0.188 HD
HETATM   14  C   UNL     1      17.456  45.965  48.144  1.00  0.00     0.141 A 
BRANCH  10  15
HETATM   15  C   UNL     1      18.826  49.217  49.131  1.00  0.00     0.089 A 
HETATM   16  N   UNL     1      20.183  49.095  49.088  1.00  0.00    -0.259 NA
HETATM   17  C   UNL     1      20.913  50.156  49.496  1.00  0.00     0.117 A 
HETATM   18  C   UNL     1      20.360  51.344  49.942  1.00  0.00     0.019 A 
HETATM   19  C   UNL     1      18.975  51.455  49.977  1.00  0.00     0.004 A 
HETATM   20  C   UNL     1      18.193  50.377  49.568  1.00  0.00     0.034 A 
ENDBRANCH  10  15
ENDBRANCH   6   9
ENDBRANCH   2   5
BRANCH   1  21
HETATM   21  C   UNL     1      23.946  46.436  49.827  1.00  0.00     0.042 A 
HETATM   22  C   UNL     1      24.692  47.627  49.680  1.00  0.00    -0.035 A 
HETATM   23  C   UNL     1      24.181  48.803  48.889  1.00  0.00     0.050 C 
HETATM   24  C   UNL     1      25.961  47.726  50.276  1.00  0.00     0.010 A 
HETATM   25  C   UNL     1      26.489  46.668  51.016  1.00  0.00     0.017 A 
HETATM   26  C   UNL     1      25.746  45.497  51.181  1.00  0.00     0.034 A 
HETATM   27  C   UNL     1      24.485  45.383  50.576  1.00  0.00     0.047 A 
BRANCH  26  28
HETATM   28  C   UNL     1      26.272  44.333  51.951  1.00  0.00     0.252 C 
HETATM   29  N   UNL     1      27.628  44.345  52.228  1.00  0.00    -0.352 N 
HETATM   30  H   UNL     1      28.161  45.187  52.058  1.00  0.00     0.163 HD
HETATM   31  O   UNL     1      25.511  43.446  52.319  1.00  0.00    -0.268 OA
BRANCH  29  32
HETATM   32  C   UNL     1      28.247  43.313  52.997  1.00  0.00     0.084 A 
HETATM   33  C   UNL     1      29.710  43.008  52.843  1.00  0.00     0.027 A 
HETATM   34  C   UNL     1      29.211  43.660  54.098  1.00  0.00     0.027 A 
ENDBRANCH  29  32
ENDBRANCH  26  28
ENDBRANCH   1  21
TORSDOF 6
ENDMDL
MODEL 9
REMARK VINA RESULT:      -8.1     11.880     15.546
REMARK  6 active torsions:
REMARK  status: ('A' for Active; 'I' for Inactive)
REMARK    1  A    between atoms: C_3  and  N_4 
REMARK       I    between atoms: N_4  and  C_5 
REMARK    2  A    between atoms: C_5  and  C_6 
REMARK       I    between atoms: C_6  and  N_7 
REMARK    3  A    between atoms: N_7  and  C_8 
REMARK    4  A    between atoms: C_9  and  C_10 
REMARK    5  A    between atoms: C_23  and  C_24 
REMARK       I    between atoms: C_24  and  N_25 
REMARK    6  A    between atoms: N_25  and  C_26 
ROOT
HETATM    1  N   UNL     1      32.667  49.833  41.497  1.00  0.00    -0.318 N 
HETATM    2  C   UNL     1      32.540  48.497  41.173  1.00  0.00     0.314 C 
HETATM    3  O   UNL     1      33.347  47.589  41.302  1.00  0.00    -0.262 OA
HETATM    4  H   UNL     1      31.826  50.373  41.307  1.00  0.00     0.169 HD
ENDROOT
BRANCH   2   5
HETATM    5  C   UNL     1      31.152  48.186  40.575  1.00  0.00     0.314 C 
HETATM    6  N   UNL     1      30.126  48.615  41.378  1.00  0.00    -0.316 N 
HETATM    7  H   UNL     1      30.370  49.081  42.258  1.00  0.00     0.169 HD
HETATM    8  O   UNL     1      31.096  47.614  39.492  1.00  0.00    -0.262 OA
BRANCH   6   9
HETATM    9  C   UNL     1      28.774  48.489  41.123  1.00  0.00     0.085 A 
HETATM   10  C   UNL     1      27.921  49.486  40.545  1.00  0.00     0.133 A 
HETATM   11  N   UNL     1      26.660  49.020  40.438  1.00  0.00    -0.171 NA
HETATM   12  N   UNL     1      26.722  47.775  40.938  1.00  0.00    -0.286 N 
HETATM   13  H   UNL     1      25.870  47.225  40.960  1.00  0.00     0.188 HD
HETATM   14  C   UNL     1      27.963  47.409  41.358  1.00  0.00     0.141 A 
BRANCH  10  15
HETATM   15  C   UNL     1      28.314  50.836  40.111  1.00  0.00     0.089 A 
HETATM   16  N   UNL     1      28.829  51.650  41.076  1.00  0.00    -0.259 NA
HETATM   17  C   UNL     1      29.195  52.896  40.704  1.00  0.00     0.117 A 
HETATM   18  C   UNL     1      29.081  53.378  39.411  1.00  0.00     0.019 A 
HETATM   19  C   UNL     1      28.556  52.536  38.438  1.00  0.00     0.004 A 
HETATM   20  C   UNL     1      28.165  51.245  38.789  1.00  0.00     0.034 A 
ENDBRANCH  10  15
ENDBRANCH   6   9
ENDBRANCH   2   5
BRANCH   1  21
HETATM   21  C   UNL     1      33.786  50.504  42.030  1.00  0.00     0.042 A 
HETATM   22  C   UNL     1      33.619  51.272  43.204  1.00  0.00    -0.035 A 
HETATM   23  C   UNL     1      32.293  51.383  43.910  1.00  0.00     0.050 C 
HETATM   24  C   UNL     1      34.717  51.971  43.734  1.00  0.00     0.010 A 
HETATM   25  C   UNL     1      35.969  51.910  43.122  1.00  0.00     0.017 A 
HETATM   26  C   UNL     1      36.142  51.135  41.972  1.00  0.00     0.034 A 
HETATM   27  C   UNL     1      35.048  50.447  41.427  1.00  0.00     0.047 A 
BRANCH  26  28
HETATM   28  C   UNL     1      37.456  51.049  41.273  1.00  0.00     0.252 C 
HETATM   29  N   UNL     1      37.456  51.373  39.928  1.00  0.00    -0.352 N 
HETATM   30  H   UNL     1      36.637  51.805  39.522  1.00  0.00     0.163 HD
HETATM   31  O   UNL     1      38.462  50.726  41.894  1.00  0.00    -0.268 OA
BRANCH  29  32
HETATM   32  C   UNL     1      38.658  51.375  39.155  1.00  0.00     0.084 A 
HETATM   33  C   UNL     1      38.757  50.584  37.881  1.00  0.00     0.027 A 
HETATM   34  C   UNL     1      38.708  52.082  37.829  1.00  0.00     0.027 A 
ENDBRANCH  29  32
ENDBRANCH  26  28
ENDBRANCH   1  21
TORSDOF 6
ENDMDL
MODEL 10
REMARK VINA RESULT:      -8.1      3.710      6.211
REMARK  6 active torsions:
REMARK  status: ('A' for Active; 'I' for Inactive)
REMARK    1  A    between atoms: C_3  and  N_4 
REMARK       I    between atoms: N_4  and  C_5 
REMARK    2  A    between atoms: C_5  and  C_6 
REMARK       I    between atoms: C_6  and  N_7 
REMARK    3  A    between atoms: N_7  and  C_8 
REMARK    4  A    between atoms: C_9  and  C_10 
REMARK    5  A    between atoms: C_23  and  C_24 
REMARK       I    between atoms: C_24  and  N_25 
REMARK    6  A    between atoms: N_25  and  C_26 
ROOT
HETATM    1  N   UNL     1      21.133  48.408  48.724  1.00  0.00    -0.318 N 
HETATM    2  C   UNL     1      21.341  49.592  49.401  1.00  0.00     0.314 C 
HETATM    3  O   UNL     1      20.530  50.322  49.951  1.00  0.00    -0.262 OA
HETATM    4  H   UNL     1      21.994  47.986  48.381  1.00  0.00     0.169 HD
ENDROOT
BRANCH   2   5
HETATM    5  C   UNL     1      22.835  49.977  49.430  1.00  0.00     0.314 C 
HETATM    6  N   UNL     1      23.649  48.958  49.007  1.00  0.00    -0.316 N 
HETATM    7  H   UNL     1      23.205  48.078  48.724  1.00  0.00     0.169 HD
HETATM    8  O   UNL     1      23.141  51.102  49.809  1.00  0.00    -0.262 OA
BRANCH   6   9
HETATM    9  C   UNL     1      25.026  48.989  48.915  1.00  0.00     0.085 A 
HETATM   10  C   UNL     1      25.945  48.139  49.616  1.00  0.00     0.133 A 
HETATM   11  N   UNL     1      27.215  48.445  49.284  1.00  0.00    -0.171 NA
HETATM   12  N   UNL     1      27.095  49.457  48.408  1.00  0.00    -0.286 N 
HETATM   13  H   UNL     1      27.943  49.856  48.019  1.00  0.00     0.188 HD
HETATM   14  C   UNL     1      25.809  49.817  48.152  1.00  0.00     0.141 A 
BRANCH  10  15
HETATM   15  C   UNL     1      25.603  47.071  50.569  1.00  0.00     0.089 A 
HETATM   16  N   UNL     1      24.776  46.093  50.102  1.00  0.00    -0.259 NA
HETATM   17  C   UNL     1      24.445  45.102  50.958  1.00  0.00     0.117 A 
HETATM   18  C   UNL     1      24.901  45.027  52.262  1.00  0.00     0.019 A 
HETATM   19  C   UNL     1      25.747  46.029  52.723  1.00  0.00     0.004 A 
HETATM   20  C   UNL     1      26.104  47.069  51.867  1.00  0.00     0.034 A 
ENDBRANCH  10  15
ENDBRANCH   6   9
ENDBRANCH   2   5
BRANCH   1  21
HETATM   21  C   UNL     1      19.916  47.750  48.457  1.00  0.00     0.042 A 
HETATM   22  C   UNL     1      19.910  46.340  48.378  1.00  0.00    -0.035 A 
HETATM   23  C   UNL     1      21.157  45.518  48.583  1.00  0.00     0.050 C 
HETATM   24  C   UNL     1      18.711  45.668  48.085  1.00  0.00     0.010 A 
HETATM   25  C   UNL     1      17.526  46.375  47.881  1.00  0.00     0.017 A 
HETATM   26  C   UNL     1      17.523  47.769  47.979  1.00  0.00     0.034 A 
HETATM   27  C   UNL     1      18.719  48.448  48.255  1.00  0.00     0.047 A 
BRANCH  26  28
HETATM   28  C   UNL     1      16.286  48.570  47.756  1.00  0.00     0.252 C 
HETATM   29  N   UNL     1      16.470  49.878  47.344  1.00  0.00    -0.352 N 
HETATM   30  H   UNL     1      17.389  50.182  47.054  1.00  0.00     0.163 HD
HETATM   31  O   UNL     1      15.184  48.057  47.917  1.00  0.00    -0.268 OA
BRANCH  29  32
HETATM   32  C   UNL     1      15.366  50.737  47.052  1.00  0.00     0.084 A 
HETATM   33  C   UNL     1      15.572  52.208  46.824  1.00  0.00     0.027 A 
HETATM   34  C   UNL     1      15.199  51.318  45.675  1.00  0.00     0.027 A 
ENDBRANCH  29  32
ENDBRANCH  26  28
ENDBRANCH   1  21
TORSDOF 6
ENDMDL
