MODEL 1
REMARK VINA RESULT:      -9.9      0.000      0.000
REMARK  5 active torsions:
REMARK  status: ('A' for Active; 'I' for Inactive)
REMARK    1  A    between atoms: O_2  and  C_3 
REMARK    2  A    between atoms: C_6  and  C_7 
REMARK    3  A    between atoms: C_11  and  N_12 
REMARK       I    between atoms: N_15  and  C_16 
REMARK    4  A    between atoms: C_16  and  C_17 
REMARK    5  A    between atoms: C_17  and  C_18 
ROOT
HETATM    1  N   UNL     1      25.074  45.919  50.360  1.00  0.00    -0.363 N 
HETATM    2  C   UNL     1      24.497  45.221  49.193  1.00  0.00     0.144 C 
HETATM    3  C   UNL     1      23.135  45.824  48.821  1.00  0.00     0.145 C 
HETATM    4  N   UNL     1      23.170  47.284  48.668  1.00  0.00    -0.349 N 
HETATM    5  C   UNL     1      22.172  47.850  47.880  1.00  0.00     0.224 C 
HETATM    6  O   UNL     1      21.385  47.156  47.229  1.00  0.00    -0.273 OA
HETATM    7  C   UNL     1      23.840  47.994  49.766  1.00  0.00     0.145 C 
HETATM    8  C   UNL     1      25.198  47.373  50.163  1.00  0.00     0.144 C 
ENDROOT
BRANCH   1   9
HETATM    9  C   UNL     1      25.843  45.219  51.247  1.00  0.00     0.122 A 
HETATM   10  N   UNL     1      26.006  43.858  51.222  1.00  0.00    -0.262 N 
HETATM   11  N   UNL     1      26.863  43.380  52.138  1.00  0.00    -0.173 NA
HETATM   12  H   UNL     1      25.568  43.193  50.600  1.00  0.00     0.191 HD
HETATM   13  C   UNL     1      27.286  44.469  52.801  1.00  0.00     0.090 A 
HETATM   14  C   UNL     1      26.647  45.632  52.288  1.00  0.00     0.084 A 
BRANCH  13  15
HETATM   15  C   UNL     1      28.301  44.395  53.856  1.00  0.00    -0.005 A 
HETATM   16  C   UNL     1      29.226  43.339  53.881  1.00  0.00     0.016 A 
HETATM   17  C   UNL     1      30.244  43.292  54.841  1.00  0.00     0.037 A 
HETATM   18  C   UNL     1      30.353  44.302  55.796  1.00  0.00     0.068 A 
HETATM   19  C   UNL     1      29.417  45.337  55.800  1.00  0.00     0.037 A 
HETATM   20  C   UNL     1      28.402  45.388  54.838  1.00  0.00     0.016 A 
BRANCH  18  21
HETATM   21  O   UNL     1      31.308  44.387  56.771  1.00  0.00    -0.356 OA
HETATM   22  C   UNL     1      31.887  43.160  57.199  1.00  0.00     0.210 C 
ENDBRANCH  18  21
ENDBRANCH  13  15
ENDBRANCH   1   9
BRANCH   5  23
HETATM   23  C   UNL     1      22.071  49.366  47.803  1.00  0.00     0.141 C 
BRANCH  23  24
HETATM   24  C   UNL     1      20.904  49.968  48.552  1.00  0.00    -0.048 A 
HETATM   25  C   UNL     1      20.284  49.235  49.578  1.00  0.00     0.031 A 
HETATM   26  C   UNL     1      19.247  49.797  50.322  1.00  0.00     0.034 A 
HETATM   27 CL   UNL     1      18.505  48.881  51.577  1.00  0.00    -0.084 Cl
HETATM   28  C   UNL     1      18.814  51.095  50.066  1.00  0.00     0.024 A 
HETATM   29  C   UNL     1      19.430  51.839  49.060  1.00  0.00     0.002 A 
HETATM   30  C   UNL     1      20.473  51.283  48.315  1.00  0.00     0.007 A 
ENDBRANCH  23  24
ENDBRANCH   5  23
TORSDOF 5
ENDMDL
MODEL 2
REMARK VINA RESULT:      -9.7      3.477     10.652
REMARK  5 active torsions:
REMARK  status: ('A' for Active; 'I' for Inactive)
REMARK    1  A    between atoms: O_2  and  C_3 
REMARK    2  A    between atoms: C_6  and  C_7 
REMARK    3  A    between atoms: C_11  and  N_12 
REMARK       I    between atoms: N_15  and  C_16 
REMARK    4  A    between atoms: C_16  and  C_17 
REMARK    5  A    between atoms: C_17  and  C_18 
ROOT
HETATM    1  N   UNL     1      25.077  45.355  50.297  1.00  0.00    -0.363 N 
HETATM    2  C   UNL     1      26.147  44.678  49.535  1.00  0.00     0.144 C 
HETATM    3  C   UNL     1      27.437  44.605  50.363  1.00  0.00     0.145 C 
HETATM    4  N   UNL     1      27.234  44.043  51.704  1.00  0.00    -0.349 N 
HETATM    5  C   UNL     1      28.350  43.487  52.322  1.00  0.00     0.224 C 
HETATM    6  O   UNL     1      29.420  43.343  51.722  1.00  0.00    -0.273 OA
HETATM    7  C   UNL     1      26.102  44.624  52.441  1.00  0.00     0.145 C 
HETATM    8  C   UNL     1      24.809  44.726  51.602  1.00  0.00     0.144 C 
ENDROOT
BRANCH   1   9
HETATM    9  C   UNL     1      24.154  46.110  49.630  1.00  0.00     0.122 A 
HETATM   10  N   UNL     1      23.262  45.612  48.716  1.00  0.00    -0.262 N 
HETATM   11  N   UNL     1      22.392  46.513  48.233  1.00  0.00    -0.173 NA
HETATM   12  H   UNL     1      23.185  44.662  48.381  1.00  0.00     0.191 HD
HETATM   13  C   UNL     1      22.723  47.660  48.850  1.00  0.00     0.090 A 
HETATM   14  C   UNL     1      23.837  47.449  49.709  1.00  0.00     0.084 A 
BRANCH  13  15
HETATM   15  C   UNL     1      21.962  48.898  48.653  1.00  0.00    -0.005 A 
HETATM   16  C   UNL     1      20.743  48.882  47.958  1.00  0.00     0.016 A 
HETATM   17  C   UNL     1      19.973  50.044  47.822  1.00  0.00     0.037 A 
HETATM   18  C   UNL     1      20.411  51.244  48.380  1.00  0.00     0.068 A 
HETATM   19  C   UNL     1      21.639  51.276  49.043  1.00  0.00     0.037 A 
HETATM   20  C   UNL     1      22.407  50.116  49.183  1.00  0.00     0.016 A 
BRANCH  18  21
HETATM   21  O   UNL     1      19.749  52.439  48.338  1.00  0.00    -0.356 OA
HETATM   22  C   UNL     1      18.415  52.442  48.832  1.00  0.00     0.210 C 
ENDBRANCH  18  21
ENDBRANCH  13  15
ENDBRANCH   1   9
BRANCH   5  23
HETATM   23  C   UNL     1      28.234  43.022  53.765  1.00  0.00     0.141 C 
BRANCH  23  24
HETATM   24  C   UNL     1      29.008  43.848  54.768  1.00  0.00    -0.048 A 
HETATM   25  C   UNL     1      30.115  43.285  55.423  1.00  0.00     0.031 A 
HETATM   26  C   UNL     1      30.880  44.050  56.304  1.00  0.00     0.034 A 
HETATM   27 CL   UNL     1      32.236  43.340  57.093  1.00  0.00    -0.084 Cl
HETATM   28  C   UNL     1      30.564  45.385  56.542  1.00  0.00     0.024 A 
HETATM   29  C   UNL     1      29.476  45.960  55.886  1.00  0.00     0.002 A 
HETATM   30  C   UNL     1      28.709  45.200  54.999  1.00  0.00     0.007 A 
ENDBRANCH  23  24
ENDBRANCH   5  23
TORSDOF 5
ENDMDL
MODEL 3
REMARK VINA RESULT:      -9.4      1.385      1.556
REMARK  5 active torsions:
REMARK  status: ('A' for Active; 'I' for Inactive)
REMARK    1  A    between atoms: O_2  and  C_3 
REMARK    2  A    between atoms: C_6  and  C_7 
REMARK    3  A    between atoms: C_11  and  N_12 
REMARK       I    between atoms: N_15  and  C_16 
REMARK    4  A    between atoms: C_16  and  C_17 
REMARK    5  A    between atoms: C_17  and  C_18 
ROOT
HETATM    1  N   UNL     1      24.799  46.227  50.285  1.00  0.00    -0.363 N 
HETATM    2  C   UNL     1      24.039  45.537  49.223  1.00  0.00     0.144 C 
HETATM    3  C   UNL     1      22.742  46.294  48.906  1.00  0.00     0.145 C 
HETATM    4  N   UNL     1      22.958  47.721  48.633  1.00  0.00    -0.349 N 
HETATM    5  C   UNL     1      21.981  48.364  47.877  1.00  0.00     0.224 C 
HETATM    6  O   UNL     1      21.058  47.741  47.344  1.00  0.00    -0.273 OA
HETATM    7  C   UNL     1      23.806  48.407  49.618  1.00  0.00     0.145 C 
HETATM    8  C   UNL     1      25.098  47.633  49.962  1.00  0.00     0.144 C 
ENDROOT
BRANCH   1   9
HETATM    9  C   UNL     1      25.540  45.492  51.166  1.00  0.00     0.122 A 
HETATM   10  N   UNL     1      25.609  44.122  51.164  1.00  0.00    -0.262 N 
HETATM   11  N   UNL     1      26.454  43.601  52.067  1.00  0.00    -0.173 NA
HETATM   12  H   UNL     1      25.111  43.479  50.564  1.00  0.00     0.191 HD
HETATM   13  C   UNL     1      26.967  44.670  52.699  1.00  0.00     0.090 A 
HETATM   14  C   UNL     1      26.396  45.865  52.180  1.00  0.00     0.084 A 
BRANCH  13  15
HETATM   15  C   UNL     1      28.001  44.544  53.731  1.00  0.00    -0.005 A 
HETATM   16  C   UNL     1      28.918  43.483  53.693  1.00  0.00     0.016 A 
HETATM   17  C   UNL     1      29.954  43.388  54.632  1.00  0.00     0.037 A 
HETATM   18  C   UNL     1      30.087  44.355  55.628  1.00  0.00     0.068 A 
HETATM   19  C   UNL     1      29.157  45.395  55.694  1.00  0.00     0.037 A 
HETATM   20  C   UNL     1      28.126  45.493  54.754  1.00  0.00     0.016 A 
BRANCH  18  21
HETATM   21  O   UNL     1      31.060  44.392  56.588  1.00  0.00    -0.356 OA
HETATM   22  C   UNL     1      30.742  45.091  57.785  1.00  0.00     0.210 C 
ENDBRANCH  18  21
ENDBRANCH  13  15
ENDBRANCH   1   9
BRANCH   5  23
HETATM   23  C   UNL     1      22.076  49.870  47.686  1.00  0.00     0.141 C 
BRANCH  23  24
HETATM   24  C   UNL     1      20.873  50.652  48.164  1.00  0.00    -0.048 A 
HETATM   25  C   UNL     1      19.859  50.990  47.253  1.00  0.00     0.031 A 
HETATM   26  C   UNL     1      18.712  51.657  47.687  1.00  0.00     0.034 A 
HETATM   27 CL   UNL     1      17.480  52.057  46.554  1.00  0.00    -0.084 Cl
HETATM   28  C   UNL     1      18.552  51.990  49.029  1.00  0.00     0.024 A 
HETATM   29  C   UNL     1      19.545  51.648  49.946  1.00  0.00     0.002 A 
HETATM   30  C   UNL     1      20.693  50.976  49.518  1.00  0.00     0.007 A 
ENDBRANCH  23  24
ENDBRANCH   5  23
TORSDOF 5
ENDMDL
MODEL 4
REMARK VINA RESULT:      -9.0      1.686      2.372
REMARK  5 active torsions:
REMARK  status: ('A' for Active; 'I' for Inactive)
REMARK    1  A    between atoms: O_2  and  C_3 
REMARK    2  A    between atoms: C_6  and  C_7 
REMARK    3  A    between atoms: C_11  and  N_12 
REMARK       I    between atoms: N_15  and  C_16 
REMARK    4  A    between atoms: C_16  and  C_17 
REMARK    5  A    between atoms: C_17  and  C_18 
ROOT
HETATM    1  N   UNL     1      25.334  44.109  50.397  1.00  0.00    -0.363 N 
HETATM    2  C   UNL     1      24.496  43.032  49.830  1.00  0.00     0.144 C 
HETATM    3  C   UNL     1      23.044  43.503  49.669  1.00  0.00     0.145 C 
HETATM    4  N   UNL     1      22.924  44.775  48.946  1.00  0.00    -0.349 N 
HETATM    5  C   UNL     1      21.702  45.027  48.330  1.00  0.00     0.224 C 
HETATM    6  O   UNL     1      20.814  44.171  48.272  1.00  0.00    -0.273 OA
HETATM    7  C   UNL     1      23.830  45.831  49.420  1.00  0.00     0.145 C 
HETATM    8  C   UNL     1      25.287  45.354  49.610  1.00  0.00     0.144 C 
ENDROOT
BRANCH   1   9
HETATM    9  C   UNL     1      26.377  43.786  51.218  1.00  0.00     0.122 A 
HETATM   10  N   UNL     1      27.299  42.807  50.948  1.00  0.00    -0.262 N 
HETATM   11  N   UNL     1      28.285  42.703  51.852  1.00  0.00    -0.173 NA
HETATM   12  H   UNL     1      27.321  42.179  50.158  1.00  0.00     0.191 HD
HETATM   13  C   UNL     1      28.005  43.650  52.763  1.00  0.00     0.090 A 
HETATM   14  C   UNL     1      26.804  44.326  52.412  1.00  0.00     0.084 A 
BRANCH  13  15
HETATM   15  C   UNL     1      28.888  43.921  53.902  1.00  0.00    -0.005 A 
HETATM   16  C   UNL     1      28.668  45.037  54.724  1.00  0.00     0.016 A 
HETATM   17  C   UNL     1      29.461  45.270  55.855  1.00  0.00     0.037 A 
HETATM   18  C   UNL     1      30.491  44.389  56.182  1.00  0.00     0.068 A 
HETATM   19  C   UNL     1      30.739  43.296  55.350  1.00  0.00     0.037 A 
HETATM   20  C   UNL     1      29.945  43.060  54.223  1.00  0.00     0.016 A 
BRANCH  18  21
HETATM   21  O   UNL     1      31.321  44.490  57.264  1.00  0.00    -0.356 OA
HETATM   22  C   UNL     1      30.852  45.278  58.351  1.00  0.00     0.210 C 
ENDBRANCH  18  21
ENDBRANCH  13  15
ENDBRANCH   1   9
BRANCH   5  23
HETATM   23  C   UNL     1      21.471  46.388  47.691  1.00  0.00     0.141 C 
BRANCH  23  24
HETATM   24  C   UNL     1      20.640  47.348  48.513  1.00  0.00    -0.048 A 
HETATM   25  C   UNL     1      21.191  48.578  48.910  1.00  0.00     0.031 A 
HETATM   26  C   UNL     1      20.421  49.503  49.615  1.00  0.00     0.034 A 
HETATM   27 CL   UNL     1      21.115  51.006  50.087  1.00  0.00    -0.084 Cl
HETATM   28  C   UNL     1      19.093  49.227  49.929  1.00  0.00     0.024 A 
HETATM   29  C   UNL     1      18.530  48.016  49.529  1.00  0.00     0.002 A 
HETATM   30  C   UNL     1      19.296  47.087  48.818  1.00  0.00     0.007 A 
ENDBRANCH  23  24
ENDBRANCH   5  23
TORSDOF 5
ENDMDL
MODEL 5
REMARK VINA RESULT:      -8.9      1.829      2.237
REMARK  5 active torsions:
REMARK  status: ('A' for Active; 'I' for Inactive)
REMARK    1  A    between atoms: O_2  and  C_3 
REMARK    2  A    between atoms: C_6  and  C_7 
REMARK    3  A    between atoms: C_11  and  N_12 
REMARK       I    between atoms: N_15  and  C_16 
REMARK    4  A    between atoms: C_16  and  C_17 
REMARK    5  A    between atoms: C_17  and  C_18 
ROOT
HETATM    1  N   UNL     1      25.152  45.705  50.739  1.00  0.00    -0.363 N 
HETATM    2  C   UNL     1      25.069  47.178  50.823  1.00  0.00     0.144 C 
HETATM    3  C   UNL     1      24.592  47.770  49.490  1.00  0.00     0.145 C 
HETATM    4  N   UNL     1      23.363  47.145  48.985  1.00  0.00    -0.349 N 
HETATM    5  C   UNL     1      22.601  47.900  48.098  1.00  0.00     0.224 C 
HETATM    6  O   UNL     1      22.864  49.083  47.858  1.00  0.00    -0.273 OA
HETATM    7  C   UNL     1      23.379  45.676  48.996  1.00  0.00     0.145 C 
HETATM    8  C   UNL     1      23.886  45.076  50.326  1.00  0.00     0.144 C 
ENDROOT
BRANCH   1   9
HETATM    9  C   UNL     1      26.114  45.046  51.451  1.00  0.00     0.122 A 
HETATM   10  N   UNL     1      26.766  43.921  51.014  1.00  0.00    -0.262 N 
HETATM   11  N   UNL     1      27.728  43.476  51.836  1.00  0.00    -0.173 NA
HETATM   12  H   UNL     1      26.609  43.409  50.157  1.00  0.00     0.191 HD
HETATM   13  C   UNL     1      27.714  44.340  52.865  1.00  0.00     0.090 A 
HETATM   14  C   UNL     1      26.699  45.317  52.670  1.00  0.00     0.084 A 
BRANCH  13  15
HETATM   15  C   UNL     1      28.674  44.253  53.970  1.00  0.00    -0.005 A 
HETATM   16  C   UNL     1      29.611  43.209  54.018  1.00  0.00     0.016 A 
HETATM   17  C   UNL     1      30.578  43.151  55.030  1.00  0.00     0.037 A 
HETATM   18  C   UNL     1      30.623  44.139  56.013  1.00  0.00     0.068 A 
HETATM   19  C   UNL     1      29.673  45.161  55.993  1.00  0.00     0.037 A 
HETATM   20  C   UNL     1      28.710  45.222  54.980  1.00  0.00     0.016 A 
BRANCH  18  21
HETATM   21  O   UNL     1      31.524  44.211  57.039  1.00  0.00    -0.356 OA
HETATM   22  C   UNL     1      31.093  44.886  58.214  1.00  0.00     0.210 C 
ENDBRANCH  18  21
ENDBRANCH  13  15
ENDBRANCH   1   9
BRANCH   5  23
HETATM   23  C   UNL     1      21.397  47.252  47.431  1.00  0.00     0.141 C 
BRANCH  23  24
HETATM   24  C   UNL     1      20.056  47.820  47.841  1.00  0.00    -0.048 A 
HETATM   25  C   UNL     1      19.419  48.761  47.016  1.00  0.00     0.031 A 
HETATM   26  C   UNL     1      18.154  49.248  47.345  1.00  0.00     0.034 A 
HETATM   27 CL   UNL     1      17.390  50.398  46.316  1.00  0.00    -0.084 Cl
HETATM   28  C   UNL     1      17.500  48.806  48.492  1.00  0.00     0.024 A 
HETATM   29  C   UNL     1      18.116  47.861  49.312  1.00  0.00     0.002 A 
HETATM   30  C   UNL     1      19.380  47.366  48.984  1.00  0.00     0.007 A 
ENDBRANCH  23  24
ENDBRANCH   5  23
TORSDOF 5
ENDMDL
MODEL 6
REMARK VINA RESULT:      -8.5      3.746     10.959
REMARK  5 active torsions:
REMARK  status: ('A' for Active; 'I' for Inactive)
REMARK    1  A    between atoms: O_2  and  C_3 
REMARK    2  A    between atoms: C_6  and  C_7 
REMARK    3  A    between atoms: C_11  and  N_12 
REMARK       I    between atoms: N_15  and  C_16 
REMARK    4  A    between atoms: C_16  and  C_17 
REMARK    5  A    between atoms: C_17  and  C_18 
ROOT
HETATM    1  N   UNL     1      24.994  45.376  50.538  1.00  0.00    -0.363 N 
HETATM    2  C   UNL     1      24.531  44.269  51.400  1.00  0.00     0.144 C 
HETATM    3  C   UNL     1      25.592  43.162  51.475  1.00  0.00     0.145 C 
HETATM    4  N   UNL     1      26.925  43.660  51.833  1.00  0.00    -0.349 N 
HETATM    5  C   UNL     1      27.803  42.739  52.398  1.00  0.00     0.224 C 
HETATM    6  O   UNL     1      27.438  41.602  52.712  1.00  0.00    -0.273 OA
HETATM    7  C   UNL     1      27.363  44.834  51.064  1.00  0.00     0.145 C 
HETATM    8  C   UNL     1      26.287  45.939  50.962  1.00  0.00     0.144 C 
ENDROOT
BRANCH   1   9
HETATM    9  C   UNL     1      24.082  46.077  49.800  1.00  0.00     0.122 A 
HETATM   10  N   UNL     1      24.024  47.446  49.741  1.00  0.00    -0.262 N 
HETATM   11  N   UNL     1      23.100  47.931  48.898  1.00  0.00    -0.173 NA
HETATM   12  H   UNL     1      24.594  48.112  50.244  1.00  0.00     0.191 HD
HETATM   13  C   UNL     1      22.516  46.839  48.377  1.00  0.00     0.090 A 
HETATM   14  C   UNL     1      23.087  45.664  48.940  1.00  0.00     0.084 A 
BRANCH  13  15
HETATM   15  C   UNL     1      21.481  46.926  47.342  1.00  0.00    -0.005 A 
HETATM   16  C   UNL     1      21.461  46.014  46.277  1.00  0.00     0.016 A 
HETATM   17  C   UNL     1      20.438  46.042  45.319  1.00  0.00     0.037 A 
HETATM   18  C   UNL     1      19.419  46.988  45.411  1.00  0.00     0.068 A 
HETATM   19  C   UNL     1      19.451  47.923  46.448  1.00  0.00     0.037 A 
HETATM   20  C   UNL     1      20.468  47.892  47.407  1.00  0.00     0.016 A 
BRANCH  18  21
HETATM   21  O   UNL     1      18.357  47.111  44.559  1.00  0.00    -0.356 OA
HETATM   22  C   UNL     1      17.077  47.265  45.161  1.00  0.00     0.210 C 
ENDBRANCH  18  21
ENDBRANCH  13  15
ENDBRANCH   1   9
BRANCH   5  23
HETATM   23  C   UNL     1      29.242  43.160  52.655  1.00  0.00     0.141 C 
BRANCH  23  24
HETATM   24  C   UNL     1      29.494  43.780  54.011  1.00  0.00    -0.048 A 
HETATM   25  C   UNL     1      30.524  43.279  54.823  1.00  0.00     0.031 A 
HETATM   26  C   UNL     1      30.813  43.877  56.050  1.00  0.00     0.034 A 
HETATM   27 CL   UNL     1      32.084  43.248  57.026  1.00  0.00    -0.084 Cl
HETATM   28  C   UNL     1      30.090  44.984  56.486  1.00  0.00     0.024 A 
HETATM   29  C   UNL     1      29.074  45.501  55.683  1.00  0.00     0.002 A 
HETATM   30  C   UNL     1      28.784  44.908  54.451  1.00  0.00     0.007 A 
ENDBRANCH  23  24
ENDBRANCH   5  23
TORSDOF 5
ENDMDL
MODEL 7
REMARK VINA RESULT:      -8.4      3.965     11.211
REMARK  5 active torsions:
REMARK  status: ('A' for Active; 'I' for Inactive)
REMARK    1  A    between atoms: O_2  and  C_3 
REMARK    2  A    between atoms: C_6  and  C_7 
REMARK    3  A    between atoms: C_11  and  N_12 
REMARK       I    between atoms: N_15  and  C_16 
REMARK    4  A    between atoms: C_16  and  C_17 
REMARK    5  A    between atoms: C_17  and  C_18 
ROOT
HETATM    1  N   UNL     1      22.187  49.208  48.271  1.00  0.00    -0.363 N 
HETATM    2  C   UNL     1      23.402  49.955  47.885  1.00  0.00     0.144 C 
HETATM    3  C   UNL     1      24.541  49.687  48.878  1.00  0.00     0.145 C 
HETATM    4  N   UNL     1      24.785  48.257  49.108  1.00  0.00    -0.349 N 
HETATM    5  C   UNL     1      26.052  47.908  49.568  1.00  0.00     0.224 C 
HETATM    6  O   UNL     1      26.966  48.735  49.643  1.00  0.00    -0.273 OA
HETATM    7  C   UNL     1      23.575  47.471  49.384  1.00  0.00     0.145 C 
HETATM    8  C   UNL     1      22.416  47.759  48.404  1.00  0.00     0.144 C 
ENDROOT
BRANCH   1   9
HETATM    9  C   UNL     1      20.959  49.748  48.016  1.00  0.00     0.122 A 
HETATM   10  N   UNL     1      20.130  49.338  47.003  1.00  0.00    -0.262 N 
HETATM   11  N   UNL     1      18.936  49.951  46.973  1.00  0.00    -0.173 NA
HETATM   12  H   UNL     1      20.312  48.636  46.299  1.00  0.00     0.191 HD
HETATM   13  C   UNL     1      18.974  50.807  48.009  1.00  0.00     0.090 A 
HETATM   14  C   UNL     1      20.234  50.725  48.664  1.00  0.00     0.084 A 
BRANCH  13  15
HETATM   15  C   UNL     1      17.822  51.635  48.378  1.00  0.00    -0.005 A 
HETATM   16  C   UNL     1      16.687  51.684  47.555  1.00  0.00     0.016 A 
HETATM   17  C   UNL     1      15.553  52.417  47.929  1.00  0.00     0.037 A 
HETATM   18  C   UNL     1      15.537  53.115  49.136  1.00  0.00     0.068 A 
HETATM   19  C   UNL     1      16.675  53.100  49.944  1.00  0.00     0.037 A 
HETATM   20  C   UNL     1      17.806  52.365  49.574  1.00  0.00     0.016 A 
BRANCH  18  21
HETATM   21  O   UNL     1      14.493  53.847  49.627  1.00  0.00    -0.356 OA
HETATM   22  C   UNL     1      14.021  53.490  50.920  1.00  0.00     0.210 C 
ENDBRANCH  18  21
ENDBRANCH  13  15
ENDBRANCH   1   9
BRANCH   5  23
HETATM   23  C   UNL     1      26.317  46.463  49.960  1.00  0.00     0.141 C 
BRANCH  23  24
HETATM   24  C   UNL     1      26.123  46.154  51.428  1.00  0.00    -0.048 A 
HETATM   25  C   UNL     1      26.180  47.194  52.370  1.00  0.00     0.031 A 
HETATM   26  C   UNL     1      25.941  46.938  53.721  1.00  0.00     0.034 A 
HETATM   27 CL   UNL     1      26.012  48.230  54.857  1.00  0.00    -0.084 Cl
HETATM   28  C   UNL     1      25.637  45.652  54.156  1.00  0.00     0.024 A 
HETATM   29  C   UNL     1      25.564  44.612  53.229  1.00  0.00     0.002 A 
HETATM   30  C   UNL     1      25.797  44.864  51.874  1.00  0.00     0.007 A 
ENDBRANCH  23  24
ENDBRANCH   5  23
TORSDOF 5
ENDMDL
MODEL 8
REMARK VINA RESULT:      -8.2     18.539     20.704
REMARK  5 active torsions:
REMARK  status: ('A' for Active; 'I' for Inactive)
REMARK    1  A    between atoms: O_2  and  C_3 
REMARK    2  A    between atoms: C_6  and  C_7 
REMARK    3  A    between atoms: C_11  and  N_12 
REMARK       I    between atoms: N_15  and  C_16 
REMARK    4  A    between atoms: C_16  and  C_17 
REMARK    5  A    between atoms: C_17  and  C_18 
ROOT
HETATM    1  N   UNL     1      38.184  42.333  64.095  1.00  0.00    -0.363 N 
HETATM    2  C   UNL     1      36.936  42.430  64.880  1.00  0.00     0.144 C 
HETATM    3  C   UNL     1      36.832  43.799  65.566  1.00  0.00     0.145 C 
HETATM    4  N   UNL     1      37.028  44.925  64.644  1.00  0.00    -0.349 N 
HETATM    5  C   UNL     1      36.483  46.146  65.029  1.00  0.00     0.224 C 
HETATM    6  O   UNL     1      35.753  46.248  66.020  1.00  0.00    -0.273 OA
HETATM    7  C   UNL     1      38.205  44.798  63.772  1.00  0.00     0.145 C 
HETATM    8  C   UNL     1      38.329  43.412  63.102  1.00  0.00     0.144 C 
ENDROOT
BRANCH   1   9
HETATM    9  C   UNL     1      38.812  41.125  63.980  1.00  0.00     0.122 A 
HETATM   10  N   UNL     1      39.284  40.609  62.800  1.00  0.00    -0.262 N 
HETATM   11  N   UNL     1      39.935  39.441  62.921  1.00  0.00    -0.173 NA
HETATM   12  H   UNL     1      39.206  41.007  61.875  1.00  0.00     0.191 HD
HETATM   13  C   UNL     1      39.891  39.168  64.235  1.00  0.00     0.090 A 
HETATM   14  C   UNL     1      39.172  40.186  64.922  1.00  0.00     0.084 A 
BRANCH  13  15
HETATM   15  C   UNL     1      40.556  37.995  64.811  1.00  0.00    -0.005 A 
HETATM   16  C   UNL     1      41.764  37.527  64.273  1.00  0.00     0.016 A 
HETATM   17  C   UNL     1      42.447  36.450  64.855  1.00  0.00     0.037 A 
HETATM   18  C   UNL     1      41.929  35.823  65.987  1.00  0.00     0.068 A 
HETATM   19  C   UNL     1      40.709  36.260  66.508  1.00  0.00     0.037 A 
HETATM   20  C   UNL     1      40.030  37.338  65.930  1.00  0.00     0.016 A 
BRANCH  18  21
HETATM   21  O   UNL     1      42.501  34.781  66.661  1.00  0.00    -0.356 OA
HETATM   22  C   UNL     1      41.905  33.503  66.478  1.00  0.00     0.210 C 
ENDBRANCH  18  21
ENDBRANCH  13  15
ENDBRANCH   1   9
BRANCH   5  23
HETATM   23  C   UNL     1      36.778  47.378  64.188  1.00  0.00     0.141 C 
BRANCH  23  24
HETATM   24  C   UNL     1      37.761  48.351  64.800  1.00  0.00    -0.048 A 
HETATM   25  C   UNL     1      37.307  49.597  65.262  1.00  0.00     0.031 A 
HETATM   26  C   UNL     1      38.187  50.483  65.887  1.00  0.00     0.034 A 
HETATM   27 CL   UNL     1      37.607  52.004  66.448  1.00  0.00    -0.084 Cl
HETATM   28  C   UNL     1      39.524  50.143  66.070  1.00  0.00     0.024 A 
HETATM   29  C   UNL     1      39.984  48.902  65.629  1.00  0.00     0.002 A 
HETATM   30  C   UNL     1      39.106  48.010  65.007  1.00  0.00     0.007 A 
ENDBRANCH  23  24
ENDBRANCH   5  23
TORSDOF 5
ENDMDL
MODEL 9
REMARK VINA RESULT:      -8.2      3.788     11.234
REMARK  5 active torsions:
REMARK  status: ('A' for Active; 'I' for Inactive)
REMARK    1  A    between atoms: O_2  and  C_3 
REMARK    2  A    between atoms: C_6  and  C_7 
REMARK    3  A    between atoms: C_11  and  N_12 
REMARK       I    between atoms: N_15  and  C_16 
REMARK    4  A    between atoms: C_16  and  C_17 
REMARK    5  A    between atoms: C_17  and  C_18 
ROOT
HETATM    1  N   UNL     1      22.122  47.599  48.900  1.00  0.00    -0.363 N 
HETATM    2  C   UNL     1      23.253  48.502  48.602  1.00  0.00     0.144 C 
HETATM    3  C   UNL     1      24.470  48.149  49.468  1.00  0.00     0.145 C 
HETATM    4  N   UNL     1      24.830  46.726  49.409  1.00  0.00    -0.349 N 
HETATM    5  C   UNL     1      26.145  46.403  49.731  1.00  0.00     0.224 C 
HETATM    6  O   UNL     1      27.001  47.273  49.916  1.00  0.00    -0.273 OA
HETATM    7  C   UNL     1      23.698  45.805  49.592  1.00  0.00     0.145 C 
HETATM    8  C   UNL     1      22.461  46.175  48.743  1.00  0.00     0.144 C 
ENDROOT
BRANCH   1   9
HETATM    9  C   UNL     1      20.844  48.075  48.813  1.00  0.00     0.122 A 
HETATM   10  N   UNL     1      19.741  47.291  48.592  1.00  0.00    -0.262 N 
HETATM   11  N   UNL     1      18.572  47.950  48.617  1.00  0.00    -0.173 NA
HETATM   12  H   UNL     1      19.712  46.295  48.426  1.00  0.00     0.191 HD
HETATM   13  C   UNL     1      18.913  49.226  48.862  1.00  0.00     0.090 A 
HETATM   14  C   UNL     1      20.326  49.344  48.962  1.00  0.00     0.084 A 
BRANCH  13  15
HETATM   15  C   UNL     1      17.909  50.281  49.039  1.00  0.00    -0.005 A 
HETATM   16  C   UNL     1      18.210  51.433  49.781  1.00  0.00     0.016 A 
HETATM   17  C   UNL     1      17.286  52.479  49.901  1.00  0.00     0.037 A 
HETATM   18  C   UNL     1      16.042  52.388  49.278  1.00  0.00     0.068 A 
HETATM   19  C   UNL     1      15.721  51.231  48.567  1.00  0.00     0.037 A 
HETATM   20  C   UNL     1      16.645  50.188  48.443  1.00  0.00     0.016 A 
BRANCH  18  21
HETATM   21  O   UNL     1      15.062  53.341  49.298  1.00  0.00    -0.356 OA
HETATM   22  C   UNL     1      15.345  54.526  50.034  1.00  0.00     0.210 C 
ENDBRANCH  18  21
ENDBRANCH  13  15
ENDBRANCH   1   9
BRANCH   5  23
HETATM   23  C   UNL     1      26.536  44.936  49.828  1.00  0.00     0.141 C 
BRANCH  23  24
HETATM   24  C   UNL     1      26.918  44.467  51.214  1.00  0.00    -0.048 A 
HETATM   25  C   UNL     1      28.185  43.899  51.429  1.00  0.00     0.031 A 
HETATM   26  C   UNL     1      28.580  43.518  52.712  1.00  0.00     0.034 A 
HETATM   27 CL   UNL     1      30.139  42.828  52.953  1.00  0.00    -0.084 Cl
HETATM   28  C   UNL     1      27.730  43.701  53.799  1.00  0.00     0.024 A 
HETATM   29  C   UNL     1      26.475  44.276  53.601  1.00  0.00     0.002 A 
HETATM   30  C   UNL     1      26.077  44.665  52.319  1.00  0.00     0.007 A 
ENDBRANCH  23  24
ENDBRANCH   5  23
TORSDOF 5
ENDMDL
MODEL 10
REMARK VINA RESULT:      -8.1      4.080     11.166
REMARK  5 active torsions:
REMARK  status: ('A' for Active; 'I' for Inactive)
REMARK    1  A    between atoms: O_2  and  C_3 
REMARK    2  A    between atoms: C_6  and  C_7 
REMARK    3  A    between atoms: C_11  and  N_12 
REMARK       I    between atoms: N_15  and  C_16 
REMARK    4  A    between atoms: C_16  and  C_17 
REMARK    5  A    between atoms: C_17  and  C_18 
ROOT
HETATM    1  N   UNL     1      24.074  47.405  49.433  1.00  0.00    -0.363 N 
HETATM    2  C   UNL     1      25.519  47.557  49.698  1.00  0.00     0.144 C 
HETATM    3  C   UNL     1      25.950  46.670  50.874  1.00  0.00     0.145 C 
HETATM    4  N   UNL     1      25.530  45.271  50.728  1.00  0.00    -0.349 N 
HETATM    5  C   UNL     1      26.261  44.325  51.442  1.00  0.00     0.224 C 
HETATM    6  O   UNL     1      27.293  44.624  52.050  1.00  0.00    -0.273 OA
HETATM    7  C   UNL     1      24.120  45.096  50.354  1.00  0.00     0.145 C 
HETATM    8  C   UNL     1      23.674  46.008  49.189  1.00  0.00     0.144 C 
ENDROOT
BRANCH   1   9
HETATM    9  C   UNL     1      23.360  48.475  48.973  1.00  0.00     0.122 A 
HETATM   10  N   UNL     1      23.910  49.547  48.318  1.00  0.00    -0.262 N 
HETATM   11  N   UNL     1      23.021  50.455  47.885  1.00  0.00    -0.173 NA
HETATM   12  H   UNL     1      24.886  49.719  48.124  1.00  0.00     0.191 HD
HETATM   13  C   UNL     1      21.830  49.967  48.271  1.00  0.00     0.090 A 
HETATM   14  C   UNL     1      22.008  48.745  48.977  1.00  0.00     0.084 A 
BRANCH  13  15
HETATM   15  C   UNL     1      20.568  50.630  47.929  1.00  0.00    -0.005 A 
HETATM   16  C   UNL     1      19.742  50.113  46.919  1.00  0.00     0.016 A 
HETATM   17  C   UNL     1      18.502  50.696  46.629  1.00  0.00     0.037 A 
HETATM   18  C   UNL     1      18.067  51.810  47.346  1.00  0.00     0.068 A 
HETATM   19  C   UNL     1      18.898  52.352  48.329  1.00  0.00     0.037 A 
HETATM   20  C   UNL     1      20.134  51.768  48.622  1.00  0.00     0.016 A 
BRANCH  18  21
HETATM   21  O   UNL     1      16.876  52.459  47.178  1.00  0.00    -0.356 OA
HETATM   22  C   UNL     1      15.889  52.242  48.180  1.00  0.00     0.210 C 
ENDBRANCH  18  21
ENDBRANCH  13  15
ENDBRANCH   1   9
BRANCH   5  23
HETATM   23  C   UNL     1      25.783  42.881  51.444  1.00  0.00     0.141 C 
BRANCH  23  24
HETATM   24  C   UNL     1      26.691  41.906  50.728  1.00  0.00    -0.048 A 
HETATM   25  C   UNL     1      26.750  41.915  49.325  1.00  0.00     0.031 A 
HETATM   26  C   UNL     1      27.627  41.066  48.648  1.00  0.00     0.034 A 
HETATM   27 CL   UNL     1      27.685  41.098  46.928  1.00  0.00    -0.084 Cl
HETATM   28  C   UNL     1      28.463  40.204  49.352  1.00  0.00     0.024 A 
HETATM   29  C   UNL     1      28.425  40.195  50.746  1.00  0.00     0.002 A 
HETATM   30  C   UNL     1      27.552  41.046  51.429  1.00  0.00     0.007 A 
ENDBRANCH  23  24
ENDBRANCH   5  23
TORSDOF 5
ENDMDL
