MODEL 1
REMARK VINA RESULT:      -8.1      0.000      0.000
REMARK  5 active torsions:
REMARK  status: ('A' for Active; 'I' for Inactive)
REMARK    1  A    between atoms: C_2  and  O_3 
REMARK    2  A    between atoms: O_3  and  C_4 
REMARK    3  A    between atoms: C_4  and  C_5 
REMARK    4  A    between atoms: C_6  and  C_7 
REMARK    5  A    between atoms: C_22  and  N_23 
ROOT
HETATM    1  C   UNL     1      26.884  46.176  53.588  1.00  0.00     0.075 A 
HETATM    2  C   UNL     1      27.477  44.941  53.252  1.00  0.00     0.011 A 
HETATM    3  C   UNL     1      28.519  44.477  54.085  1.00  0.00     0.074 A 
HETATM    4  C   UNL     1      28.912  45.250  55.178  1.00  0.00     0.096 A 
HETATM    5  N   UNL     1      28.331  46.436  55.486  1.00  0.00    -0.250 NA
HETATM    6  C   UNL     1      27.332  46.896  54.696  1.00  0.00     0.048 A 
HETATM    7  C   UNL     1      26.742  48.220  55.089  1.00  0.00     0.071 C 
HETATM    8  C   UNL     1      29.243  43.193  53.880  1.00  0.00     0.260 A 
HETATM    9  O   UNL     1      28.969  42.395  52.996  1.00  0.00    -0.267 OA
HETATM   10  N   UNL     1      30.269  42.914  54.752  1.00  0.00    -0.312 N 
HETATM   11  C   UNL     1      30.663  43.669  55.823  1.00  0.00     0.102 A 
HETATM   12  C   UNL     1      30.003  44.822  56.067  1.00  0.00     0.098 A 
HETATM   13  C   UNL     1      30.361  45.685  57.265  1.00  0.00     0.025 C 
HETATM   14  N   UNL     1      30.657  46.402  58.260  1.00  0.00    -0.096 N 
HETATM   15  H   UNL     1      30.717  42.018  54.603  1.00  0.00     0.170 HD
ENDROOT
BRANCH  11  16
HETATM   16  N   UNL     1      31.699  43.173  56.576  1.00  0.00    -0.287 NA
HETATM   17  H   UNL     1      32.311  42.541  56.067  1.00  0.00     0.125 HD
HETATM   18  H   UNL     1      32.229  43.859  57.111  1.00  0.00     0.125 HD
ENDBRANCH  11  16
BRANCH   2  19
HETATM   19  C   UNL     1      27.002  44.197  52.073  1.00  0.00    -0.024 A 
HETATM   20  C   UNL     1      27.567  44.420  50.807  1.00  0.00     0.014 A 
HETATM   21  C   UNL     1      27.110  43.720  49.686  1.00  0.00     0.024 A 
HETATM   22  C   UNL     1      26.077  42.797  49.822  1.00  0.00     0.034 A 
HETATM   23 CL   UNL     1      25.513  41.937  48.442  1.00  0.00    -0.084 Cl
HETATM   24  C   UNL     1      25.495  42.568  51.066  1.00  0.00     0.024 A 
HETATM   25  C   UNL     1      25.956  43.264  52.187  1.00  0.00     0.014 A 
ENDBRANCH   2  19
BRANCH   1  26
HETATM   26  C   UNL     1      25.829  46.760  52.747  1.00  0.00     0.296 C 
HETATM   27  O   UNL     1      24.652  46.466  52.842  1.00  0.00    -0.259 OA
BRANCH  26  28
HETATM   28  O   UNL     1      26.418  47.606  51.872  1.00  0.00    -0.318 OA
BRANCH  28  29
HETATM   29  C   UNL     1      25.927  47.568  50.522  1.00  0.00     0.174 C 
HETATM   30  C   UNL     1      26.906  48.300  49.626  1.00  0.00     0.034 C 
ENDBRANCH  28  29
ENDBRANCH  26  28
ENDBRANCH   1  26
TORSDOF 5
ENDMDL
MODEL 2
REMARK VINA RESULT:      -7.6      4.142      6.652
REMARK  5 active torsions:
REMARK  status: ('A' for Active; 'I' for Inactive)
REMARK    1  A    between atoms: C_2  and  O_3 
REMARK    2  A    between atoms: O_3  and  C_4 
REMARK    3  A    between atoms: C_4  and  C_5 
REMARK    4  A    between atoms: C_6  and  C_7 
REMARK    5  A    between atoms: C_22  and  N_23 
ROOT
HETATM    1  C   UNL     1      25.739  42.223  50.552  1.00  0.00     0.075 A 
HETATM    2  C   UNL     1      26.856  41.971  51.377  1.00  0.00     0.011 A 
HETATM    3  C   UNL     1      27.632  40.828  51.081  1.00  0.00     0.074 A 
HETATM    4  C   UNL     1      27.262  40.012  50.011  1.00  0.00     0.096 A 
HETATM    5  N   UNL     1      26.184  40.270  49.229  1.00  0.00    -0.250 NA
HETATM    6  C   UNL     1      25.429  41.361  49.501  1.00  0.00     0.048 A 
HETATM    7  C   UNL     1      24.245  41.579  48.602  1.00  0.00     0.071 C 
HETATM    8  C   UNL     1      28.844  40.423  51.842  1.00  0.00     0.260 A 
HETATM    9  O   UNL     1      29.312  41.071  52.768  1.00  0.00    -0.267 OA
HETATM   10  N   UNL     1      29.455  39.252  51.457  1.00  0.00    -0.312 N 
HETATM   11  C   UNL     1      29.096  38.445  50.412  1.00  0.00     0.102 A 
HETATM   12  C   UNL     1      28.024  38.801  49.672  1.00  0.00     0.098 A 
HETATM   13  C   UNL     1      27.598  37.973  48.470  1.00  0.00     0.025 C 
HETATM   14  N   UNL     1      27.244  37.287  47.474  1.00  0.00    -0.096 N 
HETATM   15  H   UNL     1      30.296  39.026  51.974  1.00  0.00     0.170 HD
ENDROOT
BRANCH  11  16
HETATM   16  N   UNL     1      29.877  37.337  50.195  1.00  0.00    -0.287 NA
HETATM   17  H   UNL     1      30.785  37.379  50.652  1.00  0.00     0.125 HD
HETATM   18  H   UNL     1      29.424  36.436  50.343  1.00  0.00     0.125 HD
ENDBRANCH  11  16
BRANCH   2  19
HETATM   19  C   UNL     1      27.166  42.884  52.490  1.00  0.00    -0.024 A 
HETATM   20  C   UNL     1      26.526  42.744  53.733  1.00  0.00     0.014 A 
HETATM   21  C   UNL     1      26.814  43.616  54.787  1.00  0.00     0.024 A 
HETATM   22  C   UNL     1      27.737  44.641  54.604  1.00  0.00     0.034 A 
HETATM   23 CL   UNL     1      28.091  45.716  55.900  1.00  0.00    -0.084 Cl
HETATM   24  C   UNL     1      28.375  44.805  53.377  1.00  0.00     0.024 A 
HETATM   25  C   UNL     1      28.091  43.929  52.325  1.00  0.00     0.014 A 
ENDBRANCH   2  19
BRANCH   1  26
HETATM   26  C   UNL     1      24.846  43.360  50.819  1.00  0.00     0.296 C 
HETATM   27  O   UNL     1      23.822  43.275  51.471  1.00  0.00    -0.259 OA
BRANCH  26  28
HETATM   28  O   UNL     1      25.352  44.441  50.184  1.00  0.00    -0.318 OA
BRANCH  28  29
HETATM   29  C   UNL     1      24.713  45.698  50.460  1.00  0.00     0.174 C 
HETATM   30  C   UNL     1      25.411  46.352  51.636  1.00  0.00     0.034 C 
ENDBRANCH  28  29
ENDBRANCH  26  28
ENDBRANCH   1  26
TORSDOF 5
ENDMDL
MODEL 3
REMARK VINA RESULT:      -7.6      4.083      7.308
REMARK  5 active torsions:
REMARK  status: ('A' for Active; 'I' for Inactive)
REMARK    1  A    between atoms: C_2  and  O_3 
REMARK    2  A    between atoms: O_3  and  C_4 
REMARK    3  A    between atoms: C_4  and  C_5 
REMARK    4  A    between atoms: C_6  and  C_7 
REMARK    5  A    between atoms: C_22  and  N_23 
ROOT
HETATM    1  C   UNL     1      25.897  42.584  50.181  1.00  0.00     0.075 A 
HETATM    2  C   UNL     1      26.234  43.669  51.018  1.00  0.00     0.011 A 
HETATM    3  C   UNL     1      25.573  44.895  50.785  1.00  0.00     0.074 A 
HETATM    4  C   UNL     1      24.638  44.979  49.752  1.00  0.00     0.096 A 
HETATM    5  N   UNL     1      24.327  43.926  48.955  1.00  0.00    -0.250 NA
HETATM    6  C   UNL     1      24.953  42.744  49.166  1.00  0.00     0.048 A 
HETATM    7  C   UNL     1      24.568  41.625  48.241  1.00  0.00     0.071 C 
HETATM    8  C   UNL     1      25.801  46.132  51.580  1.00  0.00     0.260 A 
HETATM    9  O   UNL     1      26.551  46.188  52.544  1.00  0.00    -0.267 OA
HETATM   10  N   UNL     1      25.114  47.257  51.188  1.00  0.00    -0.312 N 
HETATM   11  C   UNL     1      24.201  47.348  50.174  1.00  0.00     0.102 A 
HETATM   12  C   UNL     1      23.935  46.236  49.455  1.00  0.00     0.098 A 
HETATM   13  C   UNL     1      22.898  46.257  48.343  1.00  0.00     0.025 C 
HETATM   14  N   UNL     1      22.038  46.274  47.422  1.00  0.00    -0.096 N 
HETATM   15  H   UNL     1      25.269  48.070  51.772  1.00  0.00     0.170 HD
ENDROOT
BRANCH  11  16
HETATM   16  N   UNL     1      23.614  48.575  49.984  1.00  0.00    -0.287 NA
HETATM   17  H   UNL     1      23.133  48.666  49.093  1.00  0.00     0.125 HD
HETATM   18  H   UNL     1      23.045  48.921  50.755  1.00  0.00     0.125 HD
ENDBRANCH  11  16
BRANCH   2  19
HETATM   19  C   UNL     1      27.239  43.490  52.080  1.00  0.00    -0.024 A 
HETATM   20  C   UNL     1      28.608  43.629  51.802  1.00  0.00     0.014 A 
HETATM   21  C   UNL     1      29.563  43.451  52.808  1.00  0.00     0.024 A 
HETATM   22  C   UNL     1      29.156  43.122  54.097  1.00  0.00     0.034 A 
HETATM   23 CL   UNL     1      30.331  42.900  55.335  1.00  0.00    -0.084 Cl
HETATM   24  C   UNL     1      27.804  42.969  54.392  1.00  0.00     0.024 A 
HETATM   25  C   UNL     1      26.849  43.152  53.387  1.00  0.00     0.014 A 
ENDBRANCH   2  19
BRANCH   1  26
HETATM   26  C   UNL     1      26.572  41.286  50.318  1.00  0.00     0.296 C 
HETATM   27  O   UNL     1      26.155  40.380  51.014  1.00  0.00    -0.259 OA
BRANCH  26  28
HETATM   28  O   UNL     1      27.709  41.333  49.587  1.00  0.00    -0.318 OA
BRANCH  28  29
HETATM   29  C   UNL     1      27.940  40.226  48.701  1.00  0.00     0.174 C 
HETATM   30  C   UNL     1      28.137  40.759  47.296  1.00  0.00     0.034 C 
ENDBRANCH  28  29
ENDBRANCH  26  28
ENDBRANCH   1  26
TORSDOF 5
ENDMDL
MODEL 4
REMARK VINA RESULT:      -7.5      2.299      4.498
REMARK  5 active torsions:
REMARK  status: ('A' for Active; 'I' for Inactive)
REMARK    1  A    between atoms: C_2  and  O_3 
REMARK    2  A    between atoms: O_3  and  C_4 
REMARK    3  A    between atoms: C_4  and  C_5 
REMARK    4  A    between atoms: C_6  and  C_7 
REMARK    5  A    between atoms: C_22  and  N_23 
ROOT
HETATM    1  C   UNL     1      27.571  42.336  51.717  1.00  0.00     0.075 A 
HETATM    2  C   UNL     1      27.064  43.622  52.002  1.00  0.00     0.011 A 
HETATM    3  C   UNL     1      27.626  44.308  53.101  1.00  0.00     0.074 A 
HETATM    4  C   UNL     1      28.633  43.693  53.846  1.00  0.00     0.096 A 
HETATM    5  N   UNL     1      29.108  42.455  53.558  1.00  0.00    -0.250 NA
HETATM    6  C   UNL     1      28.579  41.783  52.508  1.00  0.00     0.048 A 
HETATM    7  C   UNL     1      29.143  40.415  52.254  1.00  0.00     0.071 C 
HETATM    8  C   UNL     1      27.217  45.672  53.533  1.00  0.00     0.260 A 
HETATM    9  O   UNL     1      26.385  46.348  52.943  1.00  0.00    -0.267 OA
HETATM   10  N   UNL     1      27.827  46.177  54.657  1.00  0.00    -0.312 N 
HETATM   11  C   UNL     1      28.811  45.577  55.394  1.00  0.00     0.102 A 
HETATM   12  C   UNL     1      29.239  44.356  55.011  1.00  0.00     0.098 A 
HETATM   13  C   UNL     1      30.361  43.653  55.759  1.00  0.00     0.025 C 
HETATM   14  N   UNL     1      31.291  43.071  56.379  1.00  0.00    -0.096 N 
HETATM   15  H   UNL     1      27.548  47.119  54.901  1.00  0.00     0.170 HD
ENDROOT
BRANCH  11  16
HETATM   16  N   UNL     1      29.295  46.288  56.465  1.00  0.00    -0.287 NA
HETATM   17  H   UNL     1      30.184  46.748  56.285  1.00  0.00     0.125 HD
HETATM   18  H   UNL     1      28.633  46.916  56.920  1.00  0.00     0.125 HD
ENDBRANCH  11  16
BRANCH   2  19
HETATM   19  C   UNL     1      25.993  44.190  51.166  1.00  0.00    -0.024 A 
HETATM   20  C   UNL     1      26.298  45.031  50.083  1.00  0.00     0.014 A 
HETATM   21  C   UNL     1      25.282  45.577  49.294  1.00  0.00     0.024 A 
HETATM   22  C   UNL     1      23.951  45.294  49.587  1.00  0.00     0.034 A 
HETATM   23 CL   UNL     1      22.699  45.968  48.618  1.00  0.00    -0.084 Cl
HETATM   24  C   UNL     1      23.626  44.471  50.663  1.00  0.00     0.024 A 
HETATM   25  C   UNL     1      24.643  43.921  51.448  1.00  0.00     0.014 A 
ENDBRANCH   2  19
BRANCH   1  26
HETATM   26  C   UNL     1      27.009  41.529  50.624  1.00  0.00     0.296 C 
HETATM   27  O   UNL     1      26.136  40.697  50.781  1.00  0.00    -0.259 OA
BRANCH  26  28
HETATM   28  O   UNL     1      27.665  41.858  49.489  1.00  0.00    -0.318 OA
BRANCH  28  29
HETATM   29  C   UNL     1      27.599  40.903  48.417  1.00  0.00     0.174 C 
HETATM   30  C   UNL     1      28.788  39.969  48.523  1.00  0.00     0.034 C 
ENDBRANCH  28  29
ENDBRANCH  26  28
ENDBRANCH   1  26
TORSDOF 5
ENDMDL
MODEL 5
REMARK VINA RESULT:      -7.3      2.243      3.506
REMARK  5 active torsions:
REMARK  status: ('A' for Active; 'I' for Inactive)
REMARK    1  A    between atoms: C_2  and  O_3 
REMARK    2  A    between atoms: O_3  and  C_4 
REMARK    3  A    between atoms: C_4  and  C_5 
REMARK    4  A    between atoms: C_6  and  C_7 
REMARK    5  A    between atoms: C_22  and  N_23 
ROOT
HETATM    1  C   UNL     1      26.066  44.062  51.251  1.00  0.00     0.075 A 
HETATM    2  C   UNL     1      26.955  42.972  51.373  1.00  0.00     0.011 A 
HETATM    3  C   UNL     1      27.900  43.023  52.421  1.00  0.00     0.074 A 
HETATM    4  C   UNL     1      27.916  44.131  53.271  1.00  0.00     0.096 A 
HETATM    5  N   UNL     1      27.054  45.170  53.138  1.00  0.00    -0.250 NA
HETATM    6  C   UNL     1      26.143  45.137  52.136  1.00  0.00     0.048 A 
HETATM    7  C   UNL     1      25.229  46.325  52.042  1.00  0.00     0.071 C 
HETATM    8  C   UNL     1      28.900  41.957  52.697  1.00  0.00     0.260 A 
HETATM    9  O   UNL     1      28.965  40.911  52.068  1.00  0.00    -0.267 OA
HETATM   10  N   UNL     1      29.784  42.187  53.726  1.00  0.00    -0.312 N 
HETATM   11  C   UNL     1      29.808  43.272  54.558  1.00  0.00     0.102 A 
HETATM   12  C   UNL     1      28.890  44.243  54.367  1.00  0.00     0.098 A 
HETATM   13  C   UNL     1      28.834  45.453  55.284  1.00  0.00     0.025 C 
HETATM   14  N   UNL     1      28.786  46.458  56.044  1.00  0.00    -0.096 N 
HETATM   15  H   UNL     1      30.427  41.426  53.906  1.00  0.00     0.170 HD
ENDROOT
BRANCH  11  16
HETATM   16  N   UNL     1      30.768  43.270  55.540  1.00  0.00    -0.287 NA
HETATM   17  H   UNL     1      30.454  42.871  56.421  1.00  0.00     0.125 HD
HETATM   18  H   UNL     1      31.682  42.910  55.270  1.00  0.00     0.125 HD
ENDBRANCH  11  16
BRANCH   2  19
HETATM   19  C   UNL     1      26.870  41.848  50.425  1.00  0.00    -0.024 A 
HETATM   20  C   UNL     1      26.203  40.663  50.776  1.00  0.00     0.014 A 
HETATM   21  C   UNL     1      26.129  39.592  49.880  1.00  0.00     0.024 A 
HETATM   22  C   UNL     1      26.731  39.694  48.630  1.00  0.00     0.034 A 
HETATM   23 CL   UNL     1      26.643  38.376  47.527  1.00  0.00    -0.084 Cl
HETATM   24  C   UNL     1      27.406  40.856  48.265  1.00  0.00     0.024 A 
HETATM   25  C   UNL     1      27.475  41.929  49.159  1.00  0.00     0.014 A 
ENDBRANCH   2  19
BRANCH   1  26
HETATM   26  C   UNL     1      25.086  44.117  50.158  1.00  0.00     0.296 C 
HETATM   27  O   UNL     1      25.281  44.695  49.105  1.00  0.00    -0.259 OA
BRANCH  26  28
HETATM   28  O   UNL     1      23.973  43.468  50.567  1.00  0.00    -0.318 OA
BRANCH  28  29
HETATM   29  C   UNL     1      22.965  43.241  49.569  1.00  0.00     0.174 C 
HETATM   30  C   UNL     1      23.234  41.910  48.897  1.00  0.00     0.034 C 
ENDBRANCH  28  29
ENDBRANCH  26  28
ENDBRANCH   1  26
TORSDOF 5
ENDMDL
MODEL 6
REMARK VINA RESULT:      -7.2      4.536      7.071
REMARK  5 active torsions:
REMARK  status: ('A' for Active; 'I' for Inactive)
REMARK    1  A    between atoms: C_2  and  O_3 
REMARK    2  A    between atoms: O_3  and  C_4 
REMARK    3  A    between atoms: C_4  and  C_5 
REMARK    4  A    between atoms: C_6  and  C_7 
REMARK    5  A    between atoms: C_22  and  N_23 
ROOT
HETATM    1  C   UNL     1      25.108  45.964  50.792  1.00  0.00     0.075 A 
HETATM    2  C   UNL     1      25.390  44.586  50.909  1.00  0.00     0.011 A 
HETATM    3  C   UNL     1      24.640  43.702  50.104  1.00  0.00     0.074 A 
HETATM    4  C   UNL     1      23.666  44.219  49.248  1.00  0.00     0.096 A 
HETATM    5  N   UNL     1      23.407  45.547  49.149  1.00  0.00    -0.250 NA
HETATM    6  C   UNL     1      24.117  46.408  49.916  1.00  0.00     0.048 A 
HETATM    7  C   UNL     1      23.770  47.861  49.763  1.00  0.00     0.071 C 
HETATM    8  C   UNL     1      24.817  42.225  50.096  1.00  0.00     0.260 A 
HETATM    9  O   UNL     1      25.666  41.641  50.754  1.00  0.00    -0.267 OA
HETATM   10  N   UNL     1      23.968  41.502  49.291  1.00  0.00    -0.312 N 
HETATM   11  C   UNL     1      23.008  42.003  48.454  1.00  0.00     0.102 A 
HETATM   12  C   UNL     1      22.844  43.342  48.401  1.00  0.00     0.098 A 
HETATM   13  C   UNL     1      21.827  43.966  47.460  1.00  0.00     0.025 C 
HETATM   14  N   UNL     1      20.983  44.483  46.679  1.00  0.00    -0.096 N 
HETATM   15  H   UNL     1      24.139  40.504  49.286  1.00  0.00     0.170 HD
ENDROOT
BRANCH  11  16
HETATM   16  N   UNL     1      22.297  41.087  47.718  1.00  0.00    -0.287 NA
HETATM   17  H   UNL     1      22.836  40.268  47.450  1.00  0.00     0.125 HD
HETATM   18  H   UNL     1      21.383  40.829  48.090  1.00  0.00     0.125 HD
ENDBRANCH  11  16
BRANCH   2  19
HETATM   19  C   UNL     1      26.432  44.129  51.845  1.00  0.00    -0.024 A 
HETATM   20  C   UNL     1      26.103  43.757  53.159  1.00  0.00     0.014 A 
HETATM   21  C   UNL     1      27.093  43.331  54.050  1.00  0.00     0.024 A 
HETATM   22  C   UNL     1      28.421  43.284  53.637  1.00  0.00     0.034 A 
HETATM   23 CL   UNL     1      29.640  42.763  54.734  1.00  0.00    -0.084 Cl
HETATM   24  C   UNL     1      28.771  43.659  52.342  1.00  0.00     0.024 A 
HETATM   25  C   UNL     1      27.780  44.079  51.450  1.00  0.00     0.014 A 
ENDBRANCH   2  19
BRANCH   1  26
HETATM   26  C   UNL     1      25.804  46.951  51.629  1.00  0.00     0.296 C 
HETATM   27  O   UNL     1      26.710  47.656  51.228  1.00  0.00    -0.259 OA
BRANCH  26  28
HETATM   28  O   UNL     1      25.282  46.877  52.875  1.00  0.00    -0.318 OA
BRANCH  28  29
HETATM   29  C   UNL     1      25.904  47.701  53.874  1.00  0.00     0.174 C 
HETATM   30  C   UNL     1      27.066  46.941  54.480  1.00  0.00     0.034 C 
ENDBRANCH  28  29
ENDBRANCH  26  28
ENDBRANCH   1  26
TORSDOF 5
ENDMDL
MODEL 7
REMARK VINA RESULT:      -7.1      3.726      6.100
REMARK  5 active torsions:
REMARK  status: ('A' for Active; 'I' for Inactive)
REMARK    1  A    between atoms: C_2  and  O_3 
REMARK    2  A    between atoms: O_3  and  C_4 
REMARK    3  A    between atoms: C_4  and  C_5 
REMARK    4  A    between atoms: C_6  and  C_7 
REMARK    5  A    between atoms: C_22  and  N_23 
ROOT
HETATM    1  C   UNL     1      27.488  42.760  52.589  1.00  0.00     0.075 A 
HETATM    2  C   UNL     1      27.015  42.821  51.261  1.00  0.00     0.011 A 
HETATM    3  C   UNL     1      27.374  41.761  50.399  1.00  0.00     0.074 A 
HETATM    4  C   UNL     1      28.171  40.724  50.888  1.00  0.00     0.096 A 
HETATM    5  N   UNL     1      28.617  40.683  52.169  1.00  0.00    -0.250 NA
HETATM    6  C   UNL     1      28.282  41.692  53.007  1.00  0.00     0.048 A 
HETATM    7  C   UNL     1      28.820  41.588  54.406  1.00  0.00     0.071 C 
HETATM    8  C   UNL     1      26.953  41.663  48.975  1.00  0.00     0.260 A 
HETATM    9  O   UNL     1      26.214  42.471  48.430  1.00  0.00    -0.267 OA
HETATM   10  N   UNL     1      27.434  40.592  48.258  1.00  0.00    -0.312 N 
HETATM   11  C   UNL     1      28.218  39.576  48.730  1.00  0.00     0.102 A 
HETATM   12  C   UNL     1      28.588  39.607  50.028  1.00  0.00     0.098 A 
HETATM   13  C   UNL     1      29.422  38.486  50.628  1.00  0.00     0.025 C 
HETATM   14  N   UNL     1      30.113  37.556  51.125  1.00  0.00    -0.096 N 
HETATM   15  H   UNL     1      27.100  40.541  47.304  1.00  0.00     0.170 HD
ENDROOT
BRANCH  11  16
HETATM   16  N   UNL     1      28.552  38.591  47.833  1.00  0.00    -0.287 NA
HETATM   17  H   UNL     1      27.849  37.863  47.742  1.00  0.00     0.125 HD
HETATM   18  H   UNL     1      28.883  38.910  46.924  1.00  0.00     0.125 HD
ENDBRANCH  11  16
BRANCH   2  19
HETATM   19  C   UNL     1      26.186  43.958  50.830  1.00  0.00    -0.024 A 
HETATM   20  C   UNL     1      24.787  43.915  50.955  1.00  0.00     0.014 A 
HETATM   21  C   UNL     1      23.998  44.991  50.538  1.00  0.00     0.024 A 
HETATM   22  C   UNL     1      24.601  46.115  49.982  1.00  0.00     0.034 A 
HETATM   23 CL   UNL     1      23.631  47.440  49.465  1.00  0.00    -0.084 Cl
HETATM   24  C   UNL     1      25.985  46.175  49.838  1.00  0.00     0.024 A 
HETATM   25  C   UNL     1      26.774  45.101  50.260  1.00  0.00     0.014 A 
ENDBRANCH   2  19
BRANCH   1  26
HETATM   26  C   UNL     1      27.207  43.845  53.540  1.00  0.00     0.296 C 
HETATM   27  O   UNL     1      26.165  43.943  54.162  1.00  0.00    -0.259 OA
BRANCH  26  28
HETATM   28  O   UNL     1      28.269  44.681  53.539  1.00  0.00    -0.318 OA
BRANCH  28  29
HETATM   29  C   UNL     1      28.415  45.526  54.692  1.00  0.00     0.174 C 
HETATM   30  C   UNL     1      29.572  45.015  55.527  1.00  0.00     0.034 C 
ENDBRANCH  28  29
ENDBRANCH  26  28
ENDBRANCH   1  26
TORSDOF 5
ENDMDL
MODEL 8
REMARK VINA RESULT:      -6.9      2.220      4.793
REMARK  5 active torsions:
REMARK  status: ('A' for Active; 'I' for Inactive)
REMARK    1  A    between atoms: C_2  and  O_3 
REMARK    2  A    between atoms: O_3  and  C_4 
REMARK    3  A    between atoms: C_4  and  C_5 
REMARK    4  A    between atoms: C_6  and  C_7 
REMARK    5  A    between atoms: C_22  and  N_23 
ROOT
HETATM    1  C   UNL     1      27.469  43.254  51.689  1.00  0.00     0.075 A 
HETATM    2  C   UNL     1      26.494  44.273  51.735  1.00  0.00     0.011 A 
HETATM    3  C   UNL     1      26.625  45.246  52.751  1.00  0.00     0.074 A 
HETATM    4  C   UNL     1      27.688  45.152  53.651  1.00  0.00     0.096 A 
HETATM    5  N   UNL     1      28.615  44.164  53.592  1.00  0.00    -0.250 NA
HETATM    6  C   UNL     1      28.503  43.223  52.624  1.00  0.00     0.048 A 
HETATM    7  C   UNL     1      29.557  42.154  52.625  1.00  0.00     0.071 C 
HETATM    8  C   UNL     1      25.694  46.391  52.936  1.00  0.00     0.260 A 
HETATM    9  O   UNL     1      24.752  46.625  52.191  1.00  0.00    -0.267 OA
HETATM   10  N   UNL     1      25.932  47.218  54.008  1.00  0.00    -0.312 N 
HETATM   11  C   UNL     1      26.969  47.130  54.896  1.00  0.00     0.102 A 
HETATM   12  C   UNL     1      27.860  46.128  54.738  1.00  0.00     0.098 A 
HETATM   13  C   UNL     1      29.059  45.998  55.663  1.00  0.00     0.025 C 
HETATM   14  N   UNL     1      30.054  45.891  56.430  1.00  0.00    -0.096 N 
HETATM   15  H   UNL     1      25.299  48.005  54.082  1.00  0.00     0.170 HD
ENDROOT
BRANCH  11  16
HETATM   16  N   UNL     1      27.022  48.091  55.875  1.00  0.00    -0.287 NA
HETATM   17  H   UNL     1      27.189  47.720  56.807  1.00  0.00     0.125 HD
HETATM   18  H   UNL     1      27.618  48.895  55.679  1.00  0.00     0.125 HD
ENDBRANCH  11  16
BRANCH   2  19
HETATM   19  C   UNL     1      25.402  44.288  50.748  1.00  0.00    -0.024 A 
HETATM   20  C   UNL     1      24.213  43.579  50.982  1.00  0.00     0.014 A 
HETATM   21  C   UNL     1      23.179  43.586  50.041  1.00  0.00     0.024 A 
HETATM   22  C   UNL     1      23.330  44.294  48.853  1.00  0.00     0.034 A 
HETATM   23 CL   UNL     1      22.059  44.301  47.693  1.00  0.00    -0.084 Cl
HETATM   24  C   UNL     1      24.505  44.995  48.595  1.00  0.00     0.024 A 
HETATM   25  C   UNL     1      25.536  44.993  49.539  1.00  0.00     0.014 A 
ENDBRANCH   2  19
BRANCH   1  26
HETATM   26  C   UNL     1      27.382  42.172  50.698  1.00  0.00     0.296 C 
HETATM   27  O   UNL     1      27.790  42.269  49.556  1.00  0.00    -0.259 OA
BRANCH  26  28
HETATM   28  O   UNL     1      26.750  41.128  51.280  1.00  0.00    -0.318 OA
BRANCH  28  29
HETATM   29  C   UNL     1      25.953  40.304  50.413  1.00  0.00     0.174 C 
HETATM   30  C   UNL     1      26.819  39.181  49.876  1.00  0.00     0.034 C 
ENDBRANCH  28  29
ENDBRANCH  26  28
ENDBRANCH   1  26
TORSDOF 5
ENDMDL
MODEL 9
REMARK VINA RESULT:      -6.9      9.722     12.611
REMARK  5 active torsions:
REMARK  status: ('A' for Active; 'I' for Inactive)
REMARK    1  A    between atoms: C_2  and  O_3 
REMARK    2  A    between atoms: O_3  and  C_4 
REMARK    3  A    between atoms: C_4  and  C_5 
REMARK    4  A    between atoms: C_6  and  C_7 
REMARK    5  A    between atoms: C_22  and  N_23 
ROOT
HETATM    1  C   UNL     1      17.804  48.353  47.905  1.00  0.00     0.075 A 
HETATM    2  C   UNL     1      18.200  49.701  48.033  1.00  0.00     0.011 A 
HETATM    3  C   UNL     1      19.553  49.948  48.353  1.00  0.00     0.074 A 
HETATM    4  C   UNL     1      20.420  48.869  48.531  1.00  0.00     0.096 A 
HETATM    5  N   UNL     1      20.021  47.579  48.405  1.00  0.00    -0.250 NA
HETATM    6  C   UNL     1      18.726  47.324  48.100  1.00  0.00     0.048 A 
HETATM    7  C   UNL     1      18.352  45.874  47.988  1.00  0.00     0.071 C 
HETATM    8  C   UNL     1      20.139  51.307  48.514  1.00  0.00     0.260 A 
HETATM    9  O   UNL     1      19.510  52.340  48.335  1.00  0.00    -0.267 OA
HETATM   10  N   UNL     1      21.463  51.373  48.879  1.00  0.00    -0.312 N 
HETATM   11  C   UNL     1      22.316  50.319  49.061  1.00  0.00     0.102 A 
HETATM   12  C   UNL     1      21.834  49.071  48.883  1.00  0.00     0.098 A 
HETATM   13  C   UNL     1      22.739  47.858  49.026  1.00  0.00     0.025 C 
HETATM   14  N   UNL     1      23.490  46.852  49.143  1.00  0.00    -0.096 N 
HETATM   15  H   UNL     1      21.835  52.312  48.946  1.00  0.00     0.170 HD
ENDROOT
BRANCH  11  16
HETATM   16  N   UNL     1      23.611  50.629  49.396  1.00  0.00    -0.287 NA
HETATM   17  H   UNL     1      23.987  51.427  48.891  1.00  0.00     0.125 HD
HETATM   18  H   UNL     1      23.812  50.688  50.393  1.00  0.00     0.125 HD
ENDBRANCH  11  16
BRANCH   2  19
HETATM   19  C   UNL     1      17.215  50.776  47.833  1.00  0.00    -0.024 A 
HETATM   20  C   UNL     1      16.412  51.221  48.897  1.00  0.00     0.014 A 
HETATM   21  C   UNL     1      15.470  52.236  48.707  1.00  0.00     0.024 A 
HETATM   22  C   UNL     1      15.316  52.808  47.447  1.00  0.00     0.034 A 
HETATM   23 CL   UNL     1      14.155  54.056  47.211  1.00  0.00    -0.084 Cl
HETATM   24  C   UNL     1      16.093  52.375  46.376  1.00  0.00     0.024 A 
HETATM   25  C   UNL     1      17.038  51.364  46.569  1.00  0.00     0.014 A 
ENDBRANCH   2  19
BRANCH   1  26
HETATM   26  C   UNL     1      16.404  48.001  47.625  1.00  0.00     0.296 C 
HETATM   27  O   UNL     1      15.582  47.767  48.491  1.00  0.00    -0.259 OA
BRANCH  26  28
HETATM   28  O   UNL     1      16.251  47.951  46.283  1.00  0.00    -0.318 OA
BRANCH  28  29
HETATM   29  C   UNL     1      14.904  47.818  45.801  1.00  0.00     0.174 C 
HETATM   30  C   UNL     1      14.260  49.190  45.769  1.00  0.00     0.034 C 
ENDBRANCH  28  29
ENDBRANCH  26  28
ENDBRANCH   1  26
TORSDOF 5
ENDMDL
MODEL 10
REMARK VINA RESULT:      -6.8      3.970      6.123
REMARK  5 active torsions:
REMARK  status: ('A' for Active; 'I' for Inactive)
REMARK    1  A    between atoms: C_2  and  O_3 
REMARK    2  A    between atoms: O_3  and  C_4 
REMARK    3  A    between atoms: C_4  and  C_5 
REMARK    4  A    between atoms: C_6  and  C_7 
REMARK    5  A    between atoms: C_22  and  N_23 
ROOT
HETATM    1  C   UNL     1      26.528  42.681  51.851  1.00  0.00     0.075 A 
HETATM    2  C   UNL     1      25.966  42.392  50.589  1.00  0.00     0.011 A 
HETATM    3  C   UNL     1      26.497  41.291  49.883  1.00  0.00     0.074 A 
HETATM    4  C   UNL     1      27.539  40.556  50.450  1.00  0.00     0.096 A 
HETATM    5  N   UNL     1      28.068  40.849  51.665  1.00  0.00    -0.250 NA
HETATM    6  C   UNL     1      27.570  41.903  52.354  1.00  0.00     0.048 A 
HETATM    7  C   UNL     1      28.210  42.176  53.685  1.00  0.00     0.071 C 
HETATM    8  C   UNL     1      26.015  40.843  48.548  1.00  0.00     0.260 A 
HETATM    9  O   UNL     1      25.077  41.361  47.958  1.00  0.00    -0.267 OA
HETATM   10  N   UNL     1      26.677  39.784  47.973  1.00  0.00    -0.312 N 
HETATM   11  C   UNL     1      27.702  39.062  48.521  1.00  0.00     0.102 A 
HETATM   12  C   UNL     1      28.141  39.411  49.750  1.00  0.00     0.098 A 
HETATM   13  C   UNL     1      29.245  38.624  50.435  1.00  0.00     0.025 C 
HETATM   14  N   UNL     1      30.161  37.971  51.004  1.00  0.00    -0.096 N 
HETATM   15  H   UNL     1      26.300  39.486  47.081  1.00  0.00     0.170 HD
ENDROOT
BRANCH  11  16
HETATM   16  N   UNL     1      28.190  38.021  47.771  1.00  0.00    -0.287 NA
HETATM   17  H   UNL     1      27.569  37.216  47.733  1.00  0.00     0.125 HD
HETATM   18  H   UNL     1      28.545  38.265  46.847  1.00  0.00     0.125 HD
ENDBRANCH  11  16
BRANCH   2  19
HETATM   19  C   UNL     1      24.873  43.228  50.065  1.00  0.00    -0.024 A 
HETATM   20  C   UNL     1      25.147  44.359  49.278  1.00  0.00     0.014 A 
HETATM   21  C   UNL     1      24.110  45.157  48.788  1.00  0.00     0.024 A 
HETATM   22  C   UNL     1      22.789  44.837  49.089  1.00  0.00     0.034 A 
HETATM   23 CL   UNL     1      21.512  45.821  48.488  1.00  0.00    -0.084 Cl
HETATM   24  C   UNL     1      22.495  43.727  49.877  1.00  0.00     0.024 A 
HETATM   25  C   UNL     1      23.532  42.926  50.362  1.00  0.00     0.014 A 
ENDBRANCH   2  19
BRANCH   1  26
HETATM   26  C   UNL     1      26.072  43.840  52.632  1.00  0.00     0.296 C 
HETATM   27  O   UNL     1      25.131  43.805  53.403  1.00  0.00    -0.259 OA
BRANCH  26  28
HETATM   28  O   UNL     1      26.846  44.896  52.296  1.00  0.00    -0.318 OA
BRANCH  28  29
HETATM   29  C   UNL     1      26.478  46.162  52.865  1.00  0.00     0.174 C 
HETATM   30  C   UNL     1      25.703  46.955  51.831  1.00  0.00     0.034 C 
ENDBRANCH  28  29
ENDBRANCH  26  28
ENDBRANCH   1  26
TORSDOF 5
ENDMDL
