MODEL 1
REMARK VINA RESULT:     -10.3      0.000      0.000
REMARK  7 active torsions:
REMARK  status: ('A' for Active; 'I' for Inactive)
REMARK    1  A    between atoms: C_2  and  N_3 
REMARK       I    between atoms: N_3  and  C_4 
REMARK    2  A    between atoms: N_3  and  C_21 
REMARK    3  A    between atoms: C_4  and  C_5 
REMARK    4  A    between atoms: C_14  and  O_15 
REMARK    5  A    between atoms: C_21  and  C_22 
REMARK       I    between atoms: C_22  and  N_23 
REMARK    6  A    between atoms: N_23  and  C_24 
REMARK    7  A    between atoms: C_27  and  N_28 
REMARK       I    between atoms: N_28  and  C_29 
ROOT
HETATM    1  N   UNL     1      24.337  46.118  49.908  1.00  0.00    -0.339 N 
HETATM    2  C   UNL     1      24.258  45.414  51.127  1.00  0.00     0.261 C 
HETATM    3  O   UNL     1      23.398  44.531  51.223  1.00  0.00    -0.267 OA
ENDROOT
BRANCH   1   4
HETATM    4  C   UNL     1      23.555  45.594  48.779  1.00  0.00     0.122 C 
HETATM    5  C   UNL     1      24.107  44.278  48.244  1.00  0.00     0.026 C 
ENDBRANCH   1   4
BRANCH   1   6
HETATM    6  C   UNL     1      24.792  47.508  49.777  1.00  0.00     0.229 C 
BRANCH   6   7
HETATM    7  C   UNL     1      23.794  48.453  49.087  1.00  0.00     0.240 C 
HETATM    8  N   UNL     1      22.686  48.739  49.862  1.00  0.00    -0.326 N 
HETATM    9  H   UNL     1      22.705  48.357  50.801  1.00  0.00     0.169 HD
HETATM   10  O   UNL     1      23.975  48.792  47.922  1.00  0.00    -0.271 OA
BRANCH   8  11
HETATM   11  C   UNL     1      21.509  49.409  49.481  1.00  0.00     0.034 A 
HETATM   12  C   UNL     1      21.431  50.778  49.238  1.00  0.00     0.032 A 
HETATM   13  C   UNL     1      20.225  51.365  48.828  1.00  0.00     0.032 A 
HETATM   14  C   UNL     1      19.078  50.591  48.654  1.00  0.00     0.034 A 
HETATM   15  C   UNL     1      19.155  49.217  48.907  1.00  0.00     0.032 A 
HETATM   16  C   UNL     1      20.358  48.632  49.320  1.00  0.00     0.032 A 
BRANCH  14  17
HETATM   17  N   UNL     1      17.834  51.100  48.230  1.00  0.00    -0.328 N 
HETATM   18  C   UNL     1      16.856  51.689  49.012  1.00  0.00     0.218 C 
HETATM   19  C   UNL     1      15.651  52.130  48.216  1.00  0.00     0.117 C 
HETATM   20  O   UNL     1      16.894  51.875  50.223  1.00  0.00    -0.274 OA
HETATM   21  H   UNL     1      17.645  51.028  47.239  1.00  0.00     0.169 HD
ENDBRANCH  14  17
ENDBRANCH   8  11
ENDBRANCH   6   7
ENDBRANCH   1   6
BRANCH   2  22
HETATM   22  C   UNL     1      25.247  45.628  52.196  1.00  0.00     0.074 A 
HETATM   23  S   UNL     1      26.234  44.258  52.598  1.00  0.00    -0.084 SA
HETATM   24  C   UNL     1      27.222  45.146  53.647  1.00  0.00     0.023 A 
HETATM   25  C   UNL     1      26.784  46.446  53.782  1.00  0.00    -0.038 A 
HETATM   26  C   UNL     1      28.399  44.615  54.342  1.00  0.00    -0.012 A 
HETATM   27  C   UNL     1      27.518  47.415  54.660  1.00  0.00     0.044 C 
HETATM   28  C   UNL     1      25.648  46.717  52.955  1.00  0.00     0.033 A 
HETATM   29  C   UNL     1      28.277  46.699  55.795  1.00  0.00     0.044 C 
HETATM   30  C   UNL     1      28.958  45.409  55.370  1.00  0.00    -0.044 A 
HETATM   31  C   UNL     1      30.091  44.954  56.060  1.00  0.00     0.044 A 
HETATM   32  C   UNL     1      30.688  43.733  55.732  1.00  0.00     0.068 A 
HETATM   33  C   UNL     1      30.147  42.962  54.704  1.00  0.00     0.037 A 
HETATM   34  C   UNL     1      29.010  43.399  54.015  1.00  0.00     0.016 A 
BRANCH  32  35
HETATM   35  O   UNL     1      31.785  43.410  56.482  1.00  0.00    -0.356 OA
HETATM   36  C   UNL     1      31.880  44.015  57.766  1.00  0.00     0.210 C 
ENDBRANCH  32  35
ENDBRANCH   2  22
TORSDOF 7
ENDMDL
MODEL 2
REMARK VINA RESULT:     -10.1      1.621      2.385
REMARK  7 active torsions:
REMARK  status: ('A' for Active; 'I' for Inactive)
REMARK    1  A    between atoms: C_2  and  N_3 
REMARK       I    between atoms: N_3  and  C_4 
REMARK    2  A    between atoms: N_3  and  C_21 
REMARK    3  A    between atoms: C_4  and  C_5 
REMARK    4  A    between atoms: C_14  and  O_15 
REMARK    5  A    between atoms: C_21  and  C_22 
REMARK       I    between atoms: C_22  and  N_23 
REMARK    6  A    between atoms: N_23  and  C_24 
REMARK    7  A    between atoms: C_27  and  N_28 
REMARK       I    between atoms: N_28  and  C_29 
ROOT
HETATM    1  N   UNL     1      24.312  44.419  49.688  1.00  0.00    -0.339 N 
HETATM    2  C   UNL     1      24.435  43.634  50.854  1.00  0.00     0.261 C 
HETATM    3  O   UNL     1      23.478  42.917  51.164  1.00  0.00    -0.267 OA
ENDROOT
BRANCH   1   4
HETATM    4  C   UNL     1      23.160  44.148  48.816  1.00  0.00     0.122 C 
HETATM    5  C   UNL     1      23.573  43.682  47.425  1.00  0.00     0.026 C 
ENDBRANCH   1   4
BRANCH   1   6
HETATM    6  C   UNL     1      24.982  45.709  49.477  1.00  0.00     0.229 C 
BRANCH   6   7
HETATM    7  C   UNL     1      24.174  46.937  49.931  1.00  0.00     0.240 C 
HETATM    8  N   UNL     1      23.122  47.242  49.087  1.00  0.00    -0.326 N 
HETATM    9  H   UNL     1      22.972  46.586  48.329  1.00  0.00     0.169 HD
HETATM   10  O   UNL     1      24.549  47.595  50.896  1.00  0.00    -0.271 OA
BRANCH   8  11
HETATM   11  C   UNL     1      22.304  48.387  49.098  1.00  0.00     0.034 A 
HETATM   12  C   UNL     1      22.787  49.693  49.099  1.00  0.00     0.032 A 
HETATM   13  C   UNL     1      21.904  50.782  49.077  1.00  0.00     0.032 A 
HETATM   14  C   UNL     1      20.524  50.582  49.051  1.00  0.00     0.034 A 
HETATM   15  C   UNL     1      20.040  49.269  49.060  1.00  0.00     0.032 A 
HETATM   16  C   UNL     1      20.922  48.182  49.087  1.00  0.00     0.032 A 
BRANCH  14  17
HETATM   17  N   UNL     1      19.571  51.620  49.012  1.00  0.00    -0.328 N 
HETATM   18  C   UNL     1      18.366  51.681  49.688  1.00  0.00     0.218 C 
HETATM   19  C   UNL     1      17.601  52.955  49.417  1.00  0.00     0.117 C 
HETATM   20  O   UNL     1      17.904  50.837  50.448  1.00  0.00    -0.274 OA
HETATM   21  H   UNL     1      19.807  52.410  48.425  1.00  0.00     0.169 HD
ENDBRANCH  14  17
ENDBRANCH   8  11
ENDBRANCH   6   7
ENDBRANCH   1   6
BRANCH   2  22
HETATM   22  C   UNL     1      25.704  43.569  51.597  1.00  0.00     0.074 A 
HETATM   23  S   UNL     1      25.987  44.859  52.724  1.00  0.00    -0.084 SA
HETATM   24  C   UNL     1      27.385  44.142  53.352  1.00  0.00     0.023 A 
HETATM   25  C   UNL     1      27.713  42.985  52.680  1.00  0.00    -0.038 A 
HETATM   26  C   UNL     1      28.172  44.676  54.470  1.00  0.00    -0.012 A 
HETATM   27  C   UNL     1      28.914  42.181  53.076  1.00  0.00     0.044 C 
HETATM   28  C   UNL     1      26.751  42.663  51.669  1.00  0.00     0.033 A 
HETATM   29  C   UNL     1      29.994  43.055  53.745  1.00  0.00     0.044 C 
HETATM   30  C   UNL     1      29.442  44.100  54.701  1.00  0.00    -0.044 A 
HETATM   31  C   UNL     1      30.232  44.564  55.764  1.00  0.00     0.044 A 
HETATM   32  C   UNL     1      29.771  45.577  56.609  1.00  0.00     0.068 A 
HETATM   33  C   UNL     1      28.509  46.129  56.391  1.00  0.00     0.037 A 
HETATM   34  C   UNL     1      27.716  45.683  55.328  1.00  0.00     0.016 A 
BRANCH  32  35
HETATM   35  O   UNL     1      30.640  45.935  57.603  1.00  0.00    -0.356 OA
HETATM   36  C   UNL     1      31.228  44.875  58.349  1.00  0.00     0.210 C 
ENDBRANCH  32  35
ENDBRANCH   2  22
TORSDOF 7
ENDMDL
MODEL 3
REMARK VINA RESULT:      -9.9      2.574      4.329
REMARK  7 active torsions:
REMARK  status: ('A' for Active; 'I' for Inactive)
REMARK    1  A    between atoms: C_2  and  N_3 
REMARK       I    between atoms: N_3  and  C_4 
REMARK    2  A    between atoms: N_3  and  C_21 
REMARK    3  A    between atoms: C_4  and  C_5 
REMARK    4  A    between atoms: C_14  and  O_15 
REMARK    5  A    between atoms: C_21  and  C_22 
REMARK       I    between atoms: C_22  and  N_23 
REMARK    6  A    between atoms: N_23  and  C_24 
REMARK    7  A    between atoms: C_27  and  N_28 
REMARK       I    between atoms: N_28  and  C_29 
ROOT
HETATM    1  N   UNL     1      25.878  41.632  48.846  1.00  0.00    -0.339 N 
HETATM    2  C   UNL     1      27.139  41.902  49.418  1.00  0.00     0.261 C 
HETATM    3  O   UNL     1      28.139  41.519  48.801  1.00  0.00    -0.267 OA
ENDROOT
BRANCH   1   4
HETATM    4  C   UNL     1      25.861  41.130  47.465  1.00  0.00     0.122 C 
HETATM    5  C   UNL     1      25.250  39.739  47.353  1.00  0.00     0.026 C 
ENDBRANCH   1   4
BRANCH   1   6
HETATM    6  C   UNL     1      24.642  41.430  49.613  1.00  0.00     0.229 C 
BRANCH   6   7
HETATM    7  C   UNL     1      23.858  42.716  49.926  1.00  0.00     0.240 C 
HETATM    8  N   UNL     1      23.990  43.688  48.952  1.00  0.00    -0.326 N 
HETATM    9  H   UNL     1      24.518  43.409  48.133  1.00  0.00     0.169 HD
HETATM   10  O   UNL     1      23.283  42.837  51.003  1.00  0.00    -0.271 OA
BRANCH   8  11
HETATM   11  C   UNL     1      23.567  45.028  49.000  1.00  0.00     0.034 A 
HETATM   12  C   UNL     1      24.297  46.059  49.588  1.00  0.00     0.032 A 
HETATM   13  C   UNL     1      23.819  47.377  49.565  1.00  0.00     0.032 A 
HETATM   14  C   UNL     1      22.606  47.686  48.952  1.00  0.00     0.034 A 
HETATM   15  C   UNL     1      21.869  46.649  48.369  1.00  0.00     0.032 A 
HETATM   16  C   UNL     1      22.343  45.332  48.397  1.00  0.00     0.032 A 
BRANCH  14  17
HETATM   17  N   UNL     1      22.065  48.985  48.872  1.00  0.00    -0.328 N 
HETATM   18  C   UNL     1      22.494  50.027  48.070  1.00  0.00     0.218 C 
HETATM   19  C   UNL     1      21.667  51.280  48.237  1.00  0.00     0.117 C 
HETATM   20  O   UNL     1      23.429  50.010  47.278  1.00  0.00    -0.274 OA
HETATM   21  H   UNL     1      21.267  49.166  49.469  1.00  0.00     0.169 HD
ENDBRANCH  14  17
ENDBRANCH   8  11
ENDBRANCH   6   7
ENDBRANCH   1   6
BRANCH   2  22
HETATM   22  C   UNL     1      27.264  42.726  50.631  1.00  0.00     0.074 A 
HETATM   23  S   UNL     1      28.401  42.159  51.814  1.00  0.00    -0.084 SA
HETATM   24  C   UNL     1      28.244  43.542  52.778  1.00  0.00     0.023 A 
HETATM   25  C   UNL     1      27.286  44.402  52.286  1.00  0.00    -0.038 A 
HETATM   26  C   UNL     1      29.018  43.808  53.996  1.00  0.00    -0.012 A 
HETATM   27  C   UNL     1      26.988  45.696  52.981  1.00  0.00     0.044 C 
HETATM   28  C   UNL     1      26.721  43.927  51.059  1.00  0.00     0.033 A 
HETATM   29  C   UNL     1      27.307  45.625  54.487  1.00  0.00     0.044 C 
HETATM   30  C   UNL     1      28.588  44.876  54.816  1.00  0.00    -0.044 A 
HETATM   31  C   UNL     1      29.298  45.182  55.986  1.00  0.00     0.044 A 
HETATM   32  C   UNL     1      30.437  44.455  56.344  1.00  0.00     0.068 A 
HETATM   33  C   UNL     1      30.871  43.415  55.522  1.00  0.00     0.037 A 
HETATM   34  C   UNL     1      30.165  43.093  54.358  1.00  0.00     0.016 A 
BRANCH  32  35
HETATM   35  O   UNL     1      31.033  44.857  57.508  1.00  0.00    -0.356 OA
HETATM   36  C   UNL     1      30.511  46.030  58.120  1.00  0.00     0.210 C 
ENDBRANCH  32  35
ENDBRANCH   2  22
TORSDOF 7
ENDMDL
MODEL 4
REMARK VINA RESULT:      -9.3      2.070      2.924
REMARK  7 active torsions:
REMARK  status: ('A' for Active; 'I' for Inactive)
REMARK    1  A    between atoms: C_2  and  N_3 
REMARK       I    between atoms: N_3  and  C_4 
REMARK    2  A    between atoms: N_3  and  C_21 
REMARK    3  A    between atoms: C_4  and  C_5 
REMARK    4  A    between atoms: C_14  and  O_15 
REMARK    5  A    between atoms: C_21  and  C_22 
REMARK       I    between atoms: C_22  and  N_23 
REMARK    6  A    between atoms: N_23  and  C_24 
REMARK    7  A    between atoms: C_27  and  N_28 
REMARK       I    between atoms: N_28  and  C_29 
ROOT
HETATM    1  N   UNL     1      24.174  42.926  48.853  1.00  0.00    -0.339 N 
HETATM    2  C   UNL     1      25.434  42.804  49.475  1.00  0.00     0.261 C 
HETATM    3  O   UNL     1      26.252  42.031  48.962  1.00  0.00    -0.267 OA
ENDROOT
BRANCH   1   4
HETATM    4  C   UNL     1      24.019  42.311  47.527  1.00  0.00     0.122 C 
HETATM    5  C   UNL     1      23.203  41.024  47.568  1.00  0.00     0.026 C 
ENDBRANCH   1   4
BRANCH   1   6
HETATM    6  C   UNL     1      22.926  43.252  49.555  1.00  0.00     0.229 C 
BRANCH   6   7
HETATM    7  C   UNL     1      22.038  44.288  48.846  1.00  0.00     0.240 C 
HETATM    8  N   UNL     1      22.391  45.594  49.126  1.00  0.00    -0.326 N 
HETATM    9  H   UNL     1      23.223  45.705  49.695  1.00  0.00     0.169 HD
HETATM   10  O   UNL     1      21.064  43.919  48.198  1.00  0.00    -0.271 OA
BRANCH   8  11
HETATM   11  C   UNL     1      21.693  46.771  48.800  1.00  0.00     0.034 A 
HETATM   12  C   UNL     1      20.304  46.865  48.734  1.00  0.00     0.032 A 
HETATM   13  C   UNL     1      19.683  48.085  48.433  1.00  0.00     0.032 A 
HETATM   14  C   UNL     1      20.440  49.232  48.197  1.00  0.00     0.034 A 
HETATM   15  C   UNL     1      21.835  49.136  48.255  1.00  0.00     0.032 A 
HETATM   16  C   UNL     1      22.455  47.916  48.550  1.00  0.00     0.032 A 
BRANCH  14  17
HETATM   17  N   UNL     1      19.893  50.498  47.905  1.00  0.00    -0.328 N 
HETATM   18  C   UNL     1      19.468  51.458  48.805  1.00  0.00     0.218 C 
HETATM   19  C   UNL     1      18.945  52.707  48.134  1.00  0.00     0.117 C 
HETATM   20  O   UNL     1      19.489  51.382  50.029  1.00  0.00    -0.274 OA
HETATM   21  H   UNL     1      19.811  50.725  46.922  1.00  0.00     0.169 HD
ENDBRANCH  14  17
ENDBRANCH   8  11
ENDBRANCH   6   7
ENDBRANCH   1   6
BRANCH   2  22
HETATM   22  C   UNL     1      25.810  43.662  50.610  1.00  0.00     0.074 A 
HETATM   23  S   UNL     1      26.950  42.981  51.728  1.00  0.00    -0.084 SA
HETATM   24  C   UNL     1      27.114  44.423  52.599  1.00  0.00     0.023 A 
HETATM   25  C   UNL     1      26.264  45.402  52.131  1.00  0.00    -0.038 A 
HETATM   26  C   UNL     1      28.036  44.624  53.722  1.00  0.00    -0.012 A 
HETATM   27  C   UNL     1      26.248  46.765  52.754  1.00  0.00     0.044 C 
HETATM   28  C   UNL     1      25.512  44.960  50.996  1.00  0.00     0.033 A 
HETATM   29  C   UNL     1      26.698  46.728  54.228  1.00  0.00     0.044 C 
HETATM   30  C   UNL     1      27.867  45.794  54.497  1.00  0.00    -0.044 A 
HETATM   31  C   UNL     1      28.728  46.043  55.576  1.00  0.00     0.044 A 
HETATM   32  C   UNL     1      29.764  45.156  55.884  1.00  0.00     0.068 A 
HETATM   33  C   UNL     1      29.941  44.013  55.106  1.00  0.00     0.037 A 
HETATM   34  C   UNL     1      29.082  43.748  54.034  1.00  0.00     0.016 A 
BRANCH  32  35
HETATM   35  O   UNL     1      30.528  45.518  56.960  1.00  0.00    -0.356 OA
HETATM   36  C   UNL     1      29.830  45.880  58.146  1.00  0.00     0.210 C 
ENDBRANCH  32  35
ENDBRANCH   2  22
TORSDOF 7
ENDMDL
MODEL 5
REMARK VINA RESULT:      -9.2      1.714      2.604
REMARK  7 active torsions:
REMARK  status: ('A' for Active; 'I' for Inactive)
REMARK    1  A    between atoms: C_2  and  N_3 
REMARK       I    between atoms: N_3  and  C_4 
REMARK    2  A    between atoms: N_3  and  C_21 
REMARK    3  A    between atoms: C_4  and  C_5 
REMARK    4  A    between atoms: C_14  and  O_15 
REMARK    5  A    between atoms: C_21  and  C_22 
REMARK       I    between atoms: C_22  and  N_23 
REMARK    6  A    between atoms: N_23  and  C_24 
REMARK    7  A    between atoms: C_27  and  N_28 
REMARK       I    between atoms: N_28  and  C_29 
ROOT
HETATM    1  N   UNL     1      22.828  45.604  48.699  1.00  0.00    -0.339 N 
HETATM    2  C   UNL     1      22.974  44.524  49.595  1.00  0.00     0.261 C 
HETATM    3  O   UNL     1      22.021  43.747  49.714  1.00  0.00    -0.267 OA
ENDROOT
BRANCH   1   4
HETATM    4  C   UNL     1      21.655  45.586  47.814  1.00  0.00     0.122 C 
HETATM    5  C   UNL     1      21.983  45.085  46.413  1.00  0.00     0.026 C 
ENDBRANCH   1   4
BRANCH   1   6
HETATM    6  C   UNL     1      23.499  46.903  48.843  1.00  0.00     0.229 C 
BRANCH   6   7
HETATM    7  C   UNL     1      22.604  48.124  48.575  1.00  0.00     0.240 C 
HETATM    8  N   UNL     1      21.803  48.462  49.649  1.00  0.00    -0.326 N 
HETATM    9  H   UNL     1      21.955  47.917  50.490  1.00  0.00     0.169 HD
HETATM   10  O   UNL     1      22.578  48.632  47.458  1.00  0.00    -0.271 OA
BRANCH   8  11
HETATM   11  C   UNL     1      20.750  49.395  49.687  1.00  0.00     0.034 A 
HETATM   12  C   UNL     1      20.879  50.735  49.332  1.00  0.00     0.032 A 
HETATM   13  C   UNL     1      19.771  51.594  49.367  1.00  0.00     0.032 A 
HETATM   14  C   UNL     1      18.516  51.126  49.754  1.00  0.00     0.034 A 
HETATM   15  C   UNL     1      18.390  49.781  50.119  1.00  0.00     0.032 A 
HETATM   16  C   UNL     1      19.496  48.925  50.090  1.00  0.00     0.032 A 
BRANCH  14  17
HETATM   17  N   UNL     1      17.352  51.919  49.800  1.00  0.00    -0.328 N 
HETATM   18  C   UNL     1      16.192  51.753  49.065  1.00  0.00     0.218 C 
HETATM   19  C   UNL     1      15.139  52.788  49.383  1.00  0.00     0.117 C 
HETATM   20  O   UNL     1      15.965  50.881  48.234  1.00  0.00    -0.274 OA
HETATM   21  H   UNL     1      17.373  52.692  50.453  1.00  0.00     0.169 HD
ENDBRANCH  14  17
ENDBRANCH   8  11
ENDBRANCH   6   7
ENDBRANCH   1   6
BRANCH   2  22
HETATM   22  C   UNL     1      24.260  44.255  50.260  1.00  0.00     0.074 A 
HETATM   23  S   UNL     1      24.724  45.386  51.493  1.00  0.00    -0.084 SA
HETATM   24  C   UNL     1      26.065  44.471  51.972  1.00  0.00     0.023 A 
HETATM   25  C   UNL     1      26.240  43.363  51.171  1.00  0.00    -0.038 A 
HETATM   26  C   UNL     1      26.950  44.804  53.093  1.00  0.00    -0.012 A 
HETATM   27  C   UNL     1      27.367  42.406  51.421  1.00  0.00     0.044 C 
HETATM   28  C   UNL     1      25.208  43.247  50.186  1.00  0.00     0.033 A 
HETATM   29  C   UNL     1      28.559  43.093  52.115  1.00  0.00     0.044 C 
HETATM   30  C   UNL     1      28.162  44.083  53.198  1.00  0.00    -0.044 A 
HETATM   31  C   UNL     1      29.040  44.353  54.259  1.00  0.00     0.044 A 
HETATM   32  C   UNL     1      28.724  45.314  55.224  1.00  0.00     0.068 A 
HETATM   33  C   UNL     1      27.519  46.008  55.129  1.00  0.00     0.037 A 
HETATM   34  C   UNL     1      26.640  45.757  54.070  1.00  0.00     0.016 A 
BRANCH  32  35
HETATM   35  O   UNL     1      29.667  45.477  56.201  1.00  0.00    -0.356 OA
HETATM   36  C   UNL     1      30.794  44.610  56.151  1.00  0.00     0.210 C 
ENDBRANCH  32  35
ENDBRANCH   2  22
TORSDOF 7
ENDMDL
MODEL 6
REMARK VINA RESULT:      -9.1      1.701      2.295
REMARK  7 active torsions:
REMARK  status: ('A' for Active; 'I' for Inactive)
REMARK    1  A    between atoms: C_2  and  N_3 
REMARK       I    between atoms: N_3  and  C_4 
REMARK    2  A    between atoms: N_3  and  C_21 
REMARK    3  A    between atoms: C_4  and  C_5 
REMARK    4  A    between atoms: C_14  and  O_15 
REMARK    5  A    between atoms: C_21  and  C_22 
REMARK       I    between atoms: C_22  and  N_23 
REMARK    6  A    between atoms: N_23  and  C_24 
REMARK    7  A    between atoms: C_27  and  N_28 
REMARK       I    between atoms: N_28  and  C_29 
ROOT
HETATM    1  N   UNL     1      22.787  44.999  48.364  1.00  0.00    -0.339 N 
HETATM    2  C   UNL     1      23.004  44.200  49.506  1.00  0.00     0.261 C 
HETATM    3  O   UNL     1      22.429  43.107  49.557  1.00  0.00    -0.267 OA
ENDROOT
BRANCH   1   4
HETATM    4  C   UNL     1      22.090  44.374  47.231  1.00  0.00     0.122 C 
HETATM    5  C   UNL     1      22.840  44.539  45.915  1.00  0.00     0.026 C 
ENDBRANCH   1   4
BRANCH   1   6
HETATM    6  C   UNL     1      22.834  46.467  48.353  1.00  0.00     0.229 C 
BRANCH   6   7
HETATM    7  C   UNL     1      21.475  47.157  48.557  1.00  0.00     0.240 C 
HETATM    8  N   UNL     1      21.575  48.527  48.715  1.00  0.00    -0.326 N 
HETATM    9  H   UNL     1      22.508  48.907  48.604  1.00  0.00     0.169 HD
HETATM   10  O   UNL     1      20.455  46.484  48.666  1.00  0.00    -0.271 OA
BRANCH   8  11
HETATM   11  C   UNL     1      20.569  49.432  49.097  1.00  0.00     0.034 A 
HETATM   12  C   UNL     1      19.569  49.146  50.024  1.00  0.00     0.032 A 
HETATM   13  C   UNL     1      18.620  50.117  50.377  1.00  0.00     0.032 A 
HETATM   14  C   UNL     1      18.658  51.390  49.810  1.00  0.00     0.034 A 
HETATM   15  C   UNL     1      19.657  51.674  48.872  1.00  0.00     0.032 A 
HETATM   16  C   UNL     1      20.601  50.704  48.517  1.00  0.00     0.032 A 
BRANCH  14  17
HETATM   17  N   UNL     1      17.753  52.425  50.121  1.00  0.00    -0.328 N 
HETATM   18  C   UNL     1      16.412  52.498  49.790  1.00  0.00     0.218 C 
HETATM   19  C   UNL     1      15.745  53.753  50.301  1.00  0.00     0.117 C 
HETATM   20  O   UNL     1      15.763  51.670  49.161  1.00  0.00    -0.274 OA
HETATM   21  H   UNL     1      18.135  53.196  50.654  1.00  0.00     0.169 HD
ENDBRANCH  14  17
ENDBRANCH   8  11
ENDBRANCH   6   7
ENDBRANCH   1   6
BRANCH   2  22
HETATM   22  C   UNL     1      23.980  44.592  50.536  1.00  0.00     0.074 A 
HETATM   23  S   UNL     1      24.903  43.298  51.234  1.00  0.00    -0.084 SA
HETATM   24  C   UNL     1      25.905  44.345  52.107  1.00  0.00     0.023 A 
HETATM   25  C   UNL     1      25.518  45.660  51.964  1.00  0.00    -0.038 A 
HETATM   26  C   UNL     1      27.047  43.925  52.927  1.00  0.00    -0.012 A 
HETATM   27  C   UNL     1      26.274  46.761  52.647  1.00  0.00     0.044 C 
HETATM   28  C   UNL     1      24.410  45.797  51.069  1.00  0.00     0.033 A 
HETATM   29  C   UNL     1      26.981  46.264  53.923  1.00  0.00     0.044 C 
HETATM   30  C   UNL     1      27.617  44.891  53.787  1.00  0.00    -0.044 A 
HETATM   31  C   UNL     1      28.718  44.546  54.586  1.00  0.00     0.044 A 
HETATM   32  C   UNL     1      29.270  43.263  54.528  1.00  0.00     0.068 A 
HETATM   33  C   UNL     1      28.719  42.318  53.663  1.00  0.00     0.037 A 
HETATM   34  C   UNL     1      27.614  42.646  52.870  1.00  0.00     0.016 A 
BRANCH  32  35
HETATM   35  O   UNL     1      30.339  43.060  55.358  1.00  0.00    -0.356 OA
HETATM   36  C   UNL     1      30.837  44.201  56.047  1.00  0.00     0.210 C 
ENDBRANCH  32  35
ENDBRANCH   2  22
TORSDOF 7
ENDMDL
MODEL 7
REMARK VINA RESULT:      -9.1      3.626     11.709
REMARK  7 active torsions:
REMARK  status: ('A' for Active; 'I' for Inactive)
REMARK    1  A    between atoms: C_2  and  N_3 
REMARK       I    between atoms: N_3  and  C_4 
REMARK    2  A    between atoms: N_3  and  C_21 
REMARK    3  A    between atoms: C_4  and  C_5 
REMARK    4  A    between atoms: C_14  and  O_15 
REMARK    5  A    between atoms: C_21  and  C_22 
REMARK       I    between atoms: C_22  and  N_23 
REMARK    6  A    between atoms: N_23  and  C_24 
REMARK    7  A    between atoms: C_27  and  N_28 
REMARK       I    between atoms: N_28  and  C_29 
ROOT
HETATM    1  N   UNL     1      25.842  47.990  49.487  1.00  0.00    -0.339 N 
HETATM    2  C   UNL     1      24.986  48.937  48.885  1.00  0.00     0.261 C 
HETATM    3  O   UNL     1      25.503  49.798  48.165  1.00  0.00    -0.267 OA
ENDROOT
BRANCH   1   4
HETATM    4  C   UNL     1      27.237  47.960  49.027  1.00  0.00     0.122 C 
HETATM    5  C   UNL     1      27.995  49.238  49.365  1.00  0.00     0.026 C 
ENDBRANCH   1   4
BRANCH   1   6
HETATM    6  C   UNL     1      25.579  47.326  50.770  1.00  0.00     0.229 C 
BRANCH   6   7
HETATM    7  C   UNL     1      25.625  45.790  50.724  1.00  0.00     0.240 C 
HETATM    8  N   UNL     1      26.673  45.252  51.447  1.00  0.00    -0.326 N 
HETATM    9  H   UNL     1      27.227  45.922  51.968  1.00  0.00     0.169 HD
HETATM   10  O   UNL     1      24.842  45.174  50.008  1.00  0.00    -0.271 OA
BRANCH   8  11
HETATM   11  C   UNL     1      27.116  43.917  51.471  1.00  0.00     0.034 A 
HETATM   12  C   UNL     1      26.414  42.849  50.917  1.00  0.00     0.032 A 
HETATM   13  C   UNL     1      26.941  41.550  50.954  1.00  0.00     0.032 A 
HETATM   14  C   UNL     1      28.178  41.298  51.545  1.00  0.00     0.034 A 
HETATM   15  C   UNL     1      28.879  42.370  52.110  1.00  0.00     0.032 A 
HETATM   16  C   UNL     1      28.351  43.666  52.077  1.00  0.00     0.032 A 
BRANCH  14  17
HETATM   17  N   UNL     1      28.783  40.027  51.610  1.00  0.00    -0.328 N 
HETATM   18  C   UNL     1      29.150  39.216  50.551  1.00  0.00     0.218 C 
HETATM   19  C   UNL     1      29.787  37.920  50.994  1.00  0.00     0.117 C 
HETATM   20  O   UNL     1      29.014  39.456  49.357  1.00  0.00    -0.274 OA
HETATM   21  H   UNL     1      28.973  39.678  52.541  1.00  0.00     0.169 HD
ENDBRANCH  14  17
ENDBRANCH   8  11
ENDBRANCH   6   7
ENDBRANCH   1   6
BRANCH   2  22
HETATM   22  C   UNL     1      23.523  48.823  49.001  1.00  0.00     0.074 A 
HETATM   23  S   UNL     1      22.676  50.297  49.353  1.00  0.00    -0.084 SA
HETATM   24  C   UNL     1      21.151  49.589  49.156  1.00  0.00     0.023 A 
HETATM   25  C   UNL     1      21.244  48.235  48.914  1.00  0.00    -0.038 A 
HETATM   26  C   UNL     1      19.875  50.308  49.237  1.00  0.00    -0.012 A 
HETATM   27  C   UNL     1      20.012  47.408  48.700  1.00  0.00     0.044 C 
HETATM   28  C   UNL     1      22.605  47.798  48.833  1.00  0.00     0.033 A 
HETATM   29  C   UNL     1      18.783  48.017  49.404  1.00  0.00     0.044 C 
HETATM   30  C   UNL     1      18.696  49.531  49.303  1.00  0.00    -0.044 A 
HETATM   31  C   UNL     1      17.448  50.168  49.370  1.00  0.00     0.044 A 
HETATM   32  C   UNL     1      17.354  51.562  49.353  1.00  0.00     0.068 A 
HETATM   33  C   UNL     1      18.517  52.326  49.266  1.00  0.00     0.037 A 
HETATM   34  C   UNL     1      19.769  51.704  49.210  1.00  0.00     0.016 A 
BRANCH  32  35
HETATM   35  O   UNL     1      16.078  52.052  49.424  1.00  0.00    -0.356 OA
HETATM   36  C   UNL     1      15.892  53.240  50.185  1.00  0.00     0.210 C 
ENDBRANCH  32  35
ENDBRANCH   2  22
TORSDOF 7
ENDMDL
MODEL 8
REMARK VINA RESULT:      -9.0      3.312     11.541
REMARK  7 active torsions:
REMARK  status: ('A' for Active; 'I' for Inactive)
REMARK    1  A    between atoms: C_2  and  N_3 
REMARK       I    between atoms: N_3  and  C_4 
REMARK    2  A    between atoms: N_3  and  C_21 
REMARK    3  A    between atoms: C_4  and  C_5 
REMARK    4  A    between atoms: C_14  and  O_15 
REMARK    5  A    between atoms: C_21  and  C_22 
REMARK       I    between atoms: C_22  and  N_23 
REMARK    6  A    between atoms: N_23  and  C_24 
REMARK    7  A    between atoms: C_27  and  N_28 
REMARK       I    between atoms: N_28  and  C_29 
ROOT
HETATM    1  N   UNL     1      21.196  45.002  47.328  1.00  0.00    -0.339 N 
HETATM    2  C   UNL     1      21.496  46.173  46.600  1.00  0.00     0.261 C 
HETATM    3  O   UNL     1      22.033  46.036  45.496  1.00  0.00    -0.267 OA
ENDROOT
BRANCH   1   4
HETATM    4  C   UNL     1      21.331  43.720  46.622  1.00  0.00     0.122 C 
HETATM    5  C   UNL     1      20.024  43.258  45.989  1.00  0.00     0.026 C 
ENDBRANCH   1   4
BRANCH   1   6
HETATM    6  C   UNL     1      21.152  44.922  48.794  1.00  0.00     0.229 C 
BRANCH   6   7
HETATM    7  C   UNL     1      22.342  44.190  49.436  1.00  0.00     0.240 C 
HETATM    8  N   UNL     1      23.331  45.044  49.887  1.00  0.00    -0.326 N 
HETATM    9  H   UNL     1      23.119  46.032  49.806  1.00  0.00     0.169 HD
HETATM   10  O   UNL     1      22.390  42.964  49.418  1.00  0.00    -0.271 OA
BRANCH   8  11
HETATM   11  C   UNL     1      24.617  44.714  50.351  1.00  0.00     0.034 A 
HETATM   12  C   UNL     1      25.647  44.245  49.538  1.00  0.00     0.032 A 
HETATM   13  C   UNL     1      26.913  43.970  50.074  1.00  0.00     0.032 A 
HETATM   14  C   UNL     1      27.171  44.161  51.431  1.00  0.00     0.034 A 
HETATM   15  C   UNL     1      26.133  44.624  52.249  1.00  0.00     0.032 A 
HETATM   16  C   UNL     1      24.868  44.894  51.715  1.00  0.00     0.032 A 
BRANCH  14  17
HETATM   17  N   UNL     1      28.418  43.924  52.044  1.00  0.00    -0.328 N 
HETATM   18  C   UNL     1      28.877  42.737  52.584  1.00  0.00     0.218 C 
HETATM   19  C   UNL     1      30.273  42.846  53.149  1.00  0.00     0.117 C 
HETATM   20  O   UNL     1      28.278  41.668  52.629  1.00  0.00    -0.274 OA
HETATM   21  H   UNL     1      29.045  44.717  52.083  1.00  0.00     0.169 HD
ENDBRANCH  14  17
ENDBRANCH   8  11
ENDBRANCH   6   7
ENDBRANCH   1   6
BRANCH   2  22
HETATM   22  C   UNL     1      21.063  47.497  47.075  1.00  0.00     0.074 A 
HETATM   23  S   UNL     1      19.375  47.854  46.887  1.00  0.00    -0.084 SA
HETATM   24  C   UNL     1      19.479  49.305  47.751  1.00  0.00     0.023 A 
HETATM   25  C   UNL     1      20.777  49.591  48.115  1.00  0.00    -0.038 A 
HETATM   26  C   UNL     1      18.341  50.172  48.075  1.00  0.00    -0.012 A 
HETATM   27  C   UNL     1      21.100  50.829  48.897  1.00  0.00     0.044 C 
HETATM   28  C   UNL     1      21.684  48.556  47.720  1.00  0.00     0.033 A 
HETATM   29  C   UNL     1      20.069  51.948  48.649  1.00  0.00     0.044 C 
HETATM   30  C   UNL     1      18.631  51.463  48.574  1.00  0.00    -0.044 A 
HETATM   31  C   UNL     1      17.580  52.328  48.911  1.00  0.00     0.044 A 
HETATM   32  C   UNL     1      16.248  51.925  48.778  1.00  0.00     0.068 A 
HETATM   33  C   UNL     1      15.965  50.644  48.306  1.00  0.00     0.037 A 
HETATM   34  C   UNL     1      17.004  49.775  47.955  1.00  0.00     0.016 A 
BRANCH  32  35
HETATM   35  O   UNL     1      15.324  52.866  49.142  1.00  0.00    -0.356 OA
HETATM   36  C   UNL     1      15.687  53.739  50.204  1.00  0.00     0.210 C 
ENDBRANCH  32  35
ENDBRANCH   2  22
TORSDOF 7
ENDMDL
MODEL 9
REMARK VINA RESULT:      -8.8      2.583     11.146
REMARK  7 active torsions:
REMARK  status: ('A' for Active; 'I' for Inactive)
REMARK    1  A    between atoms: C_2  and  N_3 
REMARK       I    between atoms: N_3  and  C_4 
REMARK    2  A    between atoms: N_3  and  C_21 
REMARK    3  A    between atoms: C_4  and  C_5 
REMARK    4  A    between atoms: C_14  and  O_15 
REMARK    5  A    between atoms: C_21  and  C_22 
REMARK       I    between atoms: C_22  and  N_23 
REMARK    6  A    between atoms: N_23  and  C_24 
REMARK    7  A    between atoms: C_27  and  N_28 
REMARK       I    between atoms: N_28  and  C_29 
ROOT
HETATM    1  N   UNL     1      25.304  46.636  49.747  1.00  0.00    -0.339 N 
HETATM    2  C   UNL     1      25.165  47.991  49.381  1.00  0.00     0.261 C 
HETATM    3  O   UNL     1      26.197  48.629  49.148  1.00  0.00    -0.267 OA
ENDROOT
BRANCH   1   4
HETATM    4  C   UNL     1      26.637  46.035  49.597  1.00  0.00     0.122 C 
HETATM    5  C   UNL     1      26.596  44.511  49.583  1.00  0.00     0.026 C 
ENDBRANCH   1   4
BRANCH   1   6
HETATM    6  C   UNL     1      24.370  45.907  50.615  1.00  0.00     0.229 C 
BRANCH   6   7
HETATM    7  C   UNL     1      24.895  45.618  52.031  1.00  0.00     0.240 C 
HETATM    8  N   UNL     1      25.766  46.584  52.500  1.00  0.00    -0.326 N 
HETATM    9  H   UNL     1      25.889  47.386  51.892  1.00  0.00     0.169 HD
HETATM   10  O   UNL     1      24.613  44.561  52.586  1.00  0.00    -0.271 OA
BRANCH   8  11
HETATM   11  C   UNL     1      26.562  46.546  53.659  1.00  0.00     0.034 A 
HETATM   12  C   UNL     1      26.591  47.553  54.621  1.00  0.00     0.032 A 
HETATM   13  C   UNL     1      27.389  47.424  55.767  1.00  0.00     0.032 A 
HETATM   14  C   UNL     1      28.169  46.286  55.970  1.00  0.00     0.034 A 
HETATM   15  C   UNL     1      28.144  45.278  54.998  1.00  0.00     0.032 A 
HETATM   16  C   UNL     1      27.352  45.409  53.853  1.00  0.00     0.032 A 
BRANCH  14  17
HETATM   17  N   UNL     1      28.984  46.072  57.100  1.00  0.00    -0.328 N 
HETATM   18  C   UNL     1      30.232  45.479  57.136  1.00  0.00     0.218 C 
HETATM   19  C   UNL     1      30.822  45.428  58.526  1.00  0.00     0.117 C 
HETATM   20  O   UNL     1      30.861  45.028  56.185  1.00  0.00    -0.274 OA
HETATM   21  H   UNL     1      28.607  46.399  57.981  1.00  0.00     0.169 HD
ENDBRANCH  14  17
ENDBRANCH   8  11
ENDBRANCH   6   7
ENDBRANCH   1   6
BRANCH   2  22
HETATM   22  C   UNL     1      23.837  48.585  49.153  1.00  0.00     0.074 A 
HETATM   23  S   UNL     1      22.565  47.467  48.771  1.00  0.00    -0.084 SA
HETATM   24  C   UNL     1      21.361  48.655  48.837  1.00  0.00     0.023 A 
HETATM   25  C   UNL     1      21.892  49.908  49.055  1.00  0.00    -0.038 A 
HETATM   26  C   UNL     1      19.925  48.405  48.676  1.00  0.00    -0.012 A 
HETATM   27  C   UNL     1      21.002  51.111  49.157  1.00  0.00     0.044 C 
HETATM   28  C   UNL     1      23.312  49.865  49.228  1.00  0.00     0.033 A 
HETATM   29  C   UNL     1      19.687  50.919  48.376  1.00  0.00     0.044 C 
HETATM   30  C   UNL     1      19.086  49.529  48.504  1.00  0.00    -0.044 A 
HETATM   31  C   UNL     1      17.703  49.347  48.357  1.00  0.00     0.044 A 
HETATM   32  C   UNL     1      17.140  48.068  48.398  1.00  0.00     0.068 A 
HETATM   33  C   UNL     1      17.967  46.963  48.589  1.00  0.00     0.037 A 
HETATM   34  C   UNL     1      19.350  47.129  48.725  1.00  0.00     0.016 A 
BRANCH  32  35
HETATM   35  O   UNL     1      15.781  48.034  48.241  1.00  0.00    -0.356 OA
HETATM   36  C   UNL     1      15.266  48.540  47.016  1.00  0.00     0.210 C 
ENDBRANCH  32  35
ENDBRANCH   2  22
TORSDOF 7
ENDMDL
MODEL 10
REMARK VINA RESULT:      -8.8      2.489     11.583
REMARK  7 active torsions:
REMARK  status: ('A' for Active; 'I' for Inactive)
REMARK    1  A    between atoms: C_2  and  N_3 
REMARK       I    between atoms: N_3  and  C_4 
REMARK    2  A    between atoms: N_3  and  C_21 
REMARK    3  A    between atoms: C_4  and  C_5 
REMARK    4  A    between atoms: C_14  and  O_15 
REMARK    5  A    between atoms: C_21  and  C_22 
REMARK       I    between atoms: C_22  and  N_23 
REMARK    6  A    between atoms: N_23  and  C_24 
REMARK    7  A    between atoms: C_27  and  N_28 
REMARK       I    between atoms: N_28  and  C_29 
ROOT
HETATM    1  N   UNL     1      25.001  46.590  49.806  1.00  0.00    -0.339 N 
HETATM    2  C   UNL     1      24.492  47.854  49.441  1.00  0.00     0.261 C 
HETATM    3  O   UNL     1      25.302  48.775  49.292  1.00  0.00    -0.267 OA
ENDROOT
BRANCH   1   4
HETATM    4  C   UNL     1      26.459  46.413  49.750  1.00  0.00     0.122 C 
HETATM    5  C   UNL     1      26.868  44.956  49.574  1.00  0.00     0.026 C 
ENDBRANCH   1   4
BRANCH   1   6
HETATM    6  C   UNL     1      24.267  45.592  50.595  1.00  0.00     0.229 C 
BRANCH   6   7
HETATM    7  C   UNL     1      24.842  45.328  51.997  1.00  0.00     0.240 C 
HETATM    8  N   UNL     1      25.618  46.367  52.475  1.00  0.00    -0.326 N 
HETATM    9  H   UNL     1      25.649  47.190  51.884  1.00  0.00     0.169 HD
HETATM   10  O   UNL     1      24.677  44.236  52.532  1.00  0.00    -0.271 OA
BRANCH   8  11
HETATM   11  C   UNL     1      26.432  46.386  53.622  1.00  0.00     0.034 A 
HETATM   12  C   UNL     1      26.553  47.478  54.478  1.00  0.00     0.032 A 
HETATM   13  C   UNL     1      27.362  47.405  55.621  1.00  0.00     0.032 A 
HETATM   14  C   UNL     1      28.063  46.239  55.926  1.00  0.00     0.034 A 
HETATM   15  C   UNL     1      27.948  45.145  55.061  1.00  0.00     0.032 A 
HETATM   16  C   UNL     1      27.144  45.220  53.918  1.00  0.00     0.032 A 
BRANCH  14  17
HETATM   17  N   UNL     1      28.883  46.079  57.061  1.00  0.00    -0.328 N 
HETATM   18  C   UNL     1      30.191  45.630  57.097  1.00  0.00     0.218 C 
HETATM   19  C   UNL     1      30.766  45.597  58.494  1.00  0.00     0.117 C 
HETATM   20  O   UNL     1      30.878  45.285  56.142  1.00  0.00    -0.274 OA
HETATM   21  H   UNL     1      28.462  46.330  57.947  1.00  0.00     0.169 HD
ENDBRANCH  14  17
ENDBRANCH   8  11
ENDBRANCH   6   7
ENDBRANCH   1   6
BRANCH   2  22
HETATM   22  C   UNL     1      23.067  48.037  49.120  1.00  0.00     0.074 A 
HETATM   23  S   UNL     1      22.423  49.622  49.415  1.00  0.00    -0.084 SA
HETATM   24  C   UNL     1      20.933  49.263  48.698  1.00  0.00     0.023 A 
HETATM   25  C   UNL     1      20.858  47.943  48.308  1.00  0.00    -0.038 A 
HETATM   26  C   UNL     1      19.839  50.222  48.511  1.00  0.00    -0.012 A 
HETATM   27  C   UNL     1      19.626  47.409  47.642  1.00  0.00     0.044 C 
HETATM   28  C   UNL     1      22.080  47.241  48.559  1.00  0.00     0.033 A 
HETATM   29  C   UNL     1      18.367  48.201  48.044  1.00  0.00     0.044 C 
HETATM   30  C   UNL     1      18.580  49.704  48.132  1.00  0.00    -0.044 A 
HETATM   31  C   UNL     1      17.502  50.578  47.928  1.00  0.00     0.044 A 
HETATM   32  C   UNL     1      17.661  51.959  48.077  1.00  0.00     0.068 A 
HETATM   33  C   UNL     1      18.909  52.469  48.430  1.00  0.00     0.037 A 
HETATM   34  C   UNL     1      19.990  51.607  48.648  1.00  0.00     0.016 A 
BRANCH  32  35
HETATM   35  O   UNL     1      16.531  52.695  47.850  1.00  0.00    -0.356 OA
HETATM   36  C   UNL     1      15.639  52.204  46.856  1.00  0.00     0.210 C 
ENDBRANCH  32  35
ENDBRANCH   2  22
TORSDOF 7
ENDMDL
