MODEL 1
REMARK VINA RESULT:     -10.4      0.000      0.000
REMARK  7 active torsions:
REMARK  status: ('A' for Active; 'I' for Inactive)
REMARK    1  A    between atoms: C_3  and  C_4 
REMARK    2  A    between atoms: C_11  and  N_12 
REMARK       I    between atoms: N_12  and  C_13 
REMARK    3  A    between atoms: C_13  and  C_14 
REMARK    4  A    between atoms: C_21  and  C_22 
REMARK       I    between atoms: C_22  and  N_23 
REMARK    5  A    between atoms: N_23  and  C_24 
REMARK    6  A    between atoms: C_24  and  C_25 
REMARK    7  A    between atoms: C_25  and  C_26 
ROOT
HETATM    1  C   UNL     1      27.630  42.849  53.260  1.00  0.00     0.158 C 
HETATM    2  N   UNL     1      27.116  44.194  53.346  1.00  0.00    -0.335 N 
HETATM    3  C   UNL     1      27.544  45.107  54.287  1.00  0.00     0.111 A 
HETATM    4  N   UNL     1      27.165  46.325  53.972  1.00  0.00    -0.233 NA
HETATM    5  C   UNL     1      26.434  46.192  52.824  1.00  0.00     0.089 A 
HETATM    6  C   UNL     1      26.313  44.852  52.434  1.00  0.00     0.091 A 
HETATM    7  C   UNL     1      25.578  44.490  51.289  1.00  0.00     0.065 A 
HETATM    8  C   UNL     1      25.066  45.543  50.509  1.00  0.00     0.049 A 
HETATM    9  C   UNL     1      25.180  46.885  50.888  1.00  0.00     0.036 A 
HETATM   10  C   UNL     1      25.861  47.220  52.059  1.00  0.00     0.051 A 
ENDROOT
BRANCH   9  11
HETATM   11  C   UNL     1      24.567  47.914  50.001  1.00  0.00     0.251 C 
HETATM   12  N   UNL     1      23.203  47.848  49.802  1.00  0.00    -0.357 N 
HETATM   13  H   UNL     1      22.681  47.044  50.124  1.00  0.00     0.162 HD
HETATM   14  O   UNL     1      25.282  48.751  49.460  1.00  0.00    -0.268 OA
BRANCH  12  15
HETATM   15  C   UNL     1      22.538  48.780  48.907  1.00  0.00     0.127 C 
BRANCH  15  16
HETATM   16  C   UNL     1      21.225  48.219  48.353  1.00  0.00     0.060 C 
BRANCH  16  17
HETATM   17  C   UNL     1      20.028  48.785  49.047  1.00  0.00    -0.029 A 
HETATM   18  C   UNL     1      19.546  50.130  48.933  1.00  0.00    -0.002 A 
HETATM   19  C   UNL     1      18.411  50.238  49.736  1.00  0.00     0.042 A 
HETATM   20  C   UNL     1      19.977  51.265  48.218  1.00  0.00     0.014 A 
HETATM   21  C   UNL     1      17.680  51.426  49.857  1.00  0.00     0.030 A 
HETATM   22  N   UNL     1      18.211  49.008  50.318  1.00  0.00    -0.365 N 
HETATM   23  C   UNL     1      18.125  52.537  49.135  1.00  0.00     0.002 A 
HETATM   24  C   UNL     1      19.258  52.461  48.327  1.00  0.00     0.001 A 
HETATM   25  H   UNL     1      17.456  48.794  50.954  1.00  0.00     0.165 HD
HETATM   26  C   UNL     1      19.178  48.127  49.913  1.00  0.00     0.096 A 
ENDBRANCH  16  17
ENDBRANCH  15  16
ENDBRANCH  12  15
ENDBRANCH   9  11
BRANCH   7  27
HETATM   27  N   UNL     1      25.301  43.193  50.828  1.00  0.00    -0.323 N 
HETATM   28  C   UNL     1      26.050  42.479  49.905  1.00  0.00     0.251 C 
HETATM   29  O   UNL     1      26.977  42.913  49.228  1.00  0.00    -0.270 OA
HETATM   30  H   UNL     1      24.809  42.572  51.471  1.00  0.00     0.169 HD
BRANCH  28  31
HETATM   31  C   UNL     1      25.563  41.019  49.811  1.00  0.00     0.213 C 
HETATM   32  O   UNL     1      26.339  40.190  50.705  1.00  0.00    -0.376 OA
HETATM   33  C   UNL     1      27.193  39.371  49.899  1.00  0.00     0.168 C 
HETATM   34  C   UNL     1      26.415  39.121  48.632  1.00  0.00     0.029 C 
HETATM   35  C   UNL     1      25.709  40.438  48.410  1.00  0.00     0.044 C 
ENDBRANCH  28  31
ENDBRANCH   7  27
BRANCH   3  36
HETATM   36  C   UNL     1      28.411  44.791  55.501  1.00  0.00     0.056 C 
HETATM   37  C   UNL     1      29.893  44.482  55.122  1.00  0.00     0.012 C 
HETATM   38  C   UNL     1      30.304  45.237  56.398  1.00  0.00     0.002 C 
HETATM   39  C   UNL     1      28.991  46.028  56.246  1.00  0.00     0.012 C 
ENDBRANCH   3  36
TORSDOF 7
ENDMDL
MODEL 2
REMARK VINA RESULT:     -10.2      1.972      5.267
REMARK  7 active torsions:
REMARK  status: ('A' for Active; 'I' for Inactive)
REMARK    1  A    between atoms: C_3  and  C_4 
REMARK    2  A    between atoms: C_11  and  N_12 
REMARK       I    between atoms: N_12  and  C_13 
REMARK    3  A    between atoms: C_13  and  C_14 
REMARK    4  A    between atoms: C_21  and  C_22 
REMARK       I    between atoms: C_22  and  N_23 
REMARK    5  A    between atoms: N_23  and  C_24 
REMARK    6  A    between atoms: C_24  and  C_25 
REMARK    7  A    between atoms: C_25  and  C_26 
ROOT
HETATM    1  C   UNL     1      28.034  40.875  51.511  1.00  0.00     0.158 C 
HETATM    2  N   UNL     1      27.625  41.886  50.567  1.00  0.00    -0.335 N 
HETATM    3  C   UNL     1      27.480  41.645  49.217  1.00  0.00     0.111 A 
HETATM    4  N   UNL     1      26.814  42.613  48.631  1.00  0.00    -0.233 NA
HETATM    5  C   UNL     1      26.561  43.527  49.617  1.00  0.00     0.089 A 
HETATM    6  C   UNL     1      27.122  43.144  50.841  1.00  0.00     0.091 A 
HETATM    7  C   UNL     1      27.001  43.956  51.984  1.00  0.00     0.065 A 
HETATM    8  C   UNL     1      26.205  45.110  51.857  1.00  0.00     0.049 A 
HETATM    9  C   UNL     1      25.639  45.503  50.639  1.00  0.00     0.036 A 
HETATM   10  C   UNL     1      25.822  44.715  49.503  1.00  0.00     0.051 A 
ENDROOT
BRANCH   9  11
HETATM   11  C   UNL     1      24.845  46.764  50.616  1.00  0.00     0.251 C 
HETATM   12  N   UNL     1      24.016  46.971  49.533  1.00  0.00    -0.357 N 
HETATM   13  H   UNL     1      24.070  46.363  48.727  1.00  0.00     0.162 HD
HETATM   14  O   UNL     1      24.974  47.577  51.526  1.00  0.00    -0.268 OA
BRANCH  12  15
HETATM   15  C   UNL     1      23.250  48.200  49.409  1.00  0.00     0.127 C 
BRANCH  15  16
HETATM   16  C   UNL     1      22.224  48.135  48.274  1.00  0.00     0.060 C 
BRANCH  16  17
HETATM   17  C   UNL     1      20.842  48.467  48.739  1.00  0.00    -0.029 A 
HETATM   18  C   UNL     1      20.250  49.771  48.759  1.00  0.00    -0.002 A 
HETATM   19  C   UNL     1      18.955  49.637  49.257  1.00  0.00     0.042 A 
HETATM   20  C   UNL     1      20.704  51.056  48.399  1.00  0.00     0.014 A 
HETATM   21  C   UNL     1      18.086  50.723  49.410  1.00  0.00     0.030 A 
HETATM   22  N   UNL     1      18.766  48.302  49.532  1.00  0.00    -0.365 N 
HETATM   23  C   UNL     1      18.558  51.987  49.042  1.00  0.00     0.002 A 
HETATM   24  C   UNL     1      19.848  52.154  48.544  1.00  0.00     0.001 A 
HETATM   25  H   UNL     1      17.913  47.912  49.907  1.00  0.00     0.165 HD
HETATM   26  C   UNL     1      19.894  47.589  49.226  1.00  0.00     0.096 A 
ENDBRANCH  16  17
ENDBRANCH  15  16
ENDBRANCH  12  15
ENDBRANCH   9  11
BRANCH   7  27
HETATM   27  N   UNL     1      27.578  43.744  53.247  1.00  0.00    -0.323 N 
HETATM   28  C   UNL     1      28.934  43.648  53.518  1.00  0.00     0.251 C 
HETATM   29  O   UNL     1      29.837  43.575  52.693  1.00  0.00    -0.270 OA
HETATM   30  H   UNL     1      27.058  44.095  54.053  1.00  0.00     0.169 HD
BRANCH  28  31
HETATM   31  C   UNL     1      29.192  43.632  55.039  1.00  0.00     0.213 C 
HETATM   32  O   UNL     1      28.942  44.946  55.587  1.00  0.00    -0.376 OA
HETATM   33  C   UNL     1      30.208  45.513  55.940  1.00  0.00     0.168 C 
HETATM   34  C   UNL     1      31.062  44.340  56.351  1.00  0.00     0.029 C 
HETATM   35  C   UNL     1      30.627  43.259  55.389  1.00  0.00     0.044 C 
ENDBRANCH  28  31
ENDBRANCH   7  27
BRANCH   3  36
HETATM   36  C   UNL     1      27.949  40.392  48.484  1.00  0.00     0.056 C 
HETATM   37  C   UNL     1      26.801  39.361  48.252  1.00  0.00     0.012 C 
HETATM   38  C   UNL     1      27.432  39.071  46.880  1.00  0.00     0.002 C 
HETATM   39  C   UNL     1      27.991  40.505  46.932  1.00  0.00     0.012 C 
ENDBRANCH   3  36
TORSDOF 7
ENDMDL
MODEL 3
REMARK VINA RESULT:     -10.1      2.862      9.756
REMARK  7 active torsions:
REMARK  status: ('A' for Active; 'I' for Inactive)
REMARK    1  A    between atoms: C_3  and  C_4 
REMARK    2  A    between atoms: C_11  and  N_12 
REMARK       I    between atoms: N_12  and  C_13 
REMARK    3  A    between atoms: C_13  and  C_14 
REMARK    4  A    between atoms: C_21  and  C_22 
REMARK       I    between atoms: C_22  and  N_23 
REMARK    5  A    between atoms: N_23  and  C_24 
REMARK    6  A    between atoms: C_24  and  C_25 
REMARK    7  A    between atoms: C_25  and  C_26 
ROOT
HETATM    1  C   UNL     1      21.650  46.909  47.115  1.00  0.00     0.158 C 
HETATM    2  N   UNL     1      22.624  47.346  48.085  1.00  0.00    -0.335 N 
HETATM    3  C   UNL     1      22.661  48.627  48.594  1.00  0.00     0.111 A 
HETATM    4  N   UNL     1      23.419  48.690  49.664  1.00  0.00    -0.233 NA
HETATM    5  C   UNL     1      23.924  47.429  49.826  1.00  0.00     0.089 A 
HETATM    6  C   UNL     1      23.508  46.565  48.806  1.00  0.00     0.091 A 
HETATM    7  C   UNL     1      23.933  45.224  48.768  1.00  0.00     0.065 A 
HETATM    8  C   UNL     1      24.706  44.776  49.856  1.00  0.00     0.049 A 
HETATM    9  C   UNL     1      25.128  45.630  50.880  1.00  0.00     0.036 A 
HETATM   10  C   UNL     1      24.746  46.971  50.868  1.00  0.00     0.051 A 
ENDROOT
BRANCH   9  11
HETATM   11  C   UNL     1      25.974  45.052  51.963  1.00  0.00     0.251 C 
HETATM   12  N   UNL     1      25.683  45.420  53.260  1.00  0.00    -0.357 N 
HETATM   13  H   UNL     1      25.025  46.165  53.442  1.00  0.00     0.162 HD
HETATM   14  O   UNL     1      26.905  44.308  51.671  1.00  0.00    -0.268 OA
BRANCH  12  15
HETATM   15  C   UNL     1      26.496  44.943  54.367  1.00  0.00     0.127 C 
BRANCH  15  16
HETATM   16  C   UNL     1      27.805  45.726  54.507  1.00  0.00     0.060 C 
BRANCH  16  17
HETATM   17  C   UNL     1      28.951  44.850  54.898  1.00  0.00    -0.029 A 
HETATM   18  C   UNL     1      29.725  44.962  56.099  1.00  0.00    -0.002 A 
HETATM   19  C   UNL     1      30.687  43.952  56.074  1.00  0.00     0.042 A 
HETATM   20  C   UNL     1      29.694  45.836  57.204  1.00  0.00     0.014 A 
HETATM   21  C   UNL     1      31.618  43.768  57.103  1.00  0.00     0.030 A 
HETATM   22  N   UNL     1      30.506  43.253  54.903  1.00  0.00    -0.365 N 
HETATM   23  C   UNL     1      31.564  44.646  58.190  1.00  0.00     0.002 A 
HETATM   24  C   UNL     1      30.617  45.667  58.242  1.00  0.00     0.001 A 
HETATM   25  H   UNL     1      31.066  42.462  54.619  1.00  0.00     0.165 HD
HETATM   26  C   UNL     1      29.466  43.784  54.187  1.00  0.00     0.096 A 
ENDBRANCH  16  17
ENDBRANCH  15  16
ENDBRANCH  12  15
ENDBRANCH   9  11
BRANCH   7  27
HETATM   27  N   UNL     1      23.668  44.272  47.770  1.00  0.00    -0.323 N 
HETATM   28  C   UNL     1      22.522  43.499  47.664  1.00  0.00     0.251 C 
HETATM   29  O   UNL     1      21.629  43.404  48.499  1.00  0.00    -0.270 OA
HETATM   30  H   UNL     1      24.098  44.432  46.858  1.00  0.00     0.169 HD
BRANCH  28  31
HETATM   31  C   UNL     1      22.497  42.732  46.327  1.00  0.00     0.213 C 
HETATM   32  O   UNL     1      22.128  43.631  45.257  1.00  0.00    -0.376 OA
HETATM   33  C   UNL     1      20.803  43.286  44.842  1.00  0.00     0.168 C 
HETATM   34  C   UNL     1      20.701  41.797  45.052  1.00  0.00     0.029 C 
HETATM   35  C   UNL     1      21.492  41.586  46.323  1.00  0.00     0.044 C 
ENDBRANCH  28  31
ENDBRANCH   7  27
BRANCH   3  36
HETATM   36  C   UNL     1      21.874  49.818  48.058  1.00  0.00     0.056 C 
HETATM   37  C   UNL     1      20.496  50.003  48.768  1.00  0.00     0.012 C 
HETATM   38  C   UNL     1      20.735  51.521  48.683  1.00  0.00     0.002 C 
HETATM   39  C   UNL     1      22.240  51.195  48.684  1.00  0.00     0.012 C 
ENDBRANCH   3  36
TORSDOF 7
ENDMDL
MODEL 4
REMARK VINA RESULT:     -10.0      3.124     10.954
REMARK  7 active torsions:
REMARK  status: ('A' for Active; 'I' for Inactive)
REMARK    1  A    between atoms: C_3  and  C_4 
REMARK    2  A    between atoms: C_11  and  N_12 
REMARK       I    between atoms: N_12  and  C_13 
REMARK    3  A    between atoms: C_13  and  C_14 
REMARK    4  A    between atoms: C_21  and  C_22 
REMARK       I    between atoms: C_22  and  N_23 
REMARK    5  A    between atoms: N_23  and  C_24 
REMARK    6  A    between atoms: C_24  and  C_25 
REMARK    7  A    between atoms: C_25  and  C_26 
ROOT
HETATM    1  C   UNL     1      19.542  47.914  46.513  1.00  0.00     0.158 C 
HETATM    2  N   UNL     1      20.453  47.006  47.167  1.00  0.00    -0.335 N 
HETATM    3  C   UNL     1      20.630  45.698  46.771  1.00  0.00     0.111 A 
HETATM    4  N   UNL     1      21.712  45.182  47.309  1.00  0.00    -0.233 NA
HETATM    5  C   UNL     1      22.222  46.165  48.111  1.00  0.00     0.089 A 
HETATM    6  C   UNL     1      21.416  47.310  48.111  1.00  0.00     0.091 A 
HETATM    7  C   UNL     1      21.747  48.434  48.891  1.00  0.00     0.065 A 
HETATM    8  C   UNL     1      22.973  48.385  49.580  1.00  0.00     0.049 A 
HETATM    9  C   UNL     1      23.787  47.247  49.588  1.00  0.00     0.036 A 
HETATM   10  C   UNL     1      23.411  46.120  48.857  1.00  0.00     0.051 A 
ENDROOT
BRANCH   9  11
HETATM   11  C   UNL     1      25.045  47.297  50.384  1.00  0.00     0.251 C 
HETATM   12  N   UNL     1      25.184  46.385  51.410  1.00  0.00    -0.357 N 
HETATM   13  H   UNL     1      24.398  45.818  51.696  1.00  0.00     0.162 HD
HETATM   14  O   UNL     1      25.889  48.151  50.129  1.00  0.00    -0.268 OA
BRANCH  12  15
HETATM   15  C   UNL     1      26.358  46.406  52.267  1.00  0.00     0.127 C 
BRANCH  15  16
HETATM   16  C   UNL     1      26.043  45.954  53.696  1.00  0.00     0.060 C 
BRANCH  16  17
HETATM   17  C   UNL     1      27.264  45.903  54.557  1.00  0.00    -0.029 A 
HETATM   18  C   UNL     1      28.263  44.876  54.543  1.00  0.00    -0.002 A 
HETATM   19  C   UNL     1      29.226  45.215  55.492  1.00  0.00     0.042 A 
HETATM   20  C   UNL     1      28.431  43.686  53.808  1.00  0.00     0.014 A 
HETATM   21  C   UNL     1      30.355  44.425  55.741  1.00  0.00     0.030 A 
HETATM   22  N   UNL     1      28.829  46.402  56.063  1.00  0.00    -0.365 N 
HETATM   23  C   UNL     1      30.501  43.251  54.995  1.00  0.00     0.002 A 
HETATM   24  C   UNL     1      29.553  42.884  54.043  1.00  0.00     0.001 A 
HETATM   25  H   UNL     1      29.340  46.886  56.788  1.00  0.00     0.165 HD
HETATM   26  C   UNL     1      27.649  46.825  55.511  1.00  0.00     0.096 A 
ENDBRANCH  16  17
ENDBRANCH  15  16
ENDBRANCH  12  15
ENDBRANCH   9  11
BRANCH   7  27
HETATM   27  N   UNL     1      20.997  49.610  49.055  1.00  0.00    -0.323 N 
HETATM   28  C   UNL     1      19.878  49.757  49.860  1.00  0.00     0.251 C 
HETATM   29  O   UNL     1      19.270  48.859  50.433  1.00  0.00    -0.270 OA
HETATM   30  H   UNL     1      21.497  50.493  48.944  1.00  0.00     0.169 HD
BRANCH  28  31
HETATM   31  C   UNL     1      19.457  51.238  49.953  1.00  0.00     0.213 C 
HETATM   32  O   UNL     1      18.044  51.323  50.247  1.00  0.00    -0.376 OA
HETATM   33  C   UNL     1      17.386  51.786  49.064  1.00  0.00     0.168 C 
HETATM   34  C   UNL     1      18.382  52.696  48.390  1.00  0.00     0.029 C 
HETATM   35  C   UNL     1      19.697  52.001  48.656  1.00  0.00     0.044 C 
ENDBRANCH  28  31
ENDBRANCH   7  27
BRANCH   3  36
HETATM   36  C   UNL     1      19.752  44.944  45.778  1.00  0.00     0.056 C 
HETATM   37  C   UNL     1      20.431  44.762  44.385  1.00  0.00     0.012 C 
HETATM   38  C   UNL     1      19.793  43.363  44.333  1.00  0.00     0.002 C 
HETATM   39  C   UNL     1      19.819  43.392  45.873  1.00  0.00     0.012 C 
ENDBRANCH   3  36
TORSDOF 7
ENDMDL
MODEL 5
REMARK VINA RESULT:      -9.7      3.125     10.635
REMARK  7 active torsions:
REMARK  status: ('A' for Active; 'I' for Inactive)
REMARK    1  A    between atoms: C_3  and  C_4 
REMARK    2  A    between atoms: C_11  and  N_12 
REMARK       I    between atoms: N_12  and  C_13 
REMARK    3  A    between atoms: C_13  and  C_14 
REMARK    4  A    between atoms: C_21  and  C_22 
REMARK       I    between atoms: C_22  and  N_23 
REMARK    5  A    between atoms: N_23  and  C_24 
REMARK    6  A    between atoms: C_24  and  C_25 
REMARK    7  A    between atoms: C_25  and  C_26 
ROOT
HETATM    1  C   UNL     1      20.553  46.393  46.426  1.00  0.00     0.158 C 
HETATM    2  N   UNL     1      21.450  45.380  46.926  1.00  0.00    -0.335 N 
HETATM    3  C   UNL     1      21.625  44.156  46.315  1.00  0.00     0.111 A 
HETATM    4  N   UNL     1      22.696  43.548  46.770  1.00  0.00    -0.233 NA
HETATM    5  C   UNL     1      23.203  44.377  47.732  1.00  0.00     0.089 A 
HETATM    6  C   UNL     1      22.404  45.512  47.918  1.00  0.00     0.091 A 
HETATM    7  C   UNL     1      22.733  46.485  48.880  1.00  0.00     0.065 A 
HETATM    8  C   UNL     1      23.950  46.310  49.564  1.00  0.00     0.049 A 
HETATM    9  C   UNL     1      24.757  45.181  49.388  1.00  0.00     0.036 A 
HETATM   10  C   UNL     1      24.383  44.197  48.472  1.00  0.00     0.051 A 
ENDROOT
BRANCH   9  11
HETATM   11  C   UNL     1      26.007  45.085  50.193  1.00  0.00     0.251 C 
HETATM   12  N   UNL     1      26.464  43.822  50.508  1.00  0.00    -0.357 N 
HETATM   13  H   UNL     1      25.886  43.013  50.327  1.00  0.00     0.162 HD
HETATM   14  O   UNL     1      26.562  46.112  50.572  1.00  0.00    -0.268 OA
BRANCH  12  15
HETATM   15  C   UNL     1      27.644  43.646  51.337  1.00  0.00     0.127 C 
BRANCH  15  16
HETATM   16  C   UNL     1      27.291  43.292  52.785  1.00  0.00     0.060 C 
BRANCH  16  17
HETATM   17  C   UNL     1      27.811  44.299  53.759  1.00  0.00    -0.029 A 
HETATM   18  C   UNL     1      28.947  44.134  54.616  1.00  0.00    -0.002 A 
HETATM   19  C   UNL     1      29.088  45.308  55.357  1.00  0.00     0.042 A 
HETATM   20  C   UNL     1      29.866  43.088  54.830  1.00  0.00     0.014 A 
HETATM   21  C   UNL     1      30.108  45.491  56.299  1.00  0.00     0.030 A 
HETATM   22  N   UNL     1      28.076  46.154  54.966  1.00  0.00    -0.365 N 
HETATM   23  C   UNL     1      31.010  44.439  56.490  1.00  0.00     0.002 A 
HETATM   24  C   UNL     1      30.892  43.253  55.768  1.00  0.00     0.001 A 
HETATM   25  H   UNL     1      27.933  47.082  55.339  1.00  0.00     0.165 HD
HETATM   26  C   UNL     1      27.301  45.559  54.007  1.00  0.00     0.096 A 
ENDBRANCH  16  17
ENDBRANCH  15  16
ENDBRANCH  12  15
ENDBRANCH   9  11
BRANCH   7  27
HETATM   27  N   UNL     1      21.988  47.622  49.233  1.00  0.00    -0.323 N 
HETATM   28  C   UNL     1      21.976  48.832  48.556  1.00  0.00     0.251 C 
HETATM   29  O   UNL     1      22.722  49.160  47.640  1.00  0.00    -0.270 OA
HETATM   30  H   UNL     1      21.109  47.460  49.725  1.00  0.00     0.169 HD
BRANCH  28  31
HETATM   31  C   UNL     1      20.880  49.763  49.112  1.00  0.00     0.213 C 
HETATM   32  O   UNL     1      19.621  49.473  48.464  1.00  0.00    -0.376 OA
HETATM   33  C   UNL     1      19.327  50.566  47.588  1.00  0.00     0.168 C 
HETATM   34  C   UNL     1      19.912  51.780  48.264  1.00  0.00     0.029 C 
HETATM   35  C   UNL     1      21.184  51.238  48.875  1.00  0.00     0.044 C 
ENDBRANCH  28  31
ENDBRANCH   7  27
BRANCH   3  36
HETATM   36  C   UNL     1      20.753  43.589  45.200  1.00  0.00     0.056 C 
HETATM   37  C   UNL     1      21.572  42.789  44.139  1.00  0.00     0.012 C 
HETATM   38  C   UNL     1      20.390  41.807  44.069  1.00  0.00     0.002 C 
HETATM   39  C   UNL     1      20.069  42.226  45.515  1.00  0.00     0.012 C 
ENDBRANCH   3  36
TORSDOF 7
ENDMDL
MODEL 6
REMARK VINA RESULT:      -9.6      2.672      9.024
REMARK  7 active torsions:
REMARK  status: ('A' for Active; 'I' for Inactive)
REMARK    1  A    between atoms: C_3  and  C_4 
REMARK    2  A    between atoms: C_11  and  N_12 
REMARK       I    between atoms: N_12  and  C_13 
REMARK    3  A    between atoms: C_13  and  C_14 
REMARK    4  A    between atoms: C_21  and  C_22 
REMARK       I    between atoms: C_22  and  N_23 
REMARK    5  A    between atoms: N_23  and  C_24 
REMARK    6  A    between atoms: C_24  and  C_25 
REMARK    7  A    between atoms: C_25  and  C_26 
ROOT
HETATM    1  C   UNL     1      21.982  46.705  47.357  1.00  0.00     0.158 C 
HETATM    2  N   UNL     1      22.915  47.251  48.312  1.00  0.00    -0.335 N 
HETATM    3  C   UNL     1      22.886  48.564  48.731  1.00  0.00     0.111 A 
HETATM    4  N   UNL     1      23.619  48.734  49.807  1.00  0.00    -0.233 NA
HETATM    5  C   UNL     1      24.176  47.512  50.064  1.00  0.00     0.089 A 
HETATM    6  C   UNL     1      23.819  46.562  49.099  1.00  0.00     0.091 A 
HETATM    7  C   UNL     1      24.303  45.242  49.162  1.00  0.00     0.065 A 
HETATM    8  C   UNL     1      25.073  44.905  50.291  1.00  0.00     0.049 A 
HETATM    9  C   UNL     1      25.437  45.845  51.261  1.00  0.00     0.036 A 
HETATM   10  C   UNL     1      24.996  47.164  51.150  1.00  0.00     0.051 A 
ENDROOT
BRANCH   9  11
HETATM   11  C   UNL     1      26.285  45.382  52.395  1.00  0.00     0.251 C 
HETATM   12  N   UNL     1      27.279  44.468  52.111  1.00  0.00    -0.357 N 
HETATM   13  H   UNL     1      27.319  44.025  51.203  1.00  0.00     0.162 HD
HETATM   14  O   UNL     1      26.059  45.794  53.528  1.00  0.00    -0.268 OA
BRANCH  12  15
HETATM   15  C   UNL     1      28.113  43.925  53.171  1.00  0.00     0.127 C 
BRANCH  15  16
HETATM   16  C   UNL     1      27.665  42.527  53.605  1.00  0.00     0.060 C 
BRANCH  16  17
HETATM   17  C   UNL     1      28.008  41.481  52.594  1.00  0.00    -0.029 A 
HETATM   18  C   UNL     1      27.229  41.137  51.441  1.00  0.00    -0.002 A 
HETATM   19  C   UNL     1      27.905  40.122  50.765  1.00  0.00     0.042 A 
HETATM   20  C   UNL     1      26.006  41.599  50.914  1.00  0.00     0.014 A 
HETATM   21  C   UNL     1      27.423  39.546  49.584  1.00  0.00     0.030 A 
HETATM   22  N   UNL     1      29.051  39.857  51.480  1.00  0.00    -0.365 N 
HETATM   23  C   UNL     1      26.209  40.025  49.079  1.00  0.00     0.002 A 
HETATM   24  C   UNL     1      25.508  41.035  49.733  1.00  0.00     0.001 A 
HETATM   25  H   UNL     1      29.736  39.161  51.221  1.00  0.00     0.165 HD
HETATM   26  C   UNL     1      29.123  40.666  52.582  1.00  0.00     0.096 A 
ENDBRANCH  16  17
ENDBRANCH  15  16
ENDBRANCH  12  15
ENDBRANCH   9  11
BRANCH   7  27
HETATM   27  N   UNL     1      24.101  44.213  48.227  1.00  0.00    -0.323 N 
HETATM   28  C   UNL     1      23.031  43.331  48.206  1.00  0.00     0.251 C 
HETATM   29  O   UNL     1      22.177  43.201  49.076  1.00  0.00    -0.270 OA
HETATM   30  H   UNL     1      24.485  44.360  47.293  1.00  0.00     0.169 HD
BRANCH  28  31
HETATM   31  C   UNL     1      23.039  42.488  46.914  1.00  0.00     0.213 C 
HETATM   32  O   UNL     1      22.053  43.004  45.991  1.00  0.00    -0.376 OA
HETATM   33  C   UNL     1      20.978  42.061  45.939  1.00  0.00     0.168 C 
HETATM   34  C   UNL     1      21.624  40.716  46.152  1.00  0.00     0.029 C 
HETATM   35  C   UNL     1      22.703  41.023  47.165  1.00  0.00     0.044 C 
ENDBRANCH  28  31
ENDBRANCH   7  27
BRANCH   3  36
HETATM   36  C   UNL     1      22.058  49.679  48.101  1.00  0.00     0.056 C 
HETATM   37  C   UNL     1      20.676  49.875  48.798  1.00  0.00     0.012 C 
HETATM   38  C   UNL     1      20.861  51.387  48.586  1.00  0.00     0.002 C 
HETATM   39  C   UNL     1      22.377  51.115  48.609  1.00  0.00     0.012 C 
ENDBRANCH   3  36
TORSDOF 7
ENDMDL
MODEL 7
REMARK VINA RESULT:      -9.5      1.441      1.792
REMARK  7 active torsions:
REMARK  status: ('A' for Active; 'I' for Inactive)
REMARK    1  A    between atoms: C_3  and  C_4 
REMARK    2  A    between atoms: C_11  and  N_12 
REMARK       I    between atoms: N_12  and  C_13 
REMARK    3  A    between atoms: C_13  and  C_14 
REMARK    4  A    between atoms: C_21  and  C_22 
REMARK       I    between atoms: C_22  and  N_23 
REMARK    5  A    between atoms: N_23  and  C_24 
REMARK    6  A    between atoms: C_24  and  C_25 
REMARK    7  A    between atoms: C_25  and  C_26 
ROOT
HETATM    1  C   UNL     1      27.362  42.964  53.036  1.00  0.00     0.158 C 
HETATM    2  N   UNL     1      26.799  44.290  53.121  1.00  0.00    -0.335 N 
HETATM    3  C   UNL     1      27.177  45.211  54.075  1.00  0.00     0.111 A 
HETATM    4  N   UNL     1      26.762  46.417  53.760  1.00  0.00    -0.233 NA
HETATM    5  C   UNL     1      26.058  46.266  52.597  1.00  0.00     0.089 A 
HETATM    6  C   UNL     1      25.991  44.926  52.197  1.00  0.00     0.091 A 
HETATM    7  C   UNL     1      25.291  44.546  51.037  1.00  0.00     0.065 A 
HETATM    8  C   UNL     1      24.757  45.586  50.253  1.00  0.00     0.049 A 
HETATM    9  C   UNL     1      24.817  46.929  50.642  1.00  0.00     0.036 A 
HETATM   10  C   UNL     1      25.464  47.279  51.828  1.00  0.00     0.051 A 
ENDROOT
BRANCH   9  11
HETATM   11  C   UNL     1      24.185  47.941  49.750  1.00  0.00     0.251 C 
HETATM   12  N   UNL     1      22.809  48.027  49.765  1.00  0.00    -0.357 N 
HETATM   13  H   UNL     1      22.260  47.328  50.245  1.00  0.00     0.162 HD
HETATM   14  O   UNL     1      24.891  48.631  49.021  1.00  0.00    -0.268 OA
BRANCH  12  15
HETATM   15  C   UNL     1      22.114  48.951  48.882  1.00  0.00     0.127 C 
BRANCH  15  16
HETATM   16  C   UNL     1      21.498  48.246  47.670  1.00  0.00     0.060 C 
BRANCH  16  17
HETATM   17  C   UNL     1      20.285  47.451  48.031  1.00  0.00    -0.029 A 
HETATM   18  C   UNL     1      18.936  47.933  48.047  1.00  0.00    -0.002 A 
HETATM   19  C   UNL     1      18.116  46.874  48.433  1.00  0.00     0.042 A 
HETATM   20  C   UNL     1      18.340  49.180  47.770  1.00  0.00     0.014 A 
HETATM   21  C   UNL     1      16.726  46.996  48.551  1.00  0.00     0.030 A 
HETATM   22  N   UNL     1      18.934  45.788  48.645  1.00  0.00    -0.365 N 
HETATM   23  C   UNL     1      16.159  48.242  48.266  1.00  0.00     0.002 A 
HETATM   24  C   UNL     1      16.952  49.321  47.883  1.00  0.00     0.001 A 
HETATM   25  H   UNL     1      18.609  44.877  48.935  1.00  0.00     0.165 HD
HETATM   26  C   UNL     1      20.240  46.123  48.408  1.00  0.00     0.096 A 
ENDBRANCH  16  17
ENDBRANCH  15  16
ENDBRANCH  12  15
ENDBRANCH   9  11
BRANCH   7  27
HETATM   27  N   UNL     1      25.069  43.243  50.562  1.00  0.00    -0.323 N 
HETATM   28  C   UNL     1      25.906  42.530  49.718  1.00  0.00     0.251 C 
HETATM   29  O   UNL     1      26.887  42.967  49.126  1.00  0.00    -0.270 OA
HETATM   30  H   UNL     1      24.525  42.623  51.162  1.00  0.00     0.169 HD
BRANCH  28  31
HETATM   31  C   UNL     1      25.441  41.065  49.591  1.00  0.00     0.213 C 
HETATM   32  O   UNL     1      26.157  40.244  50.541  1.00  0.00    -0.376 OA
HETATM   33  C   UNL     1      27.077  39.433  49.802  1.00  0.00     0.168 C 
HETATM   34  C   UNL     1      26.397  39.173  48.482  1.00  0.00     0.029 C 
HETATM   35  C   UNL     1      25.696  40.483  48.205  1.00  0.00     0.044 C 
ENDBRANCH  28  31
ENDBRANCH   7  27
BRANCH   3  36
HETATM   36  C   UNL     1      28.032  44.917  55.303  1.00  0.00     0.056 C 
HETATM   37  C   UNL     1      29.541  44.724  54.958  1.00  0.00     0.012 C 
HETATM   38  C   UNL     1      29.864  45.465  56.267  1.00  0.00     0.002 C 
HETATM   39  C   UNL     1      28.503  46.167  56.102  1.00  0.00     0.012 C 
ENDBRANCH   3  36
TORSDOF 7
ENDMDL
MODEL 8
REMARK VINA RESULT:      -9.3      1.529      1.950
REMARK  7 active torsions:
REMARK  status: ('A' for Active; 'I' for Inactive)
REMARK    1  A    between atoms: C_3  and  C_4 
REMARK    2  A    between atoms: C_11  and  N_12 
REMARK       I    between atoms: N_12  and  C_13 
REMARK    3  A    between atoms: C_13  and  C_14 
REMARK    4  A    between atoms: C_21  and  C_22 
REMARK       I    between atoms: C_22  and  N_23 
REMARK    5  A    between atoms: N_23  and  C_24 
REMARK    6  A    between atoms: C_24  and  C_25 
REMARK    7  A    between atoms: C_25  and  C_26 
ROOT
HETATM    1  C   UNL     1      28.886  43.217  51.908  1.00  0.00     0.158 C 
HETATM    2  N   UNL     1      27.658  43.962  52.044  1.00  0.00    -0.335 N 
HETATM    3  C   UNL     1      27.447  44.896  53.036  1.00  0.00     0.111 A 
HETATM    4  N   UNL     1      26.401  45.644  52.768  1.00  0.00    -0.233 NA
HETATM    5  C   UNL     1      25.893  45.151  51.598  1.00  0.00     0.089 A 
HETATM    6  C   UNL     1      26.612  44.038  51.143  1.00  0.00     0.091 A 
HETATM    7  C   UNL     1      26.241  43.362  49.966  1.00  0.00     0.065 A 
HETATM    8  C   UNL     1      25.185  43.922  49.223  1.00  0.00     0.049 A 
HETATM    9  C   UNL     1      24.459  45.033  49.666  1.00  0.00     0.036 A 
HETATM   10  C   UNL     1      24.804  45.653  50.867  1.00  0.00     0.051 A 
ENDROOT
BRANCH   9  11
HETATM   11  C   UNL     1      23.337  45.517  48.813  1.00  0.00     0.251 C 
HETATM   12  N   UNL     1      22.723  46.696  49.181  1.00  0.00    -0.357 N 
HETATM   13  H   UNL     1      22.931  47.120  50.075  1.00  0.00     0.162 HD
HETATM   14  O   UNL     1      22.980  44.849  47.847  1.00  0.00    -0.268 OA
BRANCH  12  15
HETATM   15  C   UNL     1      21.586  47.205  48.433  1.00  0.00     0.127 C 
BRANCH  15  16
HETATM   16  C   UNL     1      21.451  48.727  48.544  1.00  0.00     0.060 C 
BRANCH  16  17
HETATM   17  C   UNL     1      20.163  49.137  49.182  1.00  0.00    -0.029 A 
HETATM   18  C   UNL     1      19.522  50.411  49.043  1.00  0.00    -0.002 A 
HETATM   19  C   UNL     1      18.348  50.375  49.795  1.00  0.00     0.042 A 
HETATM   20  C   UNL     1      19.840  51.594  48.346  1.00  0.00     0.014 A 
HETATM   21  C   UNL     1      17.470  51.462  49.881  1.00  0.00     0.030 A 
HETATM   22  N   UNL     1      18.277  49.127  50.370  1.00  0.00    -0.365 N 
HETATM   23  C   UNL     1      17.805  52.623  49.176  1.00  0.00     0.002 A 
HETATM   24  C   UNL     1      18.973  52.691  48.420  1.00  0.00     0.001 A 
HETATM   25  H   UNL     1      17.527  48.819  50.972  1.00  0.00     0.165 HD
HETATM   26  C   UNL     1      19.363  48.375  50.011  1.00  0.00     0.096 A 
ENDBRANCH  16  17
ENDBRANCH  15  16
ENDBRANCH  12  15
ENDBRANCH   9  11
BRANCH   7  27
HETATM   27  N   UNL     1      26.810  42.192  49.438  1.00  0.00    -0.323 N 
HETATM   28  C   UNL     1      26.682  40.915  49.963  1.00  0.00     0.251 C 
HETATM   29  O   UNL     1      26.189  40.619  51.046  1.00  0.00    -0.270 OA
HETATM   30  H   UNL     1      26.960  42.169  48.429  1.00  0.00     0.169 HD
BRANCH  28  31
HETATM   31  C   UNL     1      27.261  39.862  48.996  1.00  0.00     0.213 C 
HETATM   32  O   UNL     1      27.203  38.555  49.610  1.00  0.00    -0.376 OA
HETATM   33  C   UNL     1      28.543  38.176  49.943  1.00  0.00     0.168 C 
HETATM   34  C   UNL     1      29.405  38.806  48.879  1.00  0.00     0.029 C 
HETATM   35  C   UNL     1      28.718  40.131  48.636  1.00  0.00     0.044 C 
ENDBRANCH  28  31
ENDBRANCH   7  27
BRANCH   3  36
HETATM   36  C   UNL     1      28.338  45.114  54.254  1.00  0.00     0.056 C 
HETATM   37  C   UNL     1      28.308  46.586  54.771  1.00  0.00     0.012 C 
HETATM   38  C   UNL     1      28.367  46.013  56.198  1.00  0.00     0.002 C 
HETATM   39  C   UNL     1      27.693  44.752  55.624  1.00  0.00     0.012 C 
ENDBRANCH   3  36
TORSDOF 7
ENDMDL
MODEL 9
REMARK VINA RESULT:      -9.1      2.642      9.738
REMARK  7 active torsions:
REMARK  status: ('A' for Active; 'I' for Inactive)
REMARK    1  A    between atoms: C_3  and  C_4 
REMARK    2  A    between atoms: C_11  and  N_12 
REMARK       I    between atoms: N_12  and  C_13 
REMARK    3  A    between atoms: C_13  and  C_14 
REMARK    4  A    between atoms: C_21  and  C_22 
REMARK       I    between atoms: C_22  and  N_23 
REMARK    5  A    between atoms: N_23  and  C_24 
REMARK    6  A    between atoms: C_24  and  C_25 
REMARK    7  A    between atoms: C_25  and  C_26 
ROOT
HETATM    1  C   UNL     1      21.650  44.205  46.550  1.00  0.00     0.158 C 
HETATM    2  N   UNL     1      22.680  43.956  47.529  1.00  0.00    -0.335 N 
HETATM    3  C   UNL     1      23.498  42.846  47.500  1.00  0.00     0.111 A 
HETATM    4  N   UNL     1      24.533  42.998  48.293  1.00  0.00    -0.233 NA
HETATM    5  C   UNL     1      24.358  44.218  48.887  1.00  0.00     0.089 A 
HETATM    6  C   UNL     1      23.160  44.825  48.491  1.00  0.00     0.091 A 
HETATM    7  C   UNL     1      22.773  46.077  49.004  1.00  0.00     0.065 A 
HETATM    8  C   UNL     1      23.695  46.726  49.847  1.00  0.00     0.049 A 
HETATM    9  C   UNL     1      24.895  46.129  50.250  1.00  0.00     0.036 A 
HETATM   10  C   UNL     1      25.232  44.861  49.778  1.00  0.00     0.051 A 
ENDROOT
BRANCH   9  11
HETATM   11  C   UNL     1      25.776  46.897  51.174  1.00  0.00     0.251 C 
HETATM   12  N   UNL     1      25.802  46.505  52.497  1.00  0.00    -0.357 N 
HETATM   13  H   UNL     1      25.134  45.829  52.841  1.00  0.00     0.162 HD
HETATM   14  O   UNL     1      26.415  47.853  50.747  1.00  0.00    -0.268 OA
BRANCH  12  15
HETATM   15  C   UNL     1      26.594  47.237  53.472  1.00  0.00     0.127 C 
BRANCH  15  16
HETATM   16  C   UNL     1      26.607  46.554  54.842  1.00  0.00     0.060 C 
BRANCH  16  17
HETATM   17  C   UNL     1      27.913  45.888  55.132  1.00  0.00    -0.029 A 
HETATM   18  C   UNL     1      28.431  44.726  54.472  1.00  0.00    -0.002 A 
HETATM   19  C   UNL     1      29.672  44.439  55.040  1.00  0.00     0.042 A 
HETATM   20  C   UNL     1      27.951  43.892  53.442  1.00  0.00     0.014 A 
HETATM   21  C   UNL     1      30.462  43.360  54.626  1.00  0.00     0.030 A 
HETATM   22  N   UNL     1      29.900  45.388  56.009  1.00  0.00    -0.365 N 
HETATM   23  C   UNL     1      29.966  42.550  53.599  1.00  0.00     0.002 A 
HETATM   24  C   UNL     1      28.728  42.809  53.015  1.00  0.00     0.001 A 
HETATM   25  H   UNL     1      30.728  45.425  56.587  1.00  0.00     0.165 HD
HETATM   26  C   UNL     1      28.849  46.263  56.076  1.00  0.00     0.096 A 
ENDBRANCH  16  17
ENDBRANCH  15  16
ENDBRANCH  12  15
ENDBRANCH   9  11
BRANCH   7  27
HETATM   27  N   UNL     1      21.571  46.763  48.765  1.00  0.00    -0.323 N 
HETATM   28  C   UNL     1      21.406  47.848  47.919  1.00  0.00     0.251 C 
HETATM   29  O   UNL     1      22.299  48.482  47.366  1.00  0.00    -0.270 OA
HETATM   30  H   UNL     1      20.709  46.223  48.854  1.00  0.00     0.169 HD
BRANCH  28  31
HETATM   31  C   UNL     1      19.913  48.193  47.750  1.00  0.00     0.213 C 
HETATM   32  O   UNL     1      19.630  49.457  48.391  1.00  0.00    -0.376 OA
HETATM   33  C   UNL     1      18.861  49.180  49.566  1.00  0.00     0.168 C 
HETATM   34  C   UNL     1      18.041  47.963  49.221  1.00  0.00     0.029 C 
HETATM   35  C   UNL     1      18.993  47.150  48.374  1.00  0.00     0.044 C 
ENDBRANCH  28  31
ENDBRANCH   7  27
BRANCH   3  36
HETATM   36  C   UNL     1      23.299  41.620  46.614  1.00  0.00     0.056 C 
HETATM   37  C   UNL     1      24.538  40.671  46.606  1.00  0.00     0.012 C 
HETATM   38  C   UNL     1      23.549  39.493  46.577  1.00  0.00     0.002 C 
HETATM   39  C   UNL     1      22.549  40.430  47.281  1.00  0.00     0.012 C 
ENDBRANCH   3  36
TORSDOF 7
ENDMDL
MODEL 10
REMARK VINA RESULT:      -9.0      2.855      3.988
REMARK  7 active torsions:
REMARK  status: ('A' for Active; 'I' for Inactive)
REMARK    1  A    between atoms: C_3  and  C_4 
REMARK    2  A    between atoms: C_11  and  N_12 
REMARK       I    between atoms: N_12  and  C_13 
REMARK    3  A    between atoms: C_13  and  C_14 
REMARK    4  A    between atoms: C_21  and  C_22 
REMARK       I    between atoms: C_22  and  N_23 
REMARK    5  A    between atoms: N_23  and  C_24 
REMARK    6  A    between atoms: C_24  and  C_25 
REMARK    7  A    between atoms: C_25  and  C_26 
ROOT
HETATM    1  C   UNL     1      28.625  40.206  51.034  1.00  0.00     0.158 C 
HETATM    2  N   UNL     1      27.535  41.091  51.367  1.00  0.00    -0.335 N 
HETATM    3  C   UNL     1      27.608  42.035  52.370  1.00  0.00     0.111 A 
HETATM    4  N   UNL     1      26.628  42.904  52.274  1.00  0.00    -0.233 NA
HETATM    5  C   UNL     1      25.875  42.486  51.212  1.00  0.00     0.089 A 
HETATM    6  C   UNL     1      26.368  41.300  50.656  1.00  0.00     0.091 A 
HETATM    7  C   UNL     1      25.726  40.683  49.566  1.00  0.00     0.065 A 
HETATM    8  C   UNL     1      24.634  41.371  49.006  1.00  0.00     0.049 A 
HETATM    9  C   UNL     1      24.131  42.557  49.553  1.00  0.00     0.036 A 
HETATM   10  C   UNL     1      24.745  43.121  50.671  1.00  0.00     0.051 A 
ENDROOT
BRANCH   9  11
HETATM   11  C   UNL     1      22.946  43.178  48.896  1.00  0.00     0.251 C 
HETATM   12  N   UNL     1      22.752  44.530  49.087  1.00  0.00    -0.357 N 
HETATM   13  H   UNL     1      23.306  45.033  49.767  1.00  0.00     0.162 HD
HETATM   14  O   UNL     1      22.178  42.477  48.245  1.00  0.00    -0.268 OA
BRANCH  12  15
HETATM   15  C   UNL     1      21.590  45.200  48.525  1.00  0.00     0.127 C 
BRANCH  15  16
HETATM   16  C   UNL     1      21.964  46.170  47.401  1.00  0.00     0.060 C 
BRANCH  16  17
HETATM   17  C   UNL     1      21.376  47.529  47.605  1.00  0.00    -0.029 A 
HETATM   18  C   UNL     1      22.093  48.707  47.994  1.00  0.00    -0.002 A 
HETATM   19  C   UNL     1      21.174  49.754  48.065  1.00  0.00     0.042 A 
HETATM   20  C   UNL     1      23.444  48.975  48.293  1.00  0.00     0.014 A 
HETATM   21  C   UNL     1      21.538  51.059  48.417  1.00  0.00     0.030 A 
HETATM   22  N   UNL     1      19.944  49.232  47.735  1.00  0.00    -0.365 N 
HETATM   23  C   UNL     1      22.885  51.300  48.706  1.00  0.00     0.002 A 
HETATM   24  C   UNL     1      23.827  50.275  48.647  1.00  0.00     0.001 A 
HETATM   25  H   UNL     1      19.088  49.767  47.704  1.00  0.00     0.165 HD
HETATM   26  C   UNL     1      20.053  47.896  47.458  1.00  0.00     0.096 A 
ENDBRANCH  16  17
ENDBRANCH  15  16
ENDBRANCH  12  15
ENDBRANCH   9  11
BRANCH   7  27
HETATM   27  N   UNL     1      26.054  39.458  48.964  1.00  0.00    -0.323 N 
HETATM   28  C   UNL     1      27.029  39.260  47.997  1.00  0.00     0.251 C 
HETATM   29  O   UNL     1      27.650  40.133  47.401  1.00  0.00    -0.270 OA
HETATM   30  H   UNL     1      25.905  38.617  49.523  1.00  0.00     0.169 HD
BRANCH  28  31
HETATM   31  C   UNL     1      27.248  37.756  47.736  1.00  0.00     0.213 C 
HETATM   32  O   UNL     1      26.840  37.432  46.388  1.00  0.00    -0.376 OA
HETATM   33  C   UNL     1      25.630  36.673  46.477  1.00  0.00     0.168 C 
HETATM   34  C   UNL     1      25.749  35.893  47.761  1.00  0.00     0.029 C 
HETATM   35  C   UNL     1      26.444  36.870  48.680  1.00  0.00     0.044 C 
ENDBRANCH  28  31
ENDBRANCH   7  27
BRANCH   3  36
HETATM   36  C   UNL     1      28.712  42.134  53.418  1.00  0.00     0.056 C 
HETATM   37  C   UNL     1      29.948  42.945  52.920  1.00  0.00     0.012 C 
HETATM   38  C   UNL     1      30.056  43.522  54.342  1.00  0.00     0.002 C 
HETATM   39  C   UNL     1      28.540  43.277  54.461  1.00  0.00     0.012 C 
ENDBRANCH   3  36
TORSDOF 7
ENDMDL
