MODEL 1
REMARK VINA RESULT:      -9.3      0.000      0.000
REMARK  6 active torsions:
REMARK  status: ('A' for Active; 'I' for Inactive)
REMARK    1  A    between atoms: C_9  and  C_10 
REMARK    2  A    between atoms: C_10  and  N_11 
REMARK       I    between atoms: N_11  and  C_12 
REMARK    3  A    between atoms: N_11  and  C_22 
REMARK    4  A    between atoms: C_12  and  C_13 
REMARK    5  A    between atoms: C_16  and  O_17 
REMARK    6  A    between atoms: C_22  and  C_23 
ROOT
HETATM    1  N   UNL     1      25.796  44.972  51.399  1.00  0.00    -0.341 N 
HETATM    2  C   UNL     1      25.468  46.294  51.719  1.00  0.00     0.254 C 
HETATM    3  O   UNL     1      25.214  46.677  52.861  1.00  0.00    -0.267 OA
ENDROOT
BRANCH   1   4
HETATM    4  C   UNL     1      25.802  44.001  52.494  1.00  0.00     0.170 C 
BRANCH   4   5
HETATM    5  C   UNL     1      27.132  43.920  53.185  1.00  0.00     0.029 A 
HETATM    6  C   UNL     1      28.071  42.838  52.761  1.00  0.00     0.253 A 
HETATM    7  N   UNL     1      29.265  42.751  53.431  1.00  0.00    -0.322 N 
HETATM    8  O   UNL     1      27.795  42.043  51.866  1.00  0.00    -0.268 OA
HETATM    9  C   UNL     1      29.613  43.571  54.511  1.00  0.00     0.045 A 
HETATM   10  H   UNL     1      29.888  42.017  53.129  1.00  0.00     0.169 HD
HETATM   11  C   UNL     1      28.720  44.562  54.930  1.00  0.00    -0.008 A 
HETATM   12  C   UNL     1      30.824  43.383  55.173  1.00  0.00     0.031 A 
HETATM   13  C   UNL     1      29.039  45.355  56.036  1.00  0.00     0.020 A 
HETATM   14  C   UNL     1      27.460  44.726  54.211  1.00  0.00     0.028 A 
HETATM   15  C   UNL     1      30.239  45.153  56.733  1.00  0.00    -0.061 A 
HETATM   16  C   UNL     1      30.578  46.010  57.917  1.00  0.00     0.048 C 
HETATM   17  C   UNL     1      31.137  44.176  56.279  1.00  0.00     0.009 A 
ENDBRANCH   4   5
ENDBRANCH   1   4
BRANCH   1  18
HETATM   18  C   UNL     1      25.578  44.399  50.058  1.00  0.00     0.158 C 
BRANCH  18  19
HETATM   19  C   UNL     1      24.092  44.079  49.782  1.00  0.00     0.139 C 
HETATM   20  O   UNL     1      23.817  42.705  50.130  1.00  0.00    -0.384 OA
HETATM   21  C   UNL     1      23.512  41.972  48.937  1.00  0.00     0.168 C 
HETATM   22  C   UNL     1      23.965  42.825  47.777  1.00  0.00     0.029 C 
HETATM   23  C   UNL     1      23.736  44.218  48.307  1.00  0.00     0.035 C 
ENDBRANCH  18  19
ENDBRANCH   1  18
BRANCH   2  24
HETATM   24  C   UNL     1      25.388  47.303  50.635  1.00  0.00     0.032 A 
HETATM   25  C   UNL     1      24.126  47.677  50.166  1.00  0.00     0.020 A 
HETATM   26  C   UNL     1      24.021  48.604  49.128  1.00  0.00     0.038 A 
HETATM   27  C   UNL     1      25.168  49.163  48.555  1.00  0.00     0.068 A 
HETATM   28  C   UNL     1      26.425  48.827  49.063  1.00  0.00     0.038 A 
HETATM   29  C   UNL     1      26.535  47.907  50.113  1.00  0.00     0.020 A 
BRANCH  27  30
HETATM   30  O   UNL     1      24.926  50.033  47.528  1.00  0.00    -0.356 OA
HETATM   31  C   UNL     1      23.669  50.702  47.543  1.00  0.00     0.210 C 
ENDBRANCH  27  30
ENDBRANCH   2  24
TORSDOF 6
ENDMDL
MODEL 2
REMARK VINA RESULT:      -8.6      3.171      6.991
REMARK  6 active torsions:
REMARK  status: ('A' for Active; 'I' for Inactive)
REMARK    1  A    between atoms: C_9  and  C_10 
REMARK    2  A    between atoms: C_10  and  N_11 
REMARK       I    between atoms: N_11  and  C_12 
REMARK    3  A    between atoms: N_11  and  C_22 
REMARK    4  A    between atoms: C_12  and  C_13 
REMARK    5  A    between atoms: C_16  and  O_17 
REMARK    6  A    between atoms: C_22  and  C_23 
ROOT
HETATM    1  N   UNL     1      26.261  43.994  51.760  1.00  0.00    -0.341 N 
HETATM    2  C   UNL     1      26.012  44.172  53.126  1.00  0.00     0.254 C 
HETATM    3  O   UNL     1      24.966  43.834  53.678  1.00  0.00    -0.267 OA
ENDROOT
BRANCH   1   4
HETATM    4  C   UNL     1      25.191  43.399  50.958  1.00  0.00     0.170 C 
BRANCH   4   5
HETATM    5  C   UNL     1      25.627  42.147  50.255  1.00  0.00     0.029 A 
HETATM    6  C   UNL     1      24.670  41.521  49.293  1.00  0.00     0.253 A 
HETATM    7  N   UNL     1      25.066  40.354  48.690  1.00  0.00    -0.322 N 
HETATM    8  O   UNL     1      23.567  42.008  49.054  1.00  0.00    -0.268 OA
HETATM    9  C   UNL     1      26.272  39.703  48.973  1.00  0.00     0.045 A 
HETATM   10  H   UNL     1      24.408  39.948  48.040  1.00  0.00     0.169 HD
HETATM   11  C   UNL     1      27.153  40.270  49.898  1.00  0.00    -0.008 A 
HETATM   12  C   UNL     1      26.576  38.491  48.355  1.00  0.00     0.031 A 
HETATM   13  C   UNL     1      28.338  39.603  50.221  1.00  0.00     0.020 A 
HETATM   14  C   UNL     1      26.797  41.540  50.524  1.00  0.00     0.028 A 
HETATM   15  C   UNL     1      28.640  38.366  49.633  1.00  0.00    -0.061 A 
HETATM   16  C   UNL     1      29.916  37.657  49.981  1.00  0.00     0.048 C 
HETATM   17  C   UNL     1      27.761  37.828  48.683  1.00  0.00     0.009 A 
ENDBRANCH   4   5
ENDBRANCH   1   4
BRANCH   1  18
HETATM   18  C   UNL     1      27.212  44.833  51.007  1.00  0.00     0.158 C 
BRANCH  18  19
HETATM   19  C   UNL     1      26.536  45.617  49.861  1.00  0.00     0.139 C 
HETATM   20  O   UNL     1      27.540  46.299  49.079  1.00  0.00    -0.384 OA
HETATM   21  C   UNL     1      27.386  47.713  49.251  1.00  0.00     0.168 C 
HETATM   22  C   UNL     1      26.497  47.910  50.455  1.00  0.00     0.029 C 
HETATM   23  C   UNL     1      25.598  46.701  50.378  1.00  0.00     0.035 C 
ENDBRANCH  18  19
ENDBRANCH   1  18
BRANCH   2  24
HETATM   24  C   UNL     1      27.040  44.828  53.969  1.00  0.00     0.032 A 
HETATM   25  C   UNL     1      28.172  44.094  54.331  1.00  0.00     0.020 A 
HETATM   26  C   UNL     1      29.143  44.677  55.146  1.00  0.00     0.038 A 
HETATM   27  C   UNL     1      28.994  45.990  55.602  1.00  0.00     0.068 A 
HETATM   28  C   UNL     1      27.887  46.739  55.194  1.00  0.00     0.038 A 
HETATM   29  C   UNL     1      26.916  46.163  54.366  1.00  0.00     0.020 A 
BRANCH  27  30
HETATM   30  O   UNL     1      30.000  46.429  56.417  1.00  0.00    -0.356 OA
HETATM   31  C   UNL     1      30.011  45.920  57.747  1.00  0.00     0.210 C 
ENDBRANCH  27  30
ENDBRANCH   2  24
TORSDOF 6
ENDMDL
MODEL 3
REMARK VINA RESULT:      -8.4     11.466     14.384
REMARK  6 active torsions:
REMARK  status: ('A' for Active; 'I' for Inactive)
REMARK    1  A    between atoms: C_9  and  C_10 
REMARK    2  A    between atoms: C_10  and  N_11 
REMARK       I    between atoms: N_11  and  C_12 
REMARK    3  A    between atoms: N_11  and  C_22 
REMARK    4  A    between atoms: C_12  and  C_13 
REMARK    5  A    between atoms: C_16  and  O_17 
REMARK    6  A    between atoms: C_22  and  C_23 
ROOT
HETATM    1  N   UNL     1      30.011  49.971  41.965  1.00  0.00    -0.341 N 
HETATM    2  C   UNL     1      31.120  49.378  42.579  1.00  0.00     0.254 C 
HETATM    3  O   UNL     1      31.099  48.258  43.089  1.00  0.00    -0.267 OA
ENDROOT
BRANCH   1   4
HETATM    4  C   UNL     1      28.760  49.212  41.967  1.00  0.00     0.170 C 
BRANCH   4   5
HETATM    5  C   UNL     1      28.543  48.456  40.690  1.00  0.00     0.029 A 
HETATM    6  C   UNL     1      27.593  49.035  39.692  1.00  0.00     0.253 A 
HETATM    7  N   UNL     1      27.373  48.311  38.548  1.00  0.00    -0.322 N 
HETATM    8  O   UNL     1      27.015  50.103  39.880  1.00  0.00    -0.268 OA
HETATM    9  C   UNL     1      27.935  47.053  38.302  1.00  0.00     0.045 A 
HETATM   10  H   UNL     1      26.732  48.720  37.883  1.00  0.00     0.169 HD
HETATM   11  C   UNL     1      28.797  46.495  39.251  1.00  0.00    -0.008 A 
HETATM   12  C   UNL     1      27.618  46.358  37.137  1.00  0.00     0.031 A 
HETATM   13  C   UNL     1      29.327  45.219  39.036  1.00  0.00     0.020 A 
HETATM   14  C   UNL     1      29.103  47.254  40.460  1.00  0.00     0.028 A 
HETATM   15  C   UNL     1      28.988  44.494  37.884  1.00  0.00    -0.061 A 
HETATM   16  C   UNL     1      29.562  43.127  37.656  1.00  0.00     0.048 C 
HETATM   17  C   UNL     1      28.148  45.083  36.928  1.00  0.00     0.009 A 
ENDBRANCH   4   5
ENDBRANCH   1   4
BRANCH   1  18
HETATM   18  C   UNL     1      29.854  51.432  41.843  1.00  0.00     0.158 C 
BRANCH  18  19
HETATM   19  C   UNL     1      29.940  51.921  40.380  1.00  0.00     0.139 C 
HETATM   20  O   UNL     1      30.710  50.981  39.598  1.00  0.00    -0.384 OA
HETATM   21  C   UNL     1      31.931  51.607  39.185  1.00  0.00     0.168 C 
HETATM   22  C   UNL     1      32.095  52.844  40.035  1.00  0.00     0.029 C 
HETATM   23  C   UNL     1      30.661  53.257  40.260  1.00  0.00     0.035 C 
ENDBRANCH  18  19
ENDBRANCH   1  18
BRANCH   2  24
HETATM   24  C   UNL     1      32.394  50.133  42.658  1.00  0.00     0.032 A 
HETATM   25  C   UNL     1      32.536  51.096  43.659  1.00  0.00     0.020 A 
HETATM   26  C   UNL     1      33.714  51.841  43.740  1.00  0.00     0.038 A 
HETATM   27  C   UNL     1      34.753  51.629  42.829  1.00  0.00     0.068 A 
HETATM   28  C   UNL     1      34.629  50.627  41.863  1.00  0.00     0.038 A 
HETATM   29  C   UNL     1      33.454  49.869  41.786  1.00  0.00     0.020 A 
BRANCH  27  30
HETATM   30  O   UNL     1      35.837  52.445  43.000  1.00  0.00    -0.356 OA
HETATM   31  C   UNL     1      36.255  52.675  44.341  1.00  0.00     0.210 C 
ENDBRANCH  27  30
ENDBRANCH   2  24
TORSDOF 6
ENDMDL
MODEL 4
REMARK VINA RESULT:      -8.3      2.351      3.416
REMARK  6 active torsions:
REMARK  status: ('A' for Active; 'I' for Inactive)
REMARK    1  A    between atoms: C_9  and  C_10 
REMARK    2  A    between atoms: C_10  and  N_11 
REMARK       I    between atoms: N_11  and  C_12 
REMARK    3  A    between atoms: N_11  and  C_22 
REMARK    4  A    between atoms: C_12  and  C_13 
REMARK    5  A    between atoms: C_16  and  O_17 
REMARK    6  A    between atoms: C_22  and  C_23 
ROOT
HETATM    1  N   UNL     1      25.600  42.551  50.124  1.00  0.00    -0.341 N 
HETATM    2  C   UNL     1      24.337  43.068  50.431  1.00  0.00     0.254 C 
HETATM    3  O   UNL     1      23.672  42.713  51.404  1.00  0.00    -0.267 OA
ENDROOT
BRANCH   1   4
HETATM    4  C   UNL     1      26.128  41.509  51.006  1.00  0.00     0.170 C 
BRANCH   4   5
HETATM    5  C   UNL     1      27.262  41.997  51.859  1.00  0.00     0.029 A 
HETATM    6  C   UNL     1      28.521  41.192  51.868  1.00  0.00     0.253 A 
HETATM    7  N   UNL     1      29.533  41.627  52.685  1.00  0.00    -0.322 N 
HETATM    8  O   UNL     1      28.654  40.174  51.192  1.00  0.00    -0.268 OA
HETATM    9  C   UNL     1      29.424  42.730  53.539  1.00  0.00     0.045 A 
HETATM   10  H   UNL     1      30.378  41.073  52.675  1.00  0.00     0.169 HD
HETATM   11  C   UNL     1      28.235  43.463  53.556  1.00  0.00    -0.008 A 
HETATM   12  C   UNL     1      30.482  43.075  54.378  1.00  0.00     0.031 A 
HETATM   13  C   UNL     1      28.100  44.539  54.440  1.00  0.00     0.020 A 
HETATM   14  C   UNL     1      27.149  43.069  52.663  1.00  0.00     0.028 A 
HETATM   15  C   UNL     1      29.143  44.875  55.314  1.00  0.00    -0.061 A 
HETATM   16  C   UNL     1      28.994  46.033  56.257  1.00  0.00     0.048 C 
HETATM   17  C   UNL     1      30.341  44.149  55.260  1.00  0.00     0.009 A 
ENDBRANCH   4   5
ENDBRANCH   1   4
BRANCH   1  18
HETATM   18  C   UNL     1      26.149  42.547  48.756  1.00  0.00     0.158 C 
BRANCH  18  19
HETATM   19  C   UNL     1      26.790  41.194  48.375  1.00  0.00     0.139 C 
HETATM   20  O   UNL     1      27.989  41.423  47.603  1.00  0.00    -0.384 OA
HETATM   21  C   UNL     1      27.782  40.950  46.267  1.00  0.00     0.168 C 
HETATM   22  C   UNL     1      26.294  40.754  46.101  1.00  0.00     0.029 C 
HETATM   23  C   UNL     1      25.877  40.351  47.493  1.00  0.00     0.035 C 
ENDBRANCH  18  19
ENDBRANCH   1  18
BRANCH   2  24
HETATM   24  C   UNL     1      23.731  44.081  49.533  1.00  0.00     0.032 A 
HETATM   25  C   UNL     1      24.059  45.425  49.728  1.00  0.00     0.020 A 
HETATM   26  C   UNL     1      23.483  46.402  48.915  1.00  0.00     0.038 A 
HETATM   27  C   UNL     1      22.583  46.048  47.905  1.00  0.00     0.068 A 
HETATM   28  C   UNL     1      22.300  44.699  47.678  1.00  0.00     0.038 A 
HETATM   29  C   UNL     1      22.885  43.713  48.483  1.00  0.00     0.020 A 
BRANCH  27  30
HETATM   30  O   UNL     1      22.070  47.103  47.202  1.00  0.00    -0.356 OA
HETATM   31  C   UNL     1      20.834  46.880  46.533  1.00  0.00     0.210 C 
ENDBRANCH  27  30
ENDBRANCH   2  24
TORSDOF 6
ENDMDL
MODEL 5
REMARK VINA RESULT:      -8.2      3.756      6.437
REMARK  6 active torsions:
REMARK  status: ('A' for Active; 'I' for Inactive)
REMARK    1  A    between atoms: C_9  and  C_10 
REMARK    2  A    between atoms: C_10  and  N_11 
REMARK       I    between atoms: N_11  and  C_12 
REMARK    3  A    between atoms: N_11  and  C_22 
REMARK    4  A    between atoms: C_12  and  C_13 
REMARK    5  A    between atoms: C_16  and  O_17 
REMARK    6  A    between atoms: C_22  and  C_23 
ROOT
HETATM    1  N   UNL     1      21.748  47.028  48.268  1.00  0.00    -0.341 N 
HETATM    2  C   UNL     1      20.435  46.837  48.713  1.00  0.00     0.254 C 
HETATM    3  O   UNL     1      19.948  45.731  48.947  1.00  0.00    -0.267 OA
ENDROOT
BRANCH   1   4
HETATM    4  C   UNL     1      22.559  45.830  48.047  1.00  0.00     0.170 C 
BRANCH   4   5
HETATM    5  C   UNL     1      23.336  45.428  49.266  1.00  0.00     0.029 A 
HETATM    6  C   UNL     1      23.165  44.032  49.770  1.00  0.00     0.253 A 
HETATM    7  N   UNL     1      23.849  43.692  50.909  1.00  0.00    -0.322 N 
HETATM    8  O   UNL     1      22.435  43.216  49.210  1.00  0.00    -0.268 OA
HETATM    9  C   UNL     1      24.635  44.589  51.642  1.00  0.00     0.045 A 
HETATM   10  H   UNL     1      23.725  42.743  51.232  1.00  0.00     0.169 HD
HETATM   11  C   UNL     1      24.768  45.904  51.190  1.00  0.00    -0.008 A 
HETATM   12  C   UNL     1      25.255  44.178  52.820  1.00  0.00     0.031 A 
HETATM   13  C   UNL     1      25.513  46.820  51.939  1.00  0.00     0.020 A 
HETATM   14  C   UNL     1      24.101  46.297  49.952  1.00  0.00     0.028 A 
HETATM   15  C   UNL     1      26.114  46.429  53.145  1.00  0.00    -0.061 A 
HETATM   16  C   UNL     1      26.915  47.414  53.943  1.00  0.00     0.048 C 
HETATM   17  C   UNL     1      25.997  45.097  53.566  1.00  0.00     0.009 A 
ENDBRANCH   4   5
ENDBRANCH   1   4
BRANCH   1  18
HETATM   18  C   UNL     1      22.164  48.214  47.497  1.00  0.00     0.158 C 
BRANCH  18  19
HETATM   19  C   UNL     1      23.072  49.163  48.309  1.00  0.00     0.139 C 
HETATM   20  O   UNL     1      22.579  49.269  49.662  1.00  0.00    -0.384 OA
HETATM   21  C   UNL     1      22.104  50.602  49.885  1.00  0.00     0.168 C 
HETATM   22  C   UNL     1      21.961  51.244  48.526  1.00  0.00     0.029 C 
HETATM   23  C   UNL     1      23.072  50.581  47.750  1.00  0.00     0.035 C 
ENDBRANCH  18  19
ENDBRANCH   1  18
BRANCH   2  24
HETATM   24  C   UNL     1      19.553  48.015  48.892  1.00  0.00     0.032 A 
HETATM   25  C   UNL     1      19.214  48.403  50.190  1.00  0.00     0.020 A 
HETATM   26  C   UNL     1      18.364  49.492  50.387  1.00  0.00     0.038 A 
HETATM   27  C   UNL     1      17.850  50.200  49.296  1.00  0.00     0.068 A 
HETATM   28  C   UNL     1      18.234  49.843  48.001  1.00  0.00     0.038 A 
HETATM   29  C   UNL     1      19.097  48.758  47.799  1.00  0.00     0.020 A 
BRANCH  27  30
HETATM   30  O   UNL     1      17.006  51.224  49.627  1.00  0.00    -0.356 OA
HETATM   31  C   UNL     1      17.577  52.527  49.680  1.00  0.00     0.210 C 
ENDBRANCH  27  30
ENDBRANCH   2  24
TORSDOF 6
ENDMDL
MODEL 6
REMARK VINA RESULT:      -8.1      8.149     13.202
REMARK  6 active torsions:
REMARK  status: ('A' for Active; 'I' for Inactive)
REMARK    1  A    between atoms: C_9  and  C_10 
REMARK    2  A    between atoms: C_10  and  N_11 
REMARK       I    between atoms: N_11  and  C_12 
REMARK    3  A    between atoms: N_11  and  C_22 
REMARK    4  A    between atoms: C_12  and  C_13 
REMARK    5  A    between atoms: C_16  and  O_17 
REMARK    6  A    between atoms: C_22  and  C_23 
ROOT
HETATM    1  N   UNL     1      17.266  50.495  48.169  1.00  0.00    -0.341 N 
HETATM    2  C   UNL     1      18.370  51.217  47.702  1.00  0.00     0.254 C 
HETATM    3  O   UNL     1      18.299  52.091  46.839  1.00  0.00    -0.267 OA
ENDROOT
BRANCH   1   4
HETATM    4  C   UNL     1      15.968  50.793  47.562  1.00  0.00     0.170 C 
BRANCH   4   5
HETATM    5  C   UNL     1      15.379  52.080  48.062  1.00  0.00     0.029 A 
HETATM    6  C   UNL     1      14.993  53.107  47.049  1.00  0.00     0.253 A 
HETATM    7  N   UNL     1      14.495  54.295  47.524  1.00  0.00    -0.322 N 
HETATM    8  O   UNL     1      15.123  52.921  45.842  1.00  0.00    -0.268 OA
HETATM    9  C   UNL     1      14.393  54.607  48.885  1.00  0.00     0.045 A 
HETATM   10  H   UNL     1      14.235  54.975  46.825  1.00  0.00     0.169 HD
HETATM   11  C   UNL     1      14.786  53.658  49.833  1.00  0.00    -0.008 A 
HETATM   12  C   UNL     1      13.926  55.857  49.284  1.00  0.00     0.031 A 
HETATM   13  C   UNL     1      14.730  53.978  51.193  1.00  0.00     0.020 A 
HETATM   14  C   UNL     1      15.271  52.360  49.374  1.00  0.00     0.028 A 
HETATM   15  C   UNL     1      14.296  55.245  51.608  1.00  0.00    -0.061 A 
HETATM   16  C   UNL     1      14.234  55.581  53.069  1.00  0.00     0.048 C 
HETATM   17  C   UNL     1      13.874  56.172  50.644  1.00  0.00     0.009 A 
ENDBRANCH   4   5
ENDBRANCH   1   4
BRANCH   1  18
HETATM   18  C   UNL     1      17.384  49.149  48.759  1.00  0.00     0.158 C 
BRANCH  18  19
HETATM   19  C   UNL     1      16.898  48.036  47.804  1.00  0.00     0.139 C 
HETATM   20  O   UNL     1      16.770  46.794  48.529  1.00  0.00    -0.384 OA
HETATM   21  C   UNL     1      17.750  45.867  48.047  1.00  0.00     0.168 C 
HETATM   22  C   UNL     1      18.754  46.670  47.255  1.00  0.00     0.029 C 
HETATM   23  C   UNL     1      17.891  47.766  46.680  1.00  0.00     0.035 C 
ENDBRANCH  18  19
ENDBRANCH   1  18
BRANCH   2  24
HETATM   24  C   UNL     1      19.717  50.908  48.241  1.00  0.00     0.032 A 
HETATM   25  C   UNL     1      20.635  50.264  47.409  1.00  0.00     0.020 A 
HETATM   26  C   UNL     1      21.901  49.937  47.899  1.00  0.00     0.038 A 
HETATM   27  C   UNL     1      22.258  50.251  49.214  1.00  0.00     0.068 A 
HETATM   28  C   UNL     1      21.356  50.944  50.025  1.00  0.00     0.038 A 
HETATM   29  C   UNL     1      20.090  51.285  49.535  1.00  0.00     0.020 A 
BRANCH  27  30
HETATM   30  O   UNL     1      23.514  49.848  49.575  1.00  0.00    -0.356 OA
HETATM   31  C   UNL     1      23.774  48.450  49.523  1.00  0.00     0.210 C 
ENDBRANCH  27  30
ENDBRANCH   2  24
TORSDOF 6
ENDMDL
MODEL 7
REMARK VINA RESULT:      -8.1     10.538     13.622
REMARK  6 active torsions:
REMARK  status: ('A' for Active; 'I' for Inactive)
REMARK    1  A    between atoms: C_9  and  C_10 
REMARK    2  A    between atoms: C_10  and  N_11 
REMARK       I    between atoms: N_11  and  C_12 
REMARK    3  A    between atoms: N_11  and  C_22 
REMARK    4  A    between atoms: C_12  and  C_13 
REMARK    5  A    between atoms: C_16  and  O_17 
REMARK    6  A    between atoms: C_22  and  C_23 
ROOT
HETATM    1  N   UNL     1      29.369  48.760  38.776  1.00  0.00    -0.341 N 
HETATM    2  C   UNL     1      29.317  50.136  38.530  1.00  0.00     0.254 C 
HETATM    3  O   UNL     1      28.386  50.691  37.947  1.00  0.00    -0.267 OA
ENDROOT
BRANCH   1   4
HETATM    4  C   UNL     1      28.257  47.949  38.276  1.00  0.00     0.170 C 
BRANCH   4   5
HETATM    5  C   UNL     1      27.629  47.109  39.349  1.00  0.00     0.029 A 
HETATM    6  C   UNL     1      26.771  47.798  40.359  1.00  0.00     0.253 A 
HETATM    7  N   UNL     1      26.239  47.023  41.358  1.00  0.00    -0.322 N 
HETATM    8  O   UNL     1      26.556  49.008  40.322  1.00  0.00    -0.268 OA
HETATM    9  C   UNL     1      26.504  45.657  41.508  1.00  0.00     0.045 A 
HETATM   10  H   UNL     1      25.658  47.505  42.029  1.00  0.00     0.169 HD
HETATM   11  C   UNL     1      27.333  45.018  40.582  1.00  0.00    -0.008 A 
HETATM   12  C   UNL     1      25.965  44.951  42.582  1.00  0.00     0.031 A 
HETATM   13  C   UNL     1      27.641  43.664  40.750  1.00  0.00     0.020 A 
HETATM   14  C   UNL     1      27.880  45.793  39.471  1.00  0.00     0.028 A 
HETATM   15  C   UNL     1      27.134  42.951  41.845  1.00  0.00    -0.061 A 
HETATM   16  C   UNL     1      27.465  41.498  42.018  1.00  0.00     0.048 C 
HETATM   17  C   UNL     1      26.277  43.600  42.746  1.00  0.00     0.009 A 
ENDBRANCH   4   5
ENDBRANCH   1   4
BRANCH   1  18
HETATM   18  C   UNL     1      30.636  48.030  38.965  1.00  0.00     0.158 C 
BRANCH  18  19
HETATM   19  C   UNL     1      30.828  47.537  40.416  1.00  0.00     0.139 C 
HETATM   20  O   UNL     1      30.075  48.375  41.319  1.00  0.00    -0.384 OA
HETATM   21  C   UNL     1      30.985  49.107  42.148  1.00  0.00     0.168 C 
HETATM   22  C   UNL     1      32.345  48.999  41.500  1.00  0.00     0.029 C 
HETATM   23  C   UNL     1      32.280  47.630  40.870  1.00  0.00     0.035 C 
ENDBRANCH  18  19
ENDBRANCH   1  18
BRANCH   2  24
HETATM   24  C   UNL     1      30.449  50.991  38.962  1.00  0.00     0.032 A 
HETATM   25  C   UNL     1      31.637  50.944  38.229  1.00  0.00     0.020 A 
HETATM   26  C   UNL     1      32.727  51.718  38.628  1.00  0.00     0.038 A 
HETATM   27  C   UNL     1      32.641  52.542  39.754  1.00  0.00     0.068 A 
HETATM   28  C   UNL     1      31.434  52.628  40.453  1.00  0.00     0.038 A 
HETATM   29  C   UNL     1      30.333  51.863  40.049  1.00  0.00     0.020 A 
BRANCH  27  30
HETATM   30  O   UNL     1      33.789  53.222  40.053  1.00  0.00    -0.356 OA
HETATM   31  C   UNL     1      35.008  52.638  39.609  1.00  0.00     0.210 C 
ENDBRANCH  27  30
ENDBRANCH   2  24
TORSDOF 6
ENDMDL
MODEL 8
REMARK VINA RESULT:      -8.0      2.502      7.313
REMARK  6 active torsions:
REMARK  status: ('A' for Active; 'I' for Inactive)
REMARK    1  A    between atoms: C_9  and  C_10 
REMARK    2  A    between atoms: C_10  and  N_11 
REMARK       I    between atoms: N_11  and  C_12 
REMARK    3  A    between atoms: N_11  and  C_22 
REMARK    4  A    between atoms: C_12  and  C_13 
REMARK    5  A    between atoms: C_16  and  O_17 
REMARK    6  A    between atoms: C_22  and  C_23 
ROOT
HETATM    1  N   UNL     1      25.444  45.274  51.743  1.00  0.00    -0.341 N 
HETATM    2  C   UNL     1      25.515  44.718  53.025  1.00  0.00     0.254 C 
HETATM    3  O   UNL     1      24.632  44.014  53.514  1.00  0.00    -0.267 OA
ENDROOT
BRANCH   1   4
HETATM    4  C   UNL     1      24.230  45.016  50.969  1.00  0.00     0.170 C 
BRANCH   4   5
HETATM    5  C   UNL     1      24.365  43.827  50.064  1.00  0.00     0.029 A 
HETATM    6  C   UNL     1      23.112  43.217  49.525  1.00  0.00     0.253 A 
HETATM    7  N   UNL     1      23.250  42.106  48.733  1.00  0.00    -0.322 N 
HETATM    8  O   UNL     1      21.999  43.669  49.783  1.00  0.00    -0.268 OA
HETATM    9  C   UNL     1      24.478  41.491  48.461  1.00  0.00     0.045 A 
HETATM   10  H   UNL     1      22.393  41.710  48.374  1.00  0.00     0.169 HD
HETATM   11  C   UNL     1      25.648  42.042  48.993  1.00  0.00    -0.008 A 
HETATM   12  C   UNL     1      24.527  40.332  47.690  1.00  0.00     0.031 A 
HETATM   13  C   UNL     1      26.874  41.409  48.765  1.00  0.00     0.020 A 
HETATM   14  C   UNL     1      25.554  43.256  49.798  1.00  0.00     0.028 A 
HETATM   15  C   UNL     1      26.933  40.223  48.020  1.00  0.00    -0.061 A 
HETATM   16  C   UNL     1      28.252  39.550  47.776  1.00  0.00     0.048 C 
HETATM   17  C   UNL     1      25.754  39.703  47.467  1.00  0.00     0.009 A 
ENDBRANCH   4   5
ENDBRANCH   1   4
BRANCH   1  18
HETATM   18  C   UNL     1      26.180  46.494  51.361  1.00  0.00     0.158 C 
BRANCH  18  19
HETATM   19  C   UNL     1      26.109  46.781  49.845  1.00  0.00     0.139 C 
HETATM   20  O   UNL     1      27.411  46.582  49.251  1.00  0.00    -0.384 OA
HETATM   21  C   UNL     1      27.915  47.843  48.796  1.00  0.00     0.168 C 
HETATM   22  C   UNL     1      27.070  48.910  49.449  1.00  0.00     0.029 C 
HETATM   23  C   UNL     1      25.729  48.226  49.548  1.00  0.00     0.035 C 
ENDBRANCH  18  19
ENDBRANCH   1  18
BRANCH   2  24
HETATM   24  C   UNL     1      26.698  45.002  53.873  1.00  0.00     0.032 A 
HETATM   25  C   UNL     1      26.698  46.165  54.648  1.00  0.00     0.020 A 
HETATM   26  C   UNL     1      27.810  46.471  55.434  1.00  0.00     0.038 A 
HETATM   27  C   UNL     1      28.922  45.624  55.456  1.00  0.00     0.068 A 
HETATM   28  C   UNL     1      28.896  44.435  54.722  1.00  0.00     0.038 A 
HETATM   29  C   UNL     1      27.778  44.117  53.941  1.00  0.00     0.020 A 
BRANCH  27  30
HETATM   30  O   UNL     1      29.953  46.056  56.243  1.00  0.00    -0.356 OA
HETATM   31  C   UNL     1      30.711  45.051  56.907  1.00  0.00     0.210 C 
ENDBRANCH  27  30
ENDBRANCH   2  24
TORSDOF 6
ENDMDL
MODEL 9
REMARK VINA RESULT:      -7.8      3.196      5.476
REMARK  6 active torsions:
REMARK  status: ('A' for Active; 'I' for Inactive)
REMARK    1  A    between atoms: C_9  and  C_10 
REMARK    2  A    between atoms: C_10  and  N_11 
REMARK       I    between atoms: N_11  and  C_12 
REMARK    3  A    between atoms: N_11  and  C_22 
REMARK    4  A    between atoms: C_12  and  C_13 
REMARK    5  A    between atoms: C_16  and  O_17 
REMARK    6  A    between atoms: C_22  and  C_23 
ROOT
HETATM    1  N   UNL     1      26.301  41.261  49.562  1.00  0.00    -0.341 N 
HETATM    2  C   UNL     1      26.585  40.231  48.658  1.00  0.00     0.254 C 
HETATM    3  O   UNL     1      26.738  39.056  48.988  1.00  0.00    -0.267 OA
ENDROOT
BRANCH   1   4
HETATM    4  C   UNL     1      26.215  40.902  50.978  1.00  0.00     0.170 C 
BRANCH   4   5
HETATM    5  C   UNL     1      27.290  41.547  51.803  1.00  0.00     0.029 A 
HETATM    6  C   UNL     1      28.620  40.869  51.866  1.00  0.00     0.253 A 
HETATM    7  N   UNL     1      29.579  41.449  52.657  1.00  0.00    -0.322 N 
HETATM    8  O   UNL     1      28.855  39.828  51.256  1.00  0.00    -0.268 OA
HETATM    9  C   UNL     1      29.357  42.588  53.440  1.00  0.00     0.045 A 
HETATM   10  H   UNL     1      30.472  40.979  52.684  1.00  0.00     0.169 HD
HETATM   11  C   UNL     1      28.103  43.204  53.407  1.00  0.00    -0.008 A 
HETATM   12  C   UNL     1      30.370  43.084  54.258  1.00  0.00     0.031 A 
HETATM   13  C   UNL     1      27.858  44.315  54.220  1.00  0.00     0.020 A 
HETATM   14  C   UNL     1      27.068  42.652  52.538  1.00  0.00     0.028 A 
HETATM   15  C   UNL     1      28.857  44.803  55.075  1.00  0.00    -0.061 A 
HETATM   16  C   UNL     1      28.590  45.997  55.943  1.00  0.00     0.048 C 
HETATM   17  C   UNL     1      30.119  44.193  55.070  1.00  0.00     0.009 A 
ENDBRANCH   4   5
ENDBRANCH   1   4
BRANCH   1  18
HETATM   18  C   UNL     1      26.637  42.672  49.296  1.00  0.00     0.158 C 
BRANCH  18  19
HETATM   19  C   UNL     1      25.407  43.509  48.882  1.00  0.00     0.139 C 
HETATM   20  O   UNL     1      25.627  44.896  49.218  1.00  0.00    -0.384 OA
HETATM   21  C   UNL     1      24.712  45.278  50.253  1.00  0.00     0.168 C 
HETATM   22  C   UNL     1      24.155  44.000  50.833  1.00  0.00     0.029 C 
HETATM   23  C   UNL     1      24.146  43.091  49.629  1.00  0.00     0.035 C 
ENDBRANCH  18  19
ENDBRANCH   1  18
BRANCH   2  24
HETATM   24  C   UNL     1      26.744  40.555  47.220  1.00  0.00     0.032 A 
HETATM   25  C   UNL     1      28.036  40.681  46.704  1.00  0.00     0.020 A 
HETATM   26  C   UNL     1      28.215  41.011  45.360  1.00  0.00     0.038 A 
HETATM   27  C   UNL     1      27.112  41.216  44.525  1.00  0.00     0.068 A 
HETATM   28  C   UNL     1      25.822  41.036  45.031  1.00  0.00     0.038 A 
HETATM   29  C   UNL     1      25.638  40.692  46.376  1.00  0.00     0.020 A 
BRANCH  27  30
HETATM   30  O   UNL     1      27.426  41.564  43.240  1.00  0.00    -0.356 OA
HETATM   31  C   UNL     1      26.749  42.694  42.703  1.00  0.00     0.210 C 
ENDBRANCH  27  30
ENDBRANCH   2  24
TORSDOF 6
ENDMDL
MODEL 10
REMARK VINA RESULT:      -7.7     11.007     13.746
REMARK  6 active torsions:
REMARK  status: ('A' for Active; 'I' for Inactive)
REMARK    1  A    between atoms: C_9  and  C_10 
REMARK    2  A    between atoms: C_10  and  N_11 
REMARK       I    between atoms: N_11  and  C_12 
REMARK    3  A    between atoms: N_11  and  C_22 
REMARK    4  A    between atoms: C_12  and  C_13 
REMARK    5  A    between atoms: C_16  and  O_17 
REMARK    6  A    between atoms: C_22  and  C_23 
ROOT
HETATM    1  N   UNL     1      28.981  49.380  39.673  1.00  0.00    -0.341 N 
HETATM    2  C   UNL     1      30.340  49.047  39.715  1.00  0.00     0.254 C 
HETATM    3  O   UNL     1      30.834  48.115  39.081  1.00  0.00    -0.267 OA
ENDROOT
BRANCH   1   4
HETATM    4  C   UNL     1      28.113  48.540  38.848  1.00  0.00     0.170 C 
BRANCH   4   5
HETATM    5  C   UNL     1      27.022  47.883  39.643  1.00  0.00     0.029 A 
HETATM    6  C   UNL     1      27.372  46.656  40.420  1.00  0.00     0.253 A 
HETATM    7  N   UNL     1      26.355  46.043  41.107  1.00  0.00    -0.322 N 
HETATM    8  O   UNL     1      28.510  46.193  40.440  1.00  0.00    -0.268 OA
HETATM    9  C   UNL     1      25.022  46.466  41.067  1.00  0.00     0.045 A 
HETATM   10  H   UNL     1      26.611  45.217  41.630  1.00  0.00     0.169 HD
HETATM   11  C   UNL     1      24.688  47.595  40.313  1.00  0.00    -0.008 A 
HETATM   12  C   UNL     1      24.039  45.756  41.752  1.00  0.00     0.031 A 
HETATM   13  C   UNL     1      23.352  47.999  40.229  1.00  0.00     0.020 A 
HETATM   14  C   UNL     1      25.747  48.311  39.608  1.00  0.00     0.028 A 
HETATM   15  C   UNL     1      22.348  47.273  40.885  1.00  0.00    -0.061 A 
HETATM   16  C   UNL     1      20.917  47.713  40.795  1.00  0.00     0.048 C 
HETATM   17  C   UNL     1      22.705  46.162  41.663  1.00  0.00     0.009 A 
ENDBRANCH   4   5
ENDBRANCH   1   4
BRANCH   1  18
HETATM   18  C   UNL     1      28.301  50.092  40.771  1.00  0.00     0.158 C 
BRANCH  18  19
HETATM   19  C   UNL     1      27.715  51.450  40.327  1.00  0.00     0.139 C 
HETATM   20  O   UNL     1      28.291  51.838  39.061  1.00  0.00    -0.384 OA
HETATM   21  C   UNL     1      29.107  53.001  39.254  1.00  0.00     0.168 C 
HETATM   22  C   UNL     1      29.338  53.126  40.741  1.00  0.00     0.029 C 
HETATM   23  C   UNL     1      28.053  52.571  41.303  1.00  0.00     0.035 C 
ENDBRANCH  18  19
ENDBRANCH   1  18
BRANCH   2  24
HETATM   24  C   UNL     1      31.250  49.829  40.586  1.00  0.00     0.032 A 
HETATM   25  C   UNL     1      31.357  49.470  41.931  1.00  0.00     0.020 A 
HETATM   26  C   UNL     1      32.185  50.205  42.780  1.00  0.00     0.038 A 
HETATM   27  C   UNL     1      32.912  51.297  42.295  1.00  0.00     0.068 A 
HETATM   28  C   UNL     1      32.845  51.620  40.937  1.00  0.00     0.038 A 
HETATM   29  C   UNL     1      32.025  50.877  40.079  1.00  0.00     0.020 A 
BRANCH  27  30
HETATM   30  O   UNL     1      33.660  51.948  43.236  1.00  0.00    -0.356 OA
HETATM   31  C   UNL     1      33.138  51.970  44.560  1.00  0.00     0.210 C 
ENDBRANCH  27  30
ENDBRANCH   2  24
TORSDOF 6
ENDMDL
