MODEL 1
REMARK VINA RESULT:      -9.7      0.000      0.000
REMARK  6 active torsions:
REMARK  status: ('A' for Active; 'I' for Inactive)
REMARK    1  A    between atoms: C_5  and  O_6 
REMARK    2  A    between atoms: O_6  and  C_7 
REMARK    3  A    between atoms: C_7  and  C_8 
REMARK       I    between atoms: C_8  and  N_9 
REMARK    4  A    between atoms: N_9  and  C_10 
REMARK    5  A    between atoms: C_10  and  C_11 
REMARK       I    between atoms: C_11  and  N_12 
REMARK    6  A    between atoms: N_12  and  N_13 
ROOT
HETATM    1  C   UNL     1      25.978  43.927  52.934  1.00  0.00     0.255 C 
HETATM    2  N   UNL     1      27.181  43.447  52.439  1.00  0.00    -0.245 N 
HETATM    3  O   UNL     1      24.897  43.881  52.348  1.00  0.00    -0.270 OA
HETATM    4  H   UNL     1      28.023  43.441  53.019  1.00  0.00     0.192 HD
ENDROOT
BRANCH   1   5
HETATM    5  C   UNL     1      26.126  44.618  54.291  1.00  0.00     0.227 C 
BRANCH   5   6
HETATM    6  N   UNL     1      25.636  45.986  54.214  1.00  0.00    -0.350 N 
HETATM    7  C   UNL     1      26.290  47.138  54.549  1.00  0.00     0.242 C 
HETATM    8  O   UNL     1      25.670  48.202  54.555  1.00  0.00    -0.271 OA
HETATM    9  H   UNL     1      24.631  46.097  54.110  1.00  0.00     0.163 HD
BRANCH   7  10
HETATM   10  C   UNL     1      27.788  47.078  54.830  1.00  0.00     0.278 C 
BRANCH  10  11
HETATM   11  O   UNL     1      27.997  46.928  56.232  1.00  0.00    -0.342 OA
BRANCH  11  12
HETATM   12  C   UNL     1      28.979  46.033  56.555  1.00  0.00     0.069 A 
HETATM   13  C   UNL     1      29.394  45.181  55.534  1.00  0.00     0.037 A 
HETATM   14  C   UNL     1      30.412  44.251  55.762  1.00  0.00     0.009 A 
HETATM   15  C   UNL     1      31.033  44.175  57.013  1.00  0.00    -0.062 A 
HETATM   16  C   UNL     1      32.152  43.207  57.254  1.00  0.00     0.048 C 
HETATM   17  C   UNL     1      30.638  45.062  58.022  1.00  0.00     0.009 A 
HETATM   18  C   UNL     1      29.616  45.988  57.795  1.00  0.00     0.037 A 
ENDBRANCH  11  12
ENDBRANCH  10  11
ENDBRANCH   7  10
ENDBRANCH   5   6
ENDBRANCH   1   5
BRANCH   2  19
HETATM   19  N   UNL     1      27.229  42.865  51.203  1.00  0.00    -0.166 NA
HETATM   20  C   UNL     1      27.822  41.717  51.127  1.00  0.00     0.157 A 
HETATM   21  C   UNL     1      28.480  40.910  52.251  1.00  0.00     0.277 A 
HETATM   22  C   UNL     1      27.989  40.925  49.916  1.00  0.00     0.028 A 
HETATM   23  O   UNL     1      28.557  41.275  53.405  1.00  0.00    -0.266 OA
HETATM   24  N   UNL     1      28.938  39.755  51.658  1.00  0.00    -0.321 N 
HETATM   25  C   UNL     1      28.659  39.760  50.293  1.00  0.00     0.048 A 
HETATM   26  H   UNL     1      29.420  39.025  52.163  1.00  0.00     0.169 HD
HETATM   27  C   UNL     1      28.977  38.787  49.370  1.00  0.00     0.032 A 
HETATM   28  C   UNL     1      28.603  39.019  48.040  1.00  0.00     0.021 A 
HETATM   29  C   UNL     1      27.929  40.203  47.672  1.00  0.00     0.012 A 
HETATM   30 BR   UNL     1      27.454  40.470  45.860  1.00  0.00    -0.051 Br
HETATM   31  C   UNL     1      27.609  41.180  48.615  1.00  0.00     0.035 A 
ENDBRANCH   2  19
TORSDOF 6
ENDMDL
MODEL 2
REMARK VINA RESULT:      -9.5      6.520      9.603
REMARK  6 active torsions:
REMARK  status: ('A' for Active; 'I' for Inactive)
REMARK    1  A    between atoms: C_5  and  O_6 
REMARK    2  A    between atoms: O_6  and  C_7 
REMARK    3  A    between atoms: C_7  and  C_8 
REMARK       I    between atoms: C_8  and  N_9 
REMARK    4  A    between atoms: N_9  and  C_10 
REMARK    5  A    between atoms: C_10  and  C_11 
REMARK       I    between atoms: C_11  and  N_12 
REMARK    6  A    between atoms: N_12  and  N_13 
ROOT
HETATM    1  C   UNL     1      25.492  47.456  50.879  1.00  0.00     0.255 C 
HETATM    2  N   UNL     1      25.264  46.569  51.919  1.00  0.00    -0.245 N 
HETATM    3  O   UNL     1      26.513  48.125  50.725  1.00  0.00    -0.270 OA
HETATM    4  H   UNL     1      24.427  45.981  51.935  1.00  0.00     0.192 HD
ENDROOT
BRANCH   1   5
HETATM    5  C   UNL     1      24.291  47.598  49.942  1.00  0.00     0.227 C 
BRANCH   5   6
HETATM    6  N   UNL     1      24.623  48.473  48.829  1.00  0.00    -0.350 N 
HETATM    7  C   UNL     1      23.947  49.576  48.390  1.00  0.00     0.242 C 
HETATM    8  O   UNL     1      24.295  50.118  47.339  1.00  0.00    -0.271 OA
HETATM    9  H   UNL     1      25.304  48.115  48.164  1.00  0.00     0.163 HD
BRANCH   7  10
HETATM   10  C   UNL     1      22.830  50.148  49.257  1.00  0.00     0.278 C 
BRANCH  10  11
HETATM   11  O   UNL     1      21.602  49.504  48.926  1.00  0.00    -0.342 OA
BRANCH  11  12
HETATM   12  C   UNL     1      20.492  50.264  49.172  1.00  0.00     0.069 A 
HETATM   13  C   UNL     1      20.416  51.479  48.495  1.00  0.00     0.037 A 
HETATM   14  C   UNL     1      19.305  52.310  48.661  1.00  0.00     0.009 A 
HETATM   15  C   UNL     1      18.253  51.926  49.499  1.00  0.00    -0.062 A 
HETATM   16  C   UNL     1      17.041  52.795  49.653  1.00  0.00     0.048 C 
HETATM   17  C   UNL     1      18.319  50.685  50.145  1.00  0.00     0.009 A 
HETATM   18  C   UNL     1      19.432  49.856  49.983  1.00  0.00     0.037 A 
ENDBRANCH  11  12
ENDBRANCH  10  11
ENDBRANCH   7  10
ENDBRANCH   5   6
ENDBRANCH   1   5
BRANCH   2  19
HETATM   19  N   UNL     1      26.215  46.383  52.883  1.00  0.00    -0.166 NA
HETATM   20  C   UNL     1      26.900  45.287  52.817  1.00  0.00     0.157 A 
HETATM   21  C   UNL     1      26.790  44.158  51.787  1.00  0.00     0.277 A 
HETATM   22  C   UNL     1      27.957  44.888  53.737  1.00  0.00     0.028 A 
HETATM   23  O   UNL     1      25.990  44.133  50.876  1.00  0.00    -0.266 OA
HETATM   24  N   UNL     1      27.753  43.239  52.141  1.00  0.00    -0.321 N 
HETATM   25  C   UNL     1      28.434  43.658  53.282  1.00  0.00     0.048 A 
HETATM   26  H   UNL     1      27.914  42.381  51.634  1.00  0.00     0.169 HD
HETATM   27  C   UNL     1      29.450  42.998  53.940  1.00  0.00     0.032 A 
HETATM   28  C   UNL     1      29.978  43.611  55.083  1.00  0.00     0.021 A 
HETATM   29  C   UNL     1      29.483  44.853  55.533  1.00  0.00     0.012 A 
HETATM   30 BR   UNL     1      30.226  45.635  57.089  1.00  0.00    -0.051 Br
HETATM   31  C   UNL     1      28.457  45.515  54.858  1.00  0.00     0.035 A 
ENDBRANCH   2  19
TORSDOF 6
ENDMDL
MODEL 3
REMARK VINA RESULT:      -9.4      1.717      2.109
REMARK  6 active torsions:
REMARK  status: ('A' for Active; 'I' for Inactive)
REMARK    1  A    between atoms: C_5  and  O_6 
REMARK    2  A    between atoms: O_6  and  C_7 
REMARK    3  A    between atoms: C_7  and  C_8 
REMARK       I    between atoms: C_8  and  N_9 
REMARK    4  A    between atoms: N_9  and  C_10 
REMARK    5  A    between atoms: C_10  and  C_11 
REMARK       I    between atoms: C_11  and  N_12 
REMARK    6  A    between atoms: N_12  and  N_13 
ROOT
HETATM    1  C   UNL     1      25.322  43.703  50.853  1.00  0.00     0.255 C 
HETATM    2  N   UNL     1      25.364  42.361  51.197  1.00  0.00    -0.245 N 
HETATM    3  O   UNL     1      25.600  44.163  49.746  1.00  0.00    -0.270 OA
HETATM    4  H   UNL     1      25.035  42.042  52.112  1.00  0.00     0.192 HD
ENDROOT
BRANCH   1   5
HETATM    5  C   UNL     1      24.964  44.610  52.032  1.00  0.00     0.227 C 
BRANCH   5   6
HETATM    6  N   UNL     1      25.063  43.872  53.281  1.00  0.00    -0.350 N 
HETATM    7  C   UNL     1      25.867  44.131  54.355  1.00  0.00     0.242 C 
HETATM    8  O   UNL     1      25.925  43.315  55.275  1.00  0.00    -0.271 OA
HETATM    9  H   UNL     1      24.659  42.940  53.284  1.00  0.00     0.163 HD
BRANCH   7  10
HETATM   10  C   UNL     1      26.611  45.462  54.413  1.00  0.00     0.278 C 
BRANCH  10  11
HETATM   11  O   UNL     1      27.897  45.307  53.817  1.00  0.00    -0.342 OA
BRANCH  11  12
HETATM   12  C   UNL     1      28.867  44.892  54.688  1.00  0.00     0.069 A 
HETATM   13  C   UNL     1      29.522  43.708  54.359  1.00  0.00     0.037 A 
HETATM   14  C   UNL     1      30.547  43.219  55.172  1.00  0.00     0.009 A 
HETATM   15  C   UNL     1      30.934  43.921  56.319  1.00  0.00    -0.062 A 
HETATM   16  C   UNL     1      32.059  43.423  57.177  1.00  0.00     0.048 C 
HETATM   17  C   UNL     1      30.298  45.131  56.621  1.00  0.00     0.009 A 
HETATM   18  C   UNL     1      29.269  45.617  55.809  1.00  0.00     0.037 A 
ENDBRANCH  11  12
ENDBRANCH  10  11
ENDBRANCH   7  10
ENDBRANCH   5   6
ENDBRANCH   1   5
BRANCH   2  19
HETATM   19  N   UNL     1      25.737  41.427  50.271  1.00  0.00    -0.166 NA
HETATM   20  C   UNL     1      26.845  40.798  50.498  1.00  0.00     0.157 A 
HETATM   21  C   UNL     1      27.803  40.956  51.683  1.00  0.00     0.277 A 
HETATM   22  C   UNL     1      27.429  39.770  49.647  1.00  0.00     0.028 A 
HETATM   23  O   UNL     1      27.652  41.749  52.588  1.00  0.00    -0.266 OA
HETATM   24  N   UNL     1      28.811  40.043  51.469  1.00  0.00    -0.321 N 
HETATM   25  C   UNL     1      28.601  39.351  50.278  1.00  0.00     0.048 A 
HETATM   26  H   UNL     1      29.592  39.921  52.097  1.00  0.00     0.169 HD
HETATM   27  C   UNL     1      29.402  38.375  49.725  1.00  0.00     0.032 A 
HETATM   28  C   UNL     1      28.991  37.826  48.503  1.00  0.00     0.021 A 
HETATM   29  C   UNL     1      27.806  38.261  47.874  1.00  0.00     0.012 A 
HETATM   30 BR   UNL     1      27.301  37.493  46.220  1.00  0.00    -0.051 Br
HETATM   31  C   UNL     1      27.000  39.248  48.445  1.00  0.00     0.035 A 
ENDBRANCH   2  19
TORSDOF 6
ENDMDL
MODEL 4
REMARK VINA RESULT:      -9.0      5.818      8.007
REMARK  6 active torsions:
REMARK  status: ('A' for Active; 'I' for Inactive)
REMARK    1  A    between atoms: C_5  and  O_6 
REMARK    2  A    between atoms: O_6  and  C_7 
REMARK    3  A    between atoms: C_7  and  C_8 
REMARK       I    between atoms: C_8  and  N_9 
REMARK    4  A    between atoms: N_9  and  C_10 
REMARK    5  A    between atoms: C_10  and  C_11 
REMARK       I    between atoms: C_11  and  N_12 
REMARK    6  A    between atoms: N_12  and  N_13 
ROOT
HETATM    1  C   UNL     1      23.371  44.224  49.549  1.00  0.00     0.255 C 
HETATM    2  N   UNL     1      23.378  45.219  48.583  1.00  0.00    -0.245 N 
HETATM    3  O   UNL     1      22.417  43.940  50.273  1.00  0.00    -0.270 OA
HETATM    4  H   UNL     1      24.179  45.340  47.959  1.00  0.00     0.192 HD
ENDROOT
BRANCH   1   5
HETATM    5  C   UNL     1      24.726  43.531  49.700  1.00  0.00     0.227 C 
BRANCH   5   6
HETATM    6  N   UNL     1      25.786  44.381  49.182  1.00  0.00    -0.350 N 
HETATM    7  C   UNL     1      26.750  45.052  49.880  1.00  0.00     0.242 C 
HETATM    8  O   UNL     1      27.483  45.844  49.287  1.00  0.00    -0.271 OA
HETATM    9  H   UNL     1      25.679  44.696  48.221  1.00  0.00     0.163 HD
BRANCH   7  10
HETATM   10  C   UNL     1      26.938  44.739  51.361  1.00  0.00     0.278 C 
BRANCH  10  11
HETATM   11  O   UNL     1      27.823  43.630  51.498  1.00  0.00    -0.342 OA
BRANCH  11  12
HETATM   12  C   UNL     1      28.535  43.627  52.666  1.00  0.00     0.069 A 
HETATM   13  C   UNL     1      29.697  42.859  52.675  1.00  0.00     0.037 A 
HETATM   14  C   UNL     1      30.505  42.817  53.815  1.00  0.00     0.009 A 
HETATM   15  C   UNL     1      30.161  43.554  54.952  1.00  0.00    -0.062 A 
HETATM   16  C   UNL     1      31.042  43.544  56.166  1.00  0.00     0.048 C 
HETATM   17  C   UNL     1      29.013  44.355  54.921  1.00  0.00     0.009 A 
HETATM   18  C   UNL     1      28.202  44.393  53.783  1.00  0.00     0.037 A 
ENDBRANCH  11  12
ENDBRANCH  10  11
ENDBRANCH   7  10
ENDBRANCH   5   6
ENDBRANCH   1   5
BRANCH   2  19
HETATM   19  N   UNL     1      22.261  45.980  48.376  1.00  0.00    -0.166 NA
HETATM   20  C   UNL     1      22.327  47.217  48.748  1.00  0.00     0.157 A 
HETATM   21  C   UNL     1      23.504  47.955  49.393  1.00  0.00     0.277 A 
HETATM   22  C   UNL     1      21.259  48.201  48.623  1.00  0.00     0.028 A 
HETATM   23  O   UNL     1      24.566  47.441  49.676  1.00  0.00    -0.266 OA
HETATM   24  N   UNL     1      23.077  49.253  49.568  1.00  0.00    -0.321 N 
HETATM   25  C   UNL     1      21.765  49.400  49.125  1.00  0.00     0.048 A 
HETATM   26  H   UNL     1      23.652  49.975  49.976  1.00  0.00     0.169 HD
HETATM   27  C   UNL     1      20.996  50.544  49.153  1.00  0.00     0.032 A 
HETATM   28  C   UNL     1      19.688  50.449  48.660  1.00  0.00     0.021 A 
HETATM   29  C   UNL     1      19.189  49.229  48.159  1.00  0.00     0.012 A 
HETATM   30 BR   UNL     1      17.412  49.153  47.514  1.00  0.00    -0.051 Br
HETATM   31  C   UNL     1      19.976  48.078  48.133  1.00  0.00     0.035 A 
ENDBRANCH   2  19
TORSDOF 6
ENDMDL
MODEL 5
REMARK VINA RESULT:      -8.8      5.759      9.678
REMARK  6 active torsions:
REMARK  status: ('A' for Active; 'I' for Inactive)
REMARK    1  A    between atoms: C_5  and  O_6 
REMARK    2  A    between atoms: O_6  and  C_7 
REMARK    3  A    between atoms: C_7  and  C_8 
REMARK       I    between atoms: C_8  and  N_9 
REMARK    4  A    between atoms: N_9  and  C_10 
REMARK    5  A    between atoms: C_10  and  C_11 
REMARK       I    between atoms: C_11  and  N_12 
REMARK    6  A    between atoms: N_12  and  N_13 
ROOT
HETATM    1  C   UNL     1      25.015  44.949  51.638  1.00  0.00     0.255 C 
HETATM    2  N   UNL     1      26.115  45.740  51.934  1.00  0.00    -0.245 N 
HETATM    3  O   UNL     1      24.799  43.829  52.099  1.00  0.00    -0.270 OA
HETATM    4  H   UNL     1      26.184  46.698  51.580  1.00  0.00     0.192 HD
ENDROOT
BRANCH   1   5
HETATM    5  C   UNL     1      24.096  45.576  50.588  1.00  0.00     0.227 C 
BRANCH   5   6
HETATM    6  N   UNL     1      24.353  47.004  50.483  1.00  0.00    -0.350 N 
HETATM    7  C   UNL     1      23.885  47.880  49.545  1.00  0.00     0.242 C 
HETATM    8  O   UNL     1      24.322  49.031  49.526  1.00  0.00    -0.271 OA
HETATM    9  H   UNL     1      25.136  47.359  51.025  1.00  0.00     0.163 HD
BRANCH   7  10
HETATM   10  C   UNL     1      22.777  47.425  48.601  1.00  0.00     0.278 C 
BRANCH  10  11
HETATM   11  O   UNL     1      21.515  47.590  49.244  1.00  0.00    -0.342 OA
BRANCH  11  12
HETATM   12  C   UNL     1      20.897  48.777  48.960  1.00  0.00     0.069 A 
HETATM   13  C   UNL     1      19.863  49.151  49.815  1.00  0.00     0.037 A 
HETATM   14  C   UNL     1      19.192  50.361  49.622  1.00  0.00     0.009 A 
HETATM   15  C   UNL     1      19.559  51.214  48.577  1.00  0.00    -0.062 A 
HETATM   16  C   UNL     1      18.869  52.532  48.385  1.00  0.00     0.048 C 
HETATM   17  C   UNL     1      20.626  50.850  47.746  1.00  0.00     0.009 A 
HETATM   18  C   UNL     1      21.294  49.637  47.936  1.00  0.00     0.037 A 
ENDBRANCH  11  12
ENDBRANCH  10  11
ENDBRANCH   7  10
ENDBRANCH   5   6
ENDBRANCH   1   5
BRANCH   2  19
HETATM   19  N   UNL     1      27.069  45.290  52.803  1.00  0.00    -0.166 NA
HETATM   20  C   UNL     1      27.217  45.961  53.900  1.00  0.00     0.157 A 
HETATM   21  C   UNL     1      26.453  47.204  54.363  1.00  0.00     0.277 A 
HETATM   22  C   UNL     1      28.171  45.660  54.959  1.00  0.00     0.028 A 
HETATM   23  O   UNL     1      25.590  47.762  53.718  1.00  0.00    -0.266 OA
HETATM   24  N   UNL     1      26.966  47.513  55.604  1.00  0.00    -0.321 N 
HETATM   25  C   UNL     1      27.973  46.617  55.954  1.00  0.00     0.048 A 
HETATM   26  H   UNL     1      26.647  48.296  56.157  1.00  0.00     0.169 HD
HETATM   27  C   UNL     1      28.727  46.616  57.108  1.00  0.00     0.032 A 
HETATM   28  C   UNL     1      29.700  45.616  57.236  1.00  0.00     0.021 A 
HETATM   29  C   UNL     1      29.891  44.656  56.220  1.00  0.00     0.012 A 
HETATM   30 BR   UNL     1      31.225  43.331  56.440  1.00  0.00    -0.051 Br
HETATM   31  C   UNL     1      29.120  44.664  55.057  1.00  0.00     0.035 A 
ENDBRANCH   2  19
TORSDOF 6
ENDMDL
MODEL 6
REMARK VINA RESULT:      -8.6     13.561     15.745
REMARK  6 active torsions:
REMARK  status: ('A' for Active; 'I' for Inactive)
REMARK    1  A    between atoms: C_5  and  O_6 
REMARK    2  A    between atoms: O_6  and  C_7 
REMARK    3  A    between atoms: C_7  and  C_8 
REMARK       I    between atoms: C_8  and  N_9 
REMARK    4  A    between atoms: N_9  and  C_10 
REMARK    5  A    between atoms: C_10  and  C_11 
REMARK       I    between atoms: C_11  and  N_12 
REMARK    6  A    between atoms: N_12  and  N_13 
ROOT
HETATM    1  C   UNL     1      31.061  48.847  38.976  1.00  0.00     0.255 C 
HETATM    2  N   UNL     1      31.737  48.403  40.101  1.00  0.00    -0.245 N 
HETATM    3  O   UNL     1      31.351  49.847  38.319  1.00  0.00    -0.270 OA
HETATM    4  H   UNL     1      31.492  47.514  40.545  1.00  0.00     0.192 HD
ENDROOT
BRANCH   1   5
HETATM    5  C   UNL     1      29.827  48.004  38.649  1.00  0.00     0.227 C 
BRANCH   5   6
HETATM    6  N   UNL     1      29.043  47.774  39.853  1.00  0.00    -0.350 N 
HETATM    7  C   UNL     1      27.840  48.322  40.196  1.00  0.00     0.242 C 
HETATM    8  O   UNL     1      27.387  48.123  41.324  1.00  0.00    -0.271 OA
HETATM    9  H   UNL     1      29.531  47.331  40.627  1.00  0.00     0.163 HD
BRANCH   7  10
HETATM   10  C   UNL     1      27.060  49.102  39.142  1.00  0.00     0.278 C 
BRANCH  10  11
HETATM   11  O   UNL     1      26.622  50.338  39.702  1.00  0.00    -0.342 OA
BRANCH  11  12
HETATM   12  C   UNL     1      27.625  51.249  39.891  1.00  0.00     0.069 A 
HETATM   13  C   UNL     1      27.842  51.659  41.205  1.00  0.00     0.037 A 
HETATM   14  C   UNL     1      28.864  52.566  41.500  1.00  0.00     0.009 A 
HETATM   15  C   UNL     1      29.686  53.060  40.483  1.00  0.00    -0.062 A 
HETATM   16  C   UNL     1      30.809  54.004  40.797  1.00  0.00     0.048 C 
HETATM   17  C   UNL     1      29.488  52.612  39.171  1.00  0.00     0.009 A 
HETATM   18  C   UNL     1      28.462  51.710  38.875  1.00  0.00     0.037 A 
ENDBRANCH  11  12
ENDBRANCH  10  11
ENDBRANCH   7  10
ENDBRANCH   5   6
ENDBRANCH   1   5
BRANCH   2  19
HETATM   19  N   UNL     1      32.822  49.092  40.565  1.00  0.00    -0.166 NA
HETATM   20  C   UNL     1      32.648  49.791  41.641  1.00  0.00     0.157 A 
HETATM   21  C   UNL     1      31.374  49.946  42.477  1.00  0.00     0.277 A 
HETATM   22  C   UNL     1      33.662  50.599  42.304  1.00  0.00     0.028 A 
HETATM   23  O   UNL     1      30.308  49.432  42.210  1.00  0.00    -0.266 OA
HETATM   24  N   UNL     1      31.718  50.768  43.528  1.00  0.00    -0.321 N 
HETATM   25  C   UNL     1      33.052  51.156  43.429  1.00  0.00     0.048 A 
HETATM   26  H   UNL     1      31.070  51.046  44.249  1.00  0.00     0.169 HD
HETATM   27  C   UNL     1      33.748  51.985  44.282  1.00  0.00     0.032 A 
HETATM   28  C   UNL     1      35.088  52.246  43.971  1.00  0.00     0.021 A 
HETATM   29  C   UNL     1      35.691  51.679  42.829  1.00  0.00     0.012 A 
HETATM   30 BR   UNL     1      37.503  52.071  42.449  1.00  0.00    -0.051 Br
HETATM   31  C   UNL     1      34.979  50.838  41.973  1.00  0.00     0.035 A 
ENDBRANCH   2  19
TORSDOF 6
ENDMDL
MODEL 7
REMARK VINA RESULT:      -8.5      6.103      8.886
REMARK  6 active torsions:
REMARK  status: ('A' for Active; 'I' for Inactive)
REMARK    1  A    between atoms: C_5  and  O_6 
REMARK    2  A    between atoms: O_6  and  C_7 
REMARK    3  A    between atoms: C_7  and  C_8 
REMARK       I    between atoms: C_8  and  N_9 
REMARK    4  A    between atoms: N_9  and  C_10 
REMARK    5  A    between atoms: C_10  and  C_11 
REMARK       I    between atoms: C_11  and  N_12 
REMARK    6  A    between atoms: N_12  and  N_13 
ROOT
HETATM    1  C   UNL     1      25.694  46.648  49.818  1.00  0.00     0.255 C 
HETATM    2  N   UNL     1      25.168  45.546  50.476  1.00  0.00    -0.245 N 
HETATM    3  O   UNL     1      26.757  46.667  49.199  1.00  0.00    -0.270 OA
HETATM    4  H   UNL     1      24.236  45.580  50.896  1.00  0.00     0.192 HD
ENDROOT
BRANCH   1   5
HETATM    5  C   UNL     1      24.849  47.910  49.999  1.00  0.00     0.227 C 
BRANCH   5   6
HETATM    6  N   UNL     1      24.987  48.777  48.840  1.00  0.00    -0.350 N 
HETATM    7  C   UNL     1      24.138  49.758  48.412  1.00  0.00     0.242 C 
HETATM    8  O   UNL     1      24.342  50.300  47.325  1.00  0.00    -0.271 OA
HETATM    9  H   UNL     1      25.669  48.489  48.144  1.00  0.00     0.163 HD
BRANCH   7  10
HETATM   10  C   UNL     1      23.006  50.205  49.333  1.00  0.00     0.278 C 
BRANCH  10  11
HETATM   11  O   UNL     1      21.801  49.548  48.948  1.00  0.00    -0.342 OA
BRANCH  11  12
HETATM   12  C   UNL     1      20.680  50.320  49.081  1.00  0.00     0.069 A 
HETATM   13  C   UNL     1      19.726  49.868  49.990  1.00  0.00     0.037 A 
HETATM   14  C   UNL     1      18.561  50.605  50.215  1.00  0.00     0.009 A 
HETATM   15  C   UNL     1      18.345  51.810  49.539  1.00  0.00    -0.062 A 
HETATM   16  C   UNL     1      17.115  52.626  49.803  1.00  0.00     0.048 C 
HETATM   17  C   UNL     1      19.327  52.278  48.657  1.00  0.00     0.009 A 
HETATM   18  C   UNL     1      20.490  51.538  48.428  1.00  0.00     0.037 A 
ENDBRANCH  11  12
ENDBRANCH  10  11
ENDBRANCH   7  10
ENDBRANCH   5   6
ENDBRANCH   1   5
BRANCH   2  19
HETATM   19  N   UNL     1      25.843  44.357  50.469  1.00  0.00    -0.166 NA
HETATM   20  C   UNL     1      26.437  44.023  51.569  1.00  0.00     0.157 A 
HETATM   21  C   UNL     1      26.481  44.787  52.896  1.00  0.00     0.277 A 
HETATM   22  C   UNL     1      27.211  42.807  51.782  1.00  0.00     0.028 A 
HETATM   23  O   UNL     1      25.963  45.868  53.085  1.00  0.00    -0.266 OA
HETATM   24  N   UNL     1      27.215  43.998  53.754  1.00  0.00    -0.321 N 
HETATM   25  C   UNL     1      27.648  42.842  53.107  1.00  0.00     0.048 A 
HETATM   26  H   UNL     1      27.409  44.251  54.711  1.00  0.00     0.169 HD
HETATM   27  C   UNL     1      28.416  41.827  53.634  1.00  0.00     0.032 A 
HETATM   28  C   UNL     1      28.741  40.762  52.783  1.00  0.00     0.021 A 
HETATM   29  C   UNL     1      28.295  40.741  51.445  1.00  0.00     0.012 A 
HETATM   30 BR   UNL     1      28.770  39.283  50.335  1.00  0.00    -0.051 Br
HETATM   31  C   UNL     1      27.515  41.773  50.922  1.00  0.00     0.035 A 
ENDBRANCH   2  19
TORSDOF 6
ENDMDL
MODEL 8
REMARK VINA RESULT:      -8.5      6.417      8.579
REMARK  6 active torsions:
REMARK  status: ('A' for Active; 'I' for Inactive)
REMARK    1  A    between atoms: C_5  and  O_6 
REMARK    2  A    between atoms: O_6  and  C_7 
REMARK    3  A    between atoms: C_7  and  C_8 
REMARK       I    between atoms: C_8  and  N_9 
REMARK    4  A    between atoms: N_9  and  C_10 
REMARK    5  A    between atoms: C_10  and  C_11 
REMARK       I    between atoms: C_11  and  N_12 
REMARK    6  A    between atoms: N_12  and  N_13 
ROOT
HETATM    1  C   UNL     1      23.880  45.943  49.587  1.00  0.00     0.255 C 
HETATM    2  N   UNL     1      23.330  47.212  49.493  1.00  0.00    -0.245 N 
HETATM    3  O   UNL     1      23.396  44.919  49.106  1.00  0.00    -0.270 OA
HETATM    4  H   UNL     1      23.834  48.031  49.843  1.00  0.00     0.192 HD
ENDROOT
BRANCH   1   5
HETATM    5  C   UNL     1      25.151  45.905  50.439  1.00  0.00     0.227 C 
BRANCH   5   6
HETATM    6  N   UNL     1      24.829  45.519  51.804  1.00  0.00    -0.350 N 
HETATM    7  C   UNL     1      25.235  44.406  52.485  1.00  0.00     0.242 C 
HETATM    8  O   UNL     1      24.748  44.166  53.590  1.00  0.00    -0.271 OA
HETATM    9  H   UNL     1      24.047  46.004  52.234  1.00  0.00     0.163 HD
BRANCH   7  10
HETATM   10  C   UNL     1      26.336  43.537  51.886  1.00  0.00     0.278 C 
BRANCH  10  11
HETATM   11  O   UNL     1      27.552  44.281  51.848  1.00  0.00    -0.342 OA
BRANCH  11  12
HETATM   12  C   UNL     1      28.367  44.069  52.927  1.00  0.00     0.069 A 
HETATM   13  C   UNL     1      29.382  43.131  52.754  1.00  0.00     0.037 A 
HETATM   14  C   UNL     1      30.282  42.869  53.791  1.00  0.00     0.009 A 
HETATM   15  C   UNL     1      30.179  43.553  55.006  1.00  0.00    -0.062 A 
HETATM   16  C   UNL     1      31.164  43.304  56.110  1.00  0.00     0.048 C 
HETATM   17  C   UNL     1      29.180  44.522  55.157  1.00  0.00     0.009 A 
HETATM   18  C   UNL     1      28.278  44.781  54.123  1.00  0.00     0.037 A 
ENDBRANCH  11  12
ENDBRANCH  10  11
ENDBRANCH   7  10
ENDBRANCH   5   6
ENDBRANCH   1   5
BRANCH   2  19
HETATM   19  N   UNL     1      22.153  47.400  48.824  1.00  0.00    -0.166 NA
HETATM   20  C   UNL     1      21.753  48.624  48.691  1.00  0.00     0.157 A 
HETATM   21  C   UNL     1      22.431  49.905  49.184  1.00  0.00     0.277 A 
HETATM   22  C   UNL     1      20.533  49.051  48.019  1.00  0.00     0.028 A 
HETATM   23  O   UNL     1      23.466  49.936  49.817  1.00  0.00    -0.266 OA
HETATM   24  N   UNL     1      21.620  50.938  48.768  1.00  0.00    -0.321 N 
HETATM   25  C   UNL     1      20.507  50.444  48.091  1.00  0.00     0.048 A 
HETATM   26  H   UNL     1      21.821  51.910  48.952  1.00  0.00     0.169 HD
HETATM   27  C   UNL     1      19.471  51.170  47.544  1.00  0.00     0.032 A 
HETATM   28  C   UNL     1      18.446  50.450  46.917  1.00  0.00     0.021 A 
HETATM   29  C   UNL     1      18.483  49.041  46.854  1.00  0.00     0.012 A 
HETATM   30 BR   UNL     1      17.067  48.117  46.004  1.00  0.00    -0.051 Br
HETATM   31  C   UNL     1      19.538  48.316  47.408  1.00  0.00     0.035 A 
ENDBRANCH   2  19
TORSDOF 6
ENDMDL
MODEL 9
REMARK VINA RESULT:      -8.4     14.067     16.148
REMARK  6 active torsions:
REMARK  status: ('A' for Active; 'I' for Inactive)
REMARK    1  A    between atoms: C_5  and  O_6 
REMARK    2  A    between atoms: O_6  and  C_7 
REMARK    3  A    between atoms: C_7  and  C_8 
REMARK       I    between atoms: C_8  and  N_9 
REMARK    4  A    between atoms: N_9  and  C_10 
REMARK    5  A    between atoms: C_10  and  C_11 
REMARK       I    between atoms: C_11  and  N_12 
REMARK    6  A    between atoms: N_12  and  N_13 
ROOT
HETATM    1  C   UNL     1      32.474  47.987  41.052  1.00  0.00     0.255 C 
HETATM    2  N   UNL     1      32.841  49.313  40.882  1.00  0.00    -0.245 N 
HETATM    3  O   UNL     1      33.220  47.085  41.433  1.00  0.00    -0.270 OA
HETATM    4  H   UNL     1      32.145  50.025  40.646  1.00  0.00     0.192 HD
ENDROOT
BRANCH   1   5
HETATM    5  C   UNL     1      31.028  47.711  40.637  1.00  0.00     0.227 C 
BRANCH   5   6
HETATM    6  N   UNL     1      30.111  48.465  41.478  1.00  0.00    -0.350 N 
HETATM    7  C   UNL     1      29.201  49.411  41.099  1.00  0.00     0.242 C 
HETATM    8  O   UNL     1      28.605  50.054  41.964  1.00  0.00    -0.271 OA
HETATM    9  H   UNL     1      30.309  48.459  42.475  1.00  0.00     0.163 HD
BRANCH   7  10
HETATM   10  C   UNL     1      28.895  49.585  39.614  1.00  0.00     0.278 C 
BRANCH  10  11
HETATM   11  O   UNL     1      28.959  50.970  39.282  1.00  0.00    -0.342 OA
BRANCH  11  12
HETATM   12  C   UNL     1      30.218  51.500  39.347  1.00  0.00     0.069 A 
HETATM   13  C   UNL     1      31.136  51.022  38.415  1.00  0.00     0.037 A 
HETATM   14  C   UNL     1      32.439  51.525  38.386  1.00  0.00     0.009 A 
HETATM   15  C   UNL     1      32.832  52.522  39.284  1.00  0.00    -0.062 A 
HETATM   16  C   UNL     1      34.217  53.094  39.235  1.00  0.00     0.048 C 
HETATM   17  C   UNL     1      31.892  53.027  40.192  1.00  0.00     0.009 A 
HETATM   18  C   UNL     1      30.590  52.519  40.224  1.00  0.00     0.037 A 
ENDBRANCH  11  12
ENDBRANCH  10  11
ENDBRANCH   7  10
ENDBRANCH   5   6
ENDBRANCH   1   5
BRANCH   2  19
HETATM   19  N   UNL     1      34.124  49.708  41.142  1.00  0.00    -0.166 NA
HETATM   20  C   UNL     1      34.284  50.554  42.108  1.00  0.00     0.157 A 
HETATM   21  C   UNL     1      33.218  51.176  43.014  1.00  0.00     0.277 A 
HETATM   22  C   UNL     1      35.558  51.107  42.551  1.00  0.00     0.028 A 
HETATM   23  O   UNL     1      32.027  50.966  42.919  1.00  0.00    -0.266 OA
HETATM   24  N   UNL     1      33.904  51.985  43.893  1.00  0.00    -0.321 N 
HETATM   25  C   UNL     1      35.271  51.952  43.624  1.00  0.00     0.048 A 
HETATM   26  H   UNL     1      33.453  52.527  44.615  1.00  0.00     0.169 HD
HETATM   27  C   UNL     1      36.269  52.641  44.278  1.00  0.00     0.032 A 
HETATM   28  C   UNL     1      37.580  52.459  43.819  1.00  0.00     0.021 A 
HETATM   29  C   UNL     1      37.855  51.604  42.732  1.00  0.00     0.012 A 
HETATM   30 BR   UNL     1      39.643  51.400  42.146  1.00  0.00    -0.051 Br
HETATM   31  C   UNL     1      36.837  50.908  42.078  1.00  0.00     0.035 A 
ENDBRANCH   2  19
TORSDOF 6
ENDMDL
MODEL 10
REMARK VINA RESULT:      -8.4      4.336      8.359
REMARK  6 active torsions:
REMARK  status: ('A' for Active; 'I' for Inactive)
REMARK    1  A    between atoms: C_5  and  O_6 
REMARK    2  A    between atoms: O_6  and  C_7 
REMARK    3  A    between atoms: C_7  and  C_8 
REMARK       I    between atoms: C_8  and  N_9 
REMARK    4  A    between atoms: N_9  and  C_10 
REMARK    5  A    between atoms: C_10  and  C_11 
REMARK       I    between atoms: C_11  and  N_12 
REMARK    6  A    between atoms: N_12  and  N_13 
ROOT
HETATM    1  C   UNL     1      26.980  41.507  51.032  1.00  0.00     0.255 C 
HETATM    2  N   UNL     1      26.724  42.350  52.102  1.00  0.00    -0.245 N 
HETATM    3  O   UNL     1      28.037  40.907  50.835  1.00  0.00    -0.270 OA
HETATM    4  H   UNL     1      25.792  42.746  52.247  1.00  0.00     0.192 HD
ENDROOT
BRANCH   1   5
HETATM    5  C   UNL     1      25.823  41.442  50.033  1.00  0.00     0.227 C 
BRANCH   5   6
HETATM    6  N   UNL     1      24.618  42.001  50.624  1.00  0.00    -0.350 N 
HETATM    7  C   UNL     1      23.935  43.124  50.251  1.00  0.00     0.242 C 
HETATM    8  O   UNL     1      23.011  43.531  50.956  1.00  0.00    -0.271 OA
HETATM    9  H   UNL     1      24.369  41.656  51.548  1.00  0.00     0.163 HD
BRANCH   7  10
HETATM   10  C   UNL     1      24.291  43.795  48.928  1.00  0.00     0.278 C 
BRANCH  10  11
HETATM   11  O   UNL     1      24.816  45.095  49.187  1.00  0.00    -0.342 OA
BRANCH  11  12
HETATM   12  C   UNL     1      23.896  46.100  49.070  1.00  0.00     0.069 A 
HETATM   13  C   UNL     1      24.234  47.315  49.662  1.00  0.00     0.037 A 
HETATM   14  C   UNL     1      23.370  48.409  49.570  1.00  0.00     0.009 A 
HETATM   15  C   UNL     1      22.162  48.298  48.875  1.00  0.00    -0.062 A 
HETATM   16  C   UNL     1      21.246  49.478  48.740  1.00  0.00     0.048 C 
HETATM   17  C   UNL     1      21.847  47.086  48.249  1.00  0.00     0.009 A 
HETATM   18  C   UNL     1      22.709  45.990  48.345  1.00  0.00     0.037 A 
ENDBRANCH  11  12
ENDBRANCH  10  11
ENDBRANCH   7  10
ENDBRANCH   5   6
ENDBRANCH   1   5
BRANCH   2  19
HETATM   19  N   UNL     1      27.687  42.570  53.047  1.00  0.00    -0.166 NA
HETATM   20  C   UNL     1      27.750  43.765  53.541  1.00  0.00     0.157 A 
HETATM   21  C   UNL     1      26.876  44.978  53.210  1.00  0.00     0.277 A 
HETATM   22  C   UNL     1      28.696  44.218  54.553  1.00  0.00     0.028 A 
HETATM   23  O   UNL     1      25.989  44.982  52.382  1.00  0.00    -0.266 OA
HETATM   24  N   UNL     1      27.328  45.994  54.023  1.00  0.00    -0.321 N 
HETATM   25  C   UNL     1      28.395  45.556  54.806  1.00  0.00     0.048 A 
HETATM   26  H   UNL     1      26.933  46.922  54.022  1.00  0.00     0.169 HD
HETATM   27  C   UNL     1      29.114  46.290  55.724  1.00  0.00     0.032 A 
HETATM   28  C   UNL     1      30.160  45.636  56.388  1.00  0.00     0.021 A 
HETATM   29  C   UNL     1      30.456  44.283  56.120  1.00  0.00     0.012 A 
HETATM   30 BR   UNL     1      31.885  43.450  57.039  1.00  0.00    -0.051 Br
HETATM   31  C   UNL     1      29.719  43.548  55.191  1.00  0.00     0.035 A 
ENDBRANCH   2  19
TORSDOF 6
ENDMDL
