MODEL 1
REMARK VINA RESULT:      -9.8      0.000      0.000
REMARK  11 active torsions:
REMARK  status: ('A' for Active; 'I' for Inactive)
REMARK    1  A    between atoms: C_2  and  C_3 
REMARK    2  A    between atoms: C_3  and  C_4 
REMARK    3  A    between atoms: C_4  and  O_5 
REMARK    4  A    between atoms: O_5  and  C_6 
REMARK    5  A    between atoms: C_8  and  C_9 
REMARK       I    between atoms: C_9  and  N_10 
REMARK    6  A    between atoms: N_10  and  C_11 
REMARK    7  A    between atoms: C_11  and  N_12 
REMARK    8  A    between atoms: N_12  and  C_13 
REMARK    9  A    between atoms: C_15  and  O_16 
REMARK   10  A    between atoms: C_17  and  C_18 
REMARK   11  A    between atoms: C_25  and  C_26 
ROOT
HETATM    1  C   UNL     1      26.258  45.311  50.085  1.00  0.00     0.036 C 
HETATM    2  C   UNL     1      26.604  46.657  49.977  1.00  0.00     0.067 C 
HETATM    3  C   UNL     1      25.631  47.626  49.725  1.00  0.00     0.082 C 
HETATM    4  C   UNL     1      24.284  47.268  49.593  1.00  0.00     0.050 C 
HETATM    5  C   UNL     1      23.930  45.938  49.887  1.00  0.00     0.021 C 
HETATM    6  C   UNL     1      24.908  44.968  50.147  1.00  0.00     0.030 C 
ENDROOT
BRANCH   1   7
HETATM    7  N   UNL     1      27.214  44.273  50.099  1.00  0.00    -0.333 N 
HETATM    8  H   UNL     1      28.055  44.427  49.541  1.00  0.00     0.168 HD
BRANCH   7   9
HETATM    9  C   UNL     1      27.339  43.258  51.023  1.00  0.00     0.179 C 
HETATM   10  S   UNL     1      26.764  41.683  50.974  1.00  0.00    -0.040 SA
BRANCH   9  11
HETATM   11  N   UNL     1      27.990  43.588  52.191  1.00  0.00    -0.299 N 
HETATM   12  C   UNL     1      29.013  42.948  52.873  1.00  0.00     0.257 C 
HETATM   13  O   UNL     1      29.491  41.863  52.564  1.00  0.00    -0.267 OA
HETATM   14  H   UNL     1      27.642  44.457  52.576  1.00  0.00     0.171 HD
BRANCH  12  15
HETATM   15  C   UNL     1      29.472  43.689  54.080  1.00  0.00     0.035 A 
HETATM   16  C   UNL     1      28.809  44.853  54.486  1.00  0.00     0.053 A 
HETATM   17  C   UNL     1      29.160  45.460  55.690  1.00  0.00     0.069 A 
HETATM   18  C   UNL     1      30.215  44.959  56.449  1.00  0.00     0.037 A 
HETATM   19  C   UNL     1      30.901  43.819  56.022  1.00  0.00     0.004 A 
HETATM   20  C   UNL     1      30.530  43.179  54.836  1.00  0.00     0.017 A 
BRANCH  17  21
HETATM   21  O   UNL     1      28.518  46.583  56.128  1.00  0.00    -0.351 OA
BRANCH  21  22
HETATM   22  C   UNL     1      28.103  47.432  55.046  1.00  0.00     0.175 C 
BRANCH  22  23
HETATM   23  C   UNL     1      26.624  47.797  55.178  1.00  0.00     0.026 C 
BRANCH  23  24
HETATM   24  C   UNL     1      25.834  47.508  53.901  1.00  0.00    -0.002 C 
HETATM   25  C   UNL     1      25.673  46.012  53.677  1.00  0.00     0.005 C 
ENDBRANCH  23  24
ENDBRANCH  22  23
ENDBRANCH  21  22
ENDBRANCH  17  21
ENDBRANCH  12  15
ENDBRANCH   9  11
ENDBRANCH   7   9
ENDBRANCH   1   7
BRANCH   3  26
HETATM   26  O   UNL     1      26.031  48.927  49.579  1.00  0.00    -0.360 OA
HETATM   27  H   UNL     1      25.425  49.384  48.972  1.00  0.00     0.217 HD
ENDBRANCH   3  26
BRANCH   4  28
HETATM   28  C   UNL     1      23.266  48.147  49.013  1.00  0.00     0.183 A 
HETATM   29  O   UNL     1      22.028  47.594  48.802  1.00  0.00    -0.289 OA
HETATM   30  C   UNL     1      21.207  48.659  48.619  1.00  0.00     0.106 A 
HETATM   31  C   UNL     1      21.980  49.803  48.684  1.00  0.00     0.094 A 
HETATM   32  C   UNL     1      19.828  48.634  48.460  1.00  0.00     0.040 A 
HETATM   33  N   UNL     1      23.295  49.467  48.894  1.00  0.00    -0.221 NA
HETATM   34  C   UNL     1      21.347  51.049  48.598  1.00  0.00     0.041 A 
HETATM   35  C   UNL     1      19.941  51.084  48.484  1.00  0.00    -0.056 A 
HETATM   36  C   UNL     1      19.205  49.886  48.409  1.00  0.00     0.010 A 
BRANCH  35  37
HETATM   37  C   UNL     1      19.221  52.410  48.524  1.00  0.00     0.034 C 
HETATM   38  C   UNL     1      18.096  52.396  49.550  1.00  0.00     0.010 C 
ENDBRANCH  35  37
ENDBRANCH   4  28
TORSDOF 11
ENDMDL
MODEL 2
REMARK VINA RESULT:      -9.6      2.654     10.708
REMARK  11 active torsions:
REMARK  status: ('A' for Active; 'I' for Inactive)
REMARK    1  A    between atoms: C_2  and  C_3 
REMARK    2  A    between atoms: C_3  and  C_4 
REMARK    3  A    between atoms: C_4  and  O_5 
REMARK    4  A    between atoms: O_5  and  C_6 
REMARK    5  A    between atoms: C_8  and  C_9 
REMARK       I    between atoms: C_9  and  N_10 
REMARK    6  A    between atoms: N_10  and  C_11 
REMARK    7  A    between atoms: C_11  and  N_12 
REMARK    8  A    between atoms: N_12  and  C_13 
REMARK    9  A    between atoms: C_15  and  O_16 
REMARK   10  A    between atoms: C_17  and  C_18 
REMARK   11  A    between atoms: C_25  and  C_26 
ROOT
HETATM    1  C   UNL     1      24.246  46.432  50.132  1.00  0.00     0.036 C 
HETATM    2  C   UNL     1      24.028  45.131  50.583  1.00  0.00     0.067 C 
HETATM    3  C   UNL     1      24.694  44.647  51.711  1.00  0.00     0.082 C 
HETATM    4  C   UNL     1      25.583  45.463  52.421  1.00  0.00     0.050 C 
HETATM    5  C   UNL     1      25.650  46.822  52.062  1.00  0.00     0.021 C 
HETATM    6  C   UNL     1      24.974  47.309  50.935  1.00  0.00     0.030 C 
ENDROOT
BRANCH   1   7
HETATM    7  N   UNL     1      23.792  46.893  48.877  1.00  0.00    -0.333 N 
HETATM    8  H   UNL     1      23.730  46.194  48.135  1.00  0.00     0.168 HD
BRANCH   7   9
HETATM    9  C   UNL     1      23.092  48.049  48.611  1.00  0.00     0.179 C 
HETATM   10  S   UNL     1      23.651  49.610  48.357  1.00  0.00    -0.040 SA
BRANCH   9  11
HETATM   11  N   UNL     1      21.719  47.929  48.597  1.00  0.00    -0.299 N 
HETATM   12  C   UNL     1      20.906  46.812  48.476  1.00  0.00     0.257 C 
HETATM   13  O   UNL     1      21.307  45.672  48.274  1.00  0.00    -0.267 OA
HETATM   14  H   UNL     1      21.268  48.827  48.709  1.00  0.00     0.171 HD
BRANCH  12  15
HETATM   15  C   UNL     1      19.455  47.125  48.572  1.00  0.00     0.035 A 
HETATM   16  C   UNL     1      19.034  48.417  48.911  1.00  0.00     0.053 A 
HETATM   17  C   UNL     1      17.678  48.732  48.864  1.00  0.00     0.069 A 
HETATM   18  C   UNL     1      16.737  47.752  48.558  1.00  0.00     0.037 A 
HETATM   19  C   UNL     1      17.157  46.454  48.258  1.00  0.00     0.004 A 
HETATM   20  C   UNL     1      18.518  46.136  48.262  1.00  0.00     0.017 A 
BRANCH  17  21
HETATM   21  O   UNL     1      17.235  49.990  49.165  1.00  0.00    -0.351 OA
BRANCH  21  22
HETATM   22  C   UNL     1      18.109  50.672  50.078  1.00  0.00     0.175 C 
BRANCH  22  23
HETATM   23  C   UNL     1      18.288  52.134  49.668  1.00  0.00     0.026 C 
BRANCH  23  24
HETATM   24  C   UNL     1      19.113  52.286  48.390  1.00  0.00    -0.002 C 
HETATM   25  C   UNL     1      20.506  51.696  48.557  1.00  0.00     0.005 C 
ENDBRANCH  23  24
ENDBRANCH  22  23
ENDBRANCH  21  22
ENDBRANCH  17  21
ENDBRANCH  12  15
ENDBRANCH   9  11
ENDBRANCH   7   9
ENDBRANCH   1   7
BRANCH   3  26
HETATM   26  O   UNL     1      24.482  43.346  52.083  1.00  0.00    -0.360 OA
HETATM   27  H   UNL     1      24.027  42.877  51.365  1.00  0.00     0.217 HD
ENDBRANCH   3  26
BRANCH   4  28
HETATM   28  C   UNL     1      26.554  44.951  53.392  1.00  0.00     0.183 A 
HETATM   29  O   UNL     1      27.167  43.765  53.074  1.00  0.00    -0.289 OA
HETATM   30  C   UNL     1      28.236  43.702  53.909  1.00  0.00     0.106 A 
HETATM   31  C   UNL     1      28.204  44.822  54.719  1.00  0.00     0.094 A 
HETATM   32  C   UNL     1      29.231  42.735  53.921  1.00  0.00     0.040 A 
HETATM   33  N   UNL     1      27.108  45.590  54.411  1.00  0.00    -0.221 NA
HETATM   34  C   UNL     1      29.253  45.028  55.624  1.00  0.00     0.041 A 
HETATM   35  C   UNL     1      30.316  44.101  55.645  1.00  0.00    -0.056 A 
HETATM   36  C   UNL     1      30.289  42.970  54.806  1.00  0.00     0.010 A 
BRANCH  35  37
HETATM   37  C   UNL     1      31.522  44.367  56.513  1.00  0.00     0.034 C 
HETATM   38  C   UNL     1      32.011  43.091  57.185  1.00  0.00     0.010 C 
ENDBRANCH  35  37
ENDBRANCH   4  28
TORSDOF 11
ENDMDL
MODEL 3
REMARK VINA RESULT:      -9.5      2.611     10.968
REMARK  11 active torsions:
REMARK  status: ('A' for Active; 'I' for Inactive)
REMARK    1  A    between atoms: C_2  and  C_3 
REMARK    2  A    between atoms: C_3  and  C_4 
REMARK    3  A    between atoms: C_4  and  O_5 
REMARK    4  A    between atoms: O_5  and  C_6 
REMARK    5  A    between atoms: C_8  and  C_9 
REMARK       I    between atoms: C_9  and  N_10 
REMARK    6  A    between atoms: N_10  and  C_11 
REMARK    7  A    between atoms: C_11  and  N_12 
REMARK    8  A    between atoms: N_12  and  C_13 
REMARK    9  A    between atoms: C_15  and  O_16 
REMARK   10  A    between atoms: C_17  and  C_18 
REMARK   11  A    between atoms: C_25  and  C_26 
ROOT
HETATM    1  C   UNL     1      24.059  46.193  49.867  1.00  0.00     0.036 C 
HETATM    2  C   UNL     1      23.904  44.885  50.326  1.00  0.00     0.067 C 
HETATM    3  C   UNL     1      24.561  44.451  51.478  1.00  0.00     0.082 C 
HETATM    4  C   UNL     1      25.377  45.324  52.207  1.00  0.00     0.050 C 
HETATM    5  C   UNL     1      25.375  46.682  51.837  1.00  0.00     0.021 C 
HETATM    6  C   UNL     1      24.708  47.118  50.684  1.00  0.00     0.030 C 
ENDROOT
BRANCH   1   7
HETATM    7  N   UNL     1      23.618  46.615  48.594  1.00  0.00    -0.333 N 
HETATM    8  H   UNL     1      24.343  46.748  47.887  1.00  0.00     0.168 HD
BRANCH   7   9
HETATM    9  C   UNL     1      22.345  46.529  48.075  1.00  0.00     0.179 C 
HETATM   10  S   UNL     1      21.547  45.219  47.396  1.00  0.00    -0.040 SA
BRANCH   9  11
HETATM   11  N   UNL     1      21.623  47.702  48.062  1.00  0.00    -0.299 N 
HETATM   12  C   UNL     1      22.012  49.005  47.794  1.00  0.00     0.257 C 
HETATM   13  O   UNL     1      23.164  49.363  47.580  1.00  0.00    -0.267 OA
HETATM   14  H   UNL     1      20.648  47.539  48.276  1.00  0.00     0.171 HD
BRANCH  12  15
HETATM   15  C   UNL     1      20.886  49.977  47.830  1.00  0.00     0.035 A 
HETATM   16  C   UNL     1      19.657  49.654  47.241  1.00  0.00     0.053 A 
HETATM   17  C   UNL     1      18.572  50.513  47.399  1.00  0.00     0.069 A 
HETATM   18  C   UNL     1      18.724  51.722  48.073  1.00  0.00     0.037 A 
HETATM   19  C   UNL     1      19.961  52.060  48.626  1.00  0.00     0.004 A 
HETATM   20  C   UNL     1      21.046  51.188  48.508  1.00  0.00     0.017 A 
BRANCH  17  21
HETATM   21  O   UNL     1      17.352  50.216  46.858  1.00  0.00    -0.351 OA
BRANCH  21  22
HETATM   22  C   UNL     1      16.312  50.170  47.848  1.00  0.00     0.175 C 
BRANCH  22  23
HETATM   23  C   UNL     1      15.385  48.979  47.605  1.00  0.00     0.026 C 
BRANCH  23  24
HETATM   24  C   UNL     1      16.140  47.650  47.554  1.00  0.00    -0.002 C 
HETATM   25  C   UNL     1      16.811  47.343  48.884  1.00  0.00     0.005 C 
ENDBRANCH  23  24
ENDBRANCH  22  23
ENDBRANCH  21  22
ENDBRANCH  17  21
ENDBRANCH  12  15
ENDBRANCH   9  11
ENDBRANCH   7   9
ENDBRANCH   1   7
BRANCH   3  26
HETATM   26  O   UNL     1      24.414  43.143  51.858  1.00  0.00    -0.360 OA
HETATM   27  H   UNL     1      24.296  43.099  52.821  1.00  0.00     0.217 HD
ENDBRANCH   3  26
BRANCH   4  28
HETATM   28  C   UNL     1      26.344  44.878  53.213  1.00  0.00     0.183 A 
HETATM   29  O   UNL     1      26.892  43.634  53.025  1.00  0.00    -0.289 OA
HETATM   30  C   UNL     1      27.977  43.614  53.841  1.00  0.00     0.106 A 
HETATM   31  C   UNL     1      28.018  44.820  54.516  1.00  0.00     0.094 A 
HETATM   32  C   UNL     1      28.924  42.606  53.948  1.00  0.00     0.040 A 
HETATM   33  N   UNL     1      26.953  45.602  54.142  1.00  0.00    -0.221 NA
HETATM   34  C   UNL     1      29.097  45.075  55.372  1.00  0.00     0.041 A 
HETATM   35  C   UNL     1      30.114  44.104  55.482  1.00  0.00    -0.056 A 
HETATM   36  C   UNL     1      30.013  42.887  54.780  1.00  0.00     0.010 A 
BRANCH  35  37
HETATM   37  C   UNL     1      31.352  44.407  56.290  1.00  0.00     0.034 C 
HETATM   38  C   UNL     1      31.797  43.193  57.094  1.00  0.00     0.010 C 
ENDBRANCH  35  37
ENDBRANCH   4  28
TORSDOF 11
ENDMDL
MODEL 4
REMARK VINA RESULT:      -9.3      2.650      9.665
REMARK  11 active torsions:
REMARK  status: ('A' for Active; 'I' for Inactive)
REMARK    1  A    between atoms: C_2  and  C_3 
REMARK    2  A    between atoms: C_3  and  C_4 
REMARK    3  A    between atoms: C_4  and  O_5 
REMARK    4  A    between atoms: O_5  and  C_6 
REMARK    5  A    between atoms: C_8  and  C_9 
REMARK       I    between atoms: C_9  and  N_10 
REMARK    6  A    between atoms: N_10  and  C_11 
REMARK    7  A    between atoms: C_11  and  N_12 
REMARK    8  A    between atoms: N_12  and  C_13 
REMARK    9  A    between atoms: C_15  and  O_16 
REMARK   10  A    between atoms: C_17  and  C_18 
REMARK   11  A    between atoms: C_25  and  C_26 
ROOT
HETATM    1  C   UNL     1      23.453  43.769  48.996  1.00  0.00     0.036 C 
HETATM    2  C   UNL     1      24.740  44.254  48.764  1.00  0.00     0.067 C 
HETATM    3  C   UNL     1      25.786  43.945  49.635  1.00  0.00     0.082 C 
HETATM    4  C   UNL     1      25.568  43.127  50.751  1.00  0.00     0.050 C 
HETATM    5  C   UNL     1      24.314  42.500  50.866  1.00  0.00     0.021 C 
HETATM    6  C   UNL     1      23.267  42.805  49.986  1.00  0.00     0.030 C 
ENDROOT
BRANCH   1   7
HETATM    7  N   UNL     1      22.321  44.237  48.294  1.00  0.00    -0.333 N 
HETATM    8  H   UNL     1      21.427  44.170  48.784  1.00  0.00     0.168 HD
BRANCH   7   9
HETATM    9  C   UNL     1      22.297  45.084  47.208  1.00  0.00     0.179 C 
HETATM   10  S   UNL     1      22.345  44.732  45.569  1.00  0.00    -0.040 SA
BRANCH   9  11
HETATM   11  N   UNL     1      22.281  46.430  47.499  1.00  0.00    -0.299 N 
HETATM   12  C   UNL     1      21.282  47.381  47.350  1.00  0.00     0.257 C 
HETATM   13  O   UNL     1      20.193  47.177  46.827  1.00  0.00    -0.267 OA
HETATM   14  H   UNL     1      23.160  46.733  47.899  1.00  0.00     0.171 HD
BRANCH  12  15
HETATM   15  C   UNL     1      21.668  48.727  47.854  1.00  0.00     0.035 A 
HETATM   16  C   UNL     1      22.994  48.989  48.220  1.00  0.00     0.053 A 
HETATM   17  C   UNL     1      23.370  50.286  48.559  1.00  0.00     0.069 A 
HETATM   18  C   UNL     1      22.420  51.303  48.611  1.00  0.00     0.037 A 
HETATM   19  C   UNL     1      21.090  51.031  48.283  1.00  0.00     0.004 A 
HETATM   20  C   UNL     1      20.709  49.742  47.901  1.00  0.00     0.017 A 
BRANCH  17  21
HETATM   21  O   UNL     1      24.661  50.581  48.898  1.00  0.00    -0.351 OA
BRANCH  21  22
HETATM   22  C   UNL     1      25.612  49.949  48.027  1.00  0.00     0.175 C 
BRANCH  22  23
HETATM   23  C   UNL     1      26.998  49.914  48.671  1.00  0.00     0.026 C 
BRANCH  23  24
HETATM   24  C   UNL     1      27.430  48.496  49.049  1.00  0.00    -0.002 C 
HETATM   25  C   UNL     1      26.505  47.897  50.098  1.00  0.00     0.005 C 
ENDBRANCH  23  24
ENDBRANCH  22  23
ENDBRANCH  21  22
ENDBRANCH  17  21
ENDBRANCH  12  15
ENDBRANCH   9  11
ENDBRANCH   7   9
ENDBRANCH   1   7
BRANCH   3  26
HETATM   26  O   UNL     1      27.019  44.487  49.389  1.00  0.00    -0.360 OA
HETATM   27  H   UNL     1      27.301  44.250  48.490  1.00  0.00     0.217 HD
ENDBRANCH   3  26
BRANCH   4  28
HETATM   28  C   UNL     1      26.504  43.025  51.874  1.00  0.00     0.183 A 
HETATM   29  O   UNL     1      27.705  42.411  51.615  1.00  0.00    -0.289 OA
HETATM   30  C   UNL     1      28.496  42.761  52.661  1.00  0.00     0.106 A 
HETATM   31  C   UNL     1      27.739  43.530  53.524  1.00  0.00     0.094 A 
HETATM   32  C   UNL     1      29.843  42.468  52.824  1.00  0.00     0.040 A 
HETATM   33  N   UNL     1      26.461  43.659  53.036  1.00  0.00    -0.221 NA
HETATM   34  C   UNL     1      28.357  44.080  54.654  1.00  0.00     0.041 A 
HETATM   35  C   UNL     1      29.736  43.854  54.844  1.00  0.00    -0.056 A 
HETATM   36  C   UNL     1      30.455  43.050  53.938  1.00  0.00     0.010 A 
BRANCH  35  37
HETATM   37  C   UNL     1      30.456  44.542  55.977  1.00  0.00     0.034 C 
HETATM   38  C   UNL     1      31.410  43.590  56.685  1.00  0.00     0.010 C 
ENDBRANCH  35  37
ENDBRANCH   4  28
TORSDOF 11
ENDMDL
MODEL 5
REMARK VINA RESULT:      -9.1      2.366     10.522
REMARK  11 active torsions:
REMARK  status: ('A' for Active; 'I' for Inactive)
REMARK    1  A    between atoms: C_2  and  C_3 
REMARK    2  A    between atoms: C_3  and  C_4 
REMARK    3  A    between atoms: C_4  and  O_5 
REMARK    4  A    between atoms: O_5  and  C_6 
REMARK    5  A    between atoms: C_8  and  C_9 
REMARK       I    between atoms: C_9  and  N_10 
REMARK    6  A    between atoms: N_10  and  C_11 
REMARK    7  A    between atoms: C_11  and  N_12 
REMARK    8  A    between atoms: N_12  and  C_13 
REMARK    9  A    between atoms: C_15  and  O_16 
REMARK   10  A    between atoms: C_17  and  C_18 
REMARK   11  A    between atoms: C_25  and  C_26 
ROOT
HETATM    1  C   UNL     1      24.594  45.627  50.722  1.00  0.00     0.036 C 
HETATM    2  C   UNL     1      24.836  44.496  51.501  1.00  0.00     0.067 C 
HETATM    3  C   UNL     1      25.663  44.567  52.623  1.00  0.00     0.082 C 
HETATM    4  C   UNL     1      26.255  45.779  52.999  1.00  0.00     0.050 C 
HETATM    5  C   UNL     1      25.855  46.941  52.314  1.00  0.00     0.021 C 
HETATM    6  C   UNL     1      25.017  46.869  51.192  1.00  0.00     0.030 C 
ENDROOT
BRANCH   1   7
HETATM    7  N   UNL     1      23.969  45.567  49.458  1.00  0.00    -0.333 N 
HETATM    8  H   UNL     1      24.542  45.836  48.657  1.00  0.00     0.168 HD
BRANCH   7   9
HETATM    9  C   UNL     1      22.832  44.867  49.116  1.00  0.00     0.179 C 
HETATM   10  S   UNL     1      22.659  43.277  48.610  1.00  0.00    -0.040 SA
BRANCH   9  11
HETATM   11  N   UNL     1      21.656  45.585  49.143  1.00  0.00    -0.299 N 
HETATM   12  C   UNL     1      21.067  46.401  48.190  1.00  0.00     0.257 C 
HETATM   13  O   UNL     1      21.571  46.698  47.113  1.00  0.00    -0.267 OA
HETATM   14  H   UNL     1      21.165  45.457  50.019  1.00  0.00     0.171 HD
BRANCH  12  15
HETATM   15  C   UNL     1      19.747  46.943  48.611  1.00  0.00     0.035 A 
HETATM   16  C   UNL     1      19.679  47.998  49.531  1.00  0.00     0.053 A 
HETATM   17  C   UNL     1      18.448  48.585  49.812  1.00  0.00     0.069 A 
HETATM   18  C   UNL     1      17.281  48.080  49.244  1.00  0.00     0.037 A 
HETATM   19  C   UNL     1      17.347  47.004  48.357  1.00  0.00     0.004 A 
HETATM   20  C   UNL     1      18.581  46.432  48.036  1.00  0.00     0.017 A 
BRANCH  17  21
HETATM   21  O   UNL     1      18.349  49.631  50.686  1.00  0.00    -0.351 OA
BRANCH  21  22
HETATM   22  C   UNL     1      19.296  50.673  50.401  1.00  0.00     0.175 C 
BRANCH  22  23
HETATM   23  C   UNL     1      18.594  51.903  49.826  1.00  0.00     0.026 C 
BRANCH  23  24
HETATM   24  C   UNL     1      19.209  52.362  48.503  1.00  0.00    -0.002 C 
HETATM   25  C   UNL     1      20.105  51.287  47.906  1.00  0.00     0.005 C 
ENDBRANCH  23  24
ENDBRANCH  22  23
ENDBRANCH  21  22
ENDBRANCH  17  21
ENDBRANCH  12  15
ENDBRANCH   9  11
ENDBRANCH   7   9
ENDBRANCH   1   7
BRANCH   3  26
HETATM   26  O   UNL     1      25.907  43.417  53.325  1.00  0.00    -0.360 OA
HETATM   27  H   UNL     1      26.042  42.683  52.702  1.00  0.00     0.217 HD
ENDBRANCH   3  26
BRANCH   4  28
HETATM   28  C   UNL     1      27.374  45.876  53.940  1.00  0.00     0.183 A 
HETATM   29  O   UNL     1      27.135  46.560  55.106  1.00  0.00    -0.289 OA
HETATM   30  C   UNL     1      28.157  46.202  55.924  1.00  0.00     0.106 A 
HETATM   31  C   UNL     1      28.989  45.356  55.215  1.00  0.00     0.094 A 
HETATM   32  C   UNL     1      28.323  46.554  57.256  1.00  0.00     0.040 A 
HETATM   33  N   UNL     1      28.506  45.186  53.940  1.00  0.00    -0.221 NA
HETATM   34  C   UNL     1      30.087  44.786  55.871  1.00  0.00     0.041 A 
HETATM   35  C   UNL     1      30.277  45.071  57.239  1.00  0.00    -0.056 A 
HETATM   36  C   UNL     1      29.404  45.951  57.908  1.00  0.00     0.010 A 
BRANCH  35  37
HETATM   37  C   UNL     1      31.370  44.367  58.004  1.00  0.00     0.034 C 
HETATM   38  C   UNL     1      32.017  43.275  57.164  1.00  0.00     0.010 C 
ENDBRANCH  35  37
ENDBRANCH   4  28
TORSDOF 11
ENDMDL
MODEL 6
REMARK VINA RESULT:      -9.1      2.687     10.243
REMARK  11 active torsions:
REMARK  status: ('A' for Active; 'I' for Inactive)
REMARK    1  A    between atoms: C_2  and  C_3 
REMARK    2  A    between atoms: C_3  and  C_4 
REMARK    3  A    between atoms: C_4  and  O_5 
REMARK    4  A    between atoms: O_5  and  C_6 
REMARK    5  A    between atoms: C_8  and  C_9 
REMARK       I    between atoms: C_9  and  N_10 
REMARK    6  A    between atoms: N_10  and  C_11 
REMARK    7  A    between atoms: C_11  and  N_12 
REMARK    8  A    between atoms: N_12  and  C_13 
REMARK    9  A    between atoms: C_15  and  O_16 
REMARK   10  A    between atoms: C_17  and  C_18 
REMARK   11  A    between atoms: C_25  and  C_26 
ROOT
HETATM    1  C   UNL     1      23.115  44.307  49.939  1.00  0.00     0.036 C 
HETATM    2  C   UNL     1      23.955  45.373  50.260  1.00  0.00     0.067 C 
HETATM    3  C   UNL     1      25.126  45.161  50.990  1.00  0.00     0.082 C 
HETATM    4  C   UNL     1      25.490  43.873  51.400  1.00  0.00     0.050 C 
HETATM    5  C   UNL     1      24.731  42.793  50.911  1.00  0.00     0.021 C 
HETATM    6  C   UNL     1      23.559  43.007  50.172  1.00  0.00     0.030 C 
ENDROOT
BRANCH   1   7
HETATM    7  N   UNL     1      21.815  44.488  49.419  1.00  0.00    -0.333 N 
HETATM    8  H   UNL     1      21.042  44.255  50.044  1.00  0.00     0.168 HD
BRANCH   7   9
HETATM    9  C   UNL     1      21.442  45.258  48.339  1.00  0.00     0.179 C 
HETATM   10  S   UNL     1      21.709  45.014  46.701  1.00  0.00    -0.040 SA
BRANCH   9  11
HETATM   11  N   UNL     1      20.793  46.436  48.639  1.00  0.00    -0.299 N 
HETATM   12  C   UNL     1      19.445  46.759  48.626  1.00  0.00     0.257 C 
HETATM   13  O   UNL     1      18.549  46.015  48.247  1.00  0.00    -0.267 OA
HETATM   14  H   UNL     1      21.445  47.155  48.924  1.00  0.00     0.171 HD
BRANCH  12  15
HETATM   15  C   UNL     1      19.166  48.147  49.085  1.00  0.00     0.035 A 
HETATM   16  C   UNL     1      20.212  48.964  49.535  1.00  0.00     0.053 A 
HETATM   17  C   UNL     1      19.960  50.301  49.832  1.00  0.00     0.069 A 
HETATM   18  C   UNL     1      18.664  50.807  49.758  1.00  0.00     0.037 A 
HETATM   19  C   UNL     1      17.616  49.980  49.345  1.00  0.00     0.004 A 
HETATM   20  C   UNL     1      17.864  48.647  49.006  1.00  0.00     0.017 A 
BRANCH  17  21
HETATM   21  O   UNL     1      20.961  51.131  50.250  1.00  0.00    -0.351 OA
BRANCH  21  22
HETATM   22  C   UNL     1      22.264  50.626  49.918  1.00  0.00     0.175 C 
BRANCH  22  23
HETATM   23  C   UNL     1      22.797  51.293  48.649  1.00  0.00     0.026 C 
BRANCH  23  24
HETATM   24  C   UNL     1      23.416  50.288  47.677  1.00  0.00    -0.002 C 
HETATM   25  C   UNL     1      24.845  49.946  48.070  1.00  0.00     0.005 C 
ENDBRANCH  23  24
ENDBRANCH  22  23
ENDBRANCH  21  22
ENDBRANCH  17  21
ENDBRANCH  12  15
ENDBRANCH   9  11
ENDBRANCH   7   9
ENDBRANCH   1   7
BRANCH   3  26
HETATM   26  O   UNL     1      25.891  46.248  51.321  1.00  0.00    -0.360 OA
HETATM   27  H   UNL     1      26.314  46.092  52.182  1.00  0.00     0.217 HD
ENDBRANCH   3  26
BRANCH   4  28
HETATM   28  C   UNL     1      26.500  43.605  52.428  1.00  0.00     0.183 A 
HETATM   29  O   UNL     1      27.537  42.783  52.066  1.00  0.00    -0.289 OA
HETATM   30  C   UNL     1      28.480  42.986  53.021  1.00  0.00     0.106 A 
HETATM   31  C   UNL     1      27.964  43.883  53.938  1.00  0.00     0.094 A 
HETATM   32  C   UNL     1      29.761  42.453  53.058  1.00  0.00     0.040 A 
HETATM   33  N   UNL     1      26.688  44.241  53.575  1.00  0.00    -0.221 NA
HETATM   34  C   UNL     1      28.781  44.315  54.990  1.00  0.00     0.041 A 
HETATM   35  C   UNL     1      30.109  43.843  55.049  1.00  0.00    -0.056 A 
HETATM   36  C   UNL     1      30.577  42.918  54.094  1.00  0.00     0.010 A 
BRANCH  35  37
HETATM   37  C   UNL     1      31.052  44.392  56.091  1.00  0.00     0.034 C 
HETATM   38  C   UNL     1      31.598  43.284  56.981  1.00  0.00     0.010 C 
ENDBRANCH  35  37
ENDBRANCH   4  28
TORSDOF 11
ENDMDL
MODEL 7
REMARK VINA RESULT:      -8.9      2.529     10.807
REMARK  11 active torsions:
REMARK  status: ('A' for Active; 'I' for Inactive)
REMARK    1  A    between atoms: C_2  and  C_3 
REMARK    2  A    between atoms: C_3  and  C_4 
REMARK    3  A    between atoms: C_4  and  O_5 
REMARK    4  A    between atoms: O_5  and  C_6 
REMARK    5  A    between atoms: C_8  and  C_9 
REMARK       I    between atoms: C_9  and  N_10 
REMARK    6  A    between atoms: N_10  and  C_11 
REMARK    7  A    between atoms: C_11  and  N_12 
REMARK    8  A    between atoms: N_12  and  C_13 
REMARK    9  A    between atoms: C_15  and  O_16 
REMARK   10  A    between atoms: C_17  and  C_18 
REMARK   11  A    between atoms: C_25  and  C_26 
ROOT
HETATM    1  C   UNL     1      23.210  44.810  49.658  1.00  0.00     0.036 C 
HETATM    2  C   UNL     1      24.209  45.757  49.879  1.00  0.00     0.067 C 
HETATM    3  C   UNL     1      25.336  45.439  50.639  1.00  0.00     0.082 C 
HETATM    4  C   UNL     1      25.494  44.158  51.182  1.00  0.00     0.050 C 
HETATM    5  C   UNL     1      24.572  43.168  50.797  1.00  0.00     0.021 C 
HETATM    6  C   UNL     1      23.445  43.487  50.026  1.00  0.00     0.030 C 
ENDROOT
BRANCH   1   7
HETATM    7  N   UNL     1      21.952  45.139  49.108  1.00  0.00    -0.333 N 
HETATM    8  H   UNL     1      21.152  45.072  49.738  1.00  0.00     0.168 HD
BRANCH   7   9
HETATM    9  C   UNL     1      21.700  45.869  47.966  1.00  0.00     0.179 C 
HETATM   10  S   UNL     1      21.980  45.481  46.359  1.00  0.00    -0.040 SA
BRANCH   9  11
HETATM   11  N   UNL     1      21.184  47.131  48.164  1.00  0.00    -0.299 N 
HETATM   12  C   UNL     1      20.012  47.548  48.776  1.00  0.00     0.257 C 
HETATM   13  O   UNL     1      19.142  46.801  49.208  1.00  0.00    -0.267 OA
HETATM   14  H   UNL     1      21.801  47.844  47.798  1.00  0.00     0.171 HD
BRANCH  12  15
HETATM   15  C   UNL     1      19.867  49.028  48.828  1.00  0.00     0.035 A 
HETATM   16  C   UNL     1      18.758  49.606  49.459  1.00  0.00     0.053 A 
HETATM   17  C   UNL     1      18.703  50.988  49.622  1.00  0.00     0.069 A 
HETATM   18  C   UNL     1      19.704  51.799  49.093  1.00  0.00     0.037 A 
HETATM   19  C   UNL     1      20.790  51.223  48.430  1.00  0.00     0.004 A 
HETATM   20  C   UNL     1      20.877  49.835  48.297  1.00  0.00     0.017 A 
BRANCH  17  21
HETATM   21  O   UNL     1      17.647  51.582  50.254  1.00  0.00    -0.351 OA
BRANCH  21  22
HETATM   22  C   UNL     1      16.835  52.353  49.354  1.00  0.00     0.175 C 
BRANCH  22  23
HETATM   23  C   UNL     1      15.716  51.496  48.763  1.00  0.00     0.026 C 
BRANCH  23  24
HETATM   24  C   UNL     1      15.605  51.644  47.245  1.00  0.00    -0.002 C 
HETATM   25  C   UNL     1      16.941  52.033  46.628  1.00  0.00     0.005 C 
ENDBRANCH  23  24
ENDBRANCH  22  23
ENDBRANCH  21  22
ENDBRANCH  17  21
ENDBRANCH  12  15
ENDBRANCH   9  11
ENDBRANCH   7   9
ENDBRANCH   1   7
BRANCH   3  26
HETATM   26  O   UNL     1      26.264  46.420  50.867  1.00  0.00    -0.360 OA
HETATM   27  H   UNL     1      26.982  46.340  50.218  1.00  0.00     0.217 HD
ENDBRANCH   3  26
BRANCH   4  28
HETATM   28  C   UNL     1      26.454  43.841  52.243  1.00  0.00     0.183 A 
HETATM   29  O   UNL     1      27.480  42.994  51.905  1.00  0.00    -0.289 OA
HETATM   30  C   UNL     1      28.390  43.151  52.901  1.00  0.00     0.106 A 
HETATM   31  C   UNL     1      27.865  44.047  53.813  1.00  0.00     0.094 A 
HETATM   32  C   UNL     1      29.651  42.578  52.977  1.00  0.00     0.040 A 
HETATM   33  N   UNL     1      26.616  44.450  53.408  1.00  0.00    -0.221 NA
HETATM   34  C   UNL     1      28.653  44.434  54.905  1.00  0.00     0.041 A 
HETATM   35  C   UNL     1      29.963  43.920  55.006  1.00  0.00    -0.056 A 
HETATM   36  C   UNL     1      30.440  42.999  54.053  1.00  0.00     0.010 A 
BRANCH  35  37
HETATM   37  C   UNL     1      30.880  44.422  56.094  1.00  0.00     0.034 C 
HETATM   38  C   UNL     1      31.489  43.268  56.879  1.00  0.00     0.010 C 
ENDBRANCH  35  37
ENDBRANCH   4  28
TORSDOF 11
ENDMDL
MODEL 8
REMARK VINA RESULT:      -8.6      2.308      4.488
REMARK  11 active torsions:
REMARK  status: ('A' for Active; 'I' for Inactive)
REMARK    1  A    between atoms: C_2  and  C_3 
REMARK    2  A    between atoms: C_3  and  C_4 
REMARK    3  A    between atoms: C_4  and  O_5 
REMARK    4  A    between atoms: O_5  and  C_6 
REMARK    5  A    between atoms: C_8  and  C_9 
REMARK       I    between atoms: C_9  and  N_10 
REMARK    6  A    between atoms: N_10  and  C_11 
REMARK    7  A    between atoms: C_11  and  N_12 
REMARK    8  A    between atoms: N_12  and  C_13 
REMARK    9  A    between atoms: C_15  and  O_16 
REMARK   10  A    between atoms: C_17  and  C_18 
REMARK   11  A    between atoms: C_25  and  C_26 
ROOT
HETATM    1  C   UNL     1      23.986  48.068  48.884  1.00  0.00     0.036 C 
HETATM    2  C   UNL     1      22.721  47.485  48.803  1.00  0.00     0.067 C 
HETATM    3  C   UNL     1      21.592  48.266  48.554  1.00  0.00     0.082 C 
HETATM    4  C   UNL     1      21.707  49.649  48.363  1.00  0.00     0.050 C 
HETATM    5  C   UNL     1      23.002  50.189  48.265  1.00  0.00     0.021 C 
HETATM    6  C   UNL     1      24.136  49.401  48.508  1.00  0.00     0.030 C 
ENDROOT
BRANCH   1   7
HETATM    7  N   UNL     1      25.118  47.375  49.365  1.00  0.00    -0.333 N 
HETATM    8  H   UNL     1      25.231  46.414  49.039  1.00  0.00     0.168 HD
BRANCH   7   9
HETATM    9  C   UNL     1      26.261  47.914  49.914  1.00  0.00     0.179 C 
HETATM   10  S   UNL     1      27.490  48.795  49.189  1.00  0.00    -0.040 SA
BRANCH   9  11
HETATM   11  N   UNL     1      26.462  47.655  51.252  1.00  0.00    -0.299 N 
HETATM   12  C   UNL     1      25.772  46.836  52.133  1.00  0.00     0.257 C 
HETATM   13  O   UNL     1      24.750  46.218  51.862  1.00  0.00    -0.267 OA
HETATM   14  H   UNL     1      27.264  48.157  51.610  1.00  0.00     0.171 HD
BRANCH  12  15
HETATM   15  C   UNL     1      26.368  46.800  53.496  1.00  0.00     0.035 A 
HETATM   16  C   UNL     1      27.083  45.673  53.923  1.00  0.00     0.053 A 
HETATM   17  C   UNL     1      27.750  45.705  55.145  1.00  0.00     0.069 A 
HETATM   18  C   UNL     1      27.646  46.820  55.975  1.00  0.00     0.037 A 
HETATM   19  C   UNL     1      26.902  47.927  55.564  1.00  0.00     0.004 A 
HETATM   20  C   UNL     1      26.261  47.922  54.321  1.00  0.00     0.017 A 
BRANCH  17  21
HETATM   21  O   UNL     1      28.475  44.632  55.581  1.00  0.00    -0.351 OA
BRANCH  21  22
HETATM   22  C   UNL     1      29.783  44.581  54.990  1.00  0.00     0.175 C 
BRANCH  22  23
HETATM   23  C   UNL     1      30.250  43.135  54.829  1.00  0.00     0.026 C 
BRANCH  23  24
HETATM   24  C   UNL     1      30.390  42.725  53.362  1.00  0.00    -0.002 C 
HETATM   25  C   UNL     1      29.267  43.307  52.516  1.00  0.00     0.005 C 
ENDBRANCH  23  24
ENDBRANCH  22  23
ENDBRANCH  21  22
ENDBRANCH  17  21
ENDBRANCH  12  15
ENDBRANCH   9  11
ENDBRANCH   7   9
ENDBRANCH   1   7
BRANCH   3  26
HETATM   26  O   UNL     1      20.368  47.652  48.533  1.00  0.00    -0.360 OA
HETATM   27  H   UNL     1      20.323  47.050  47.772  1.00  0.00     0.217 HD
ENDBRANCH   3  26
BRANCH   4  28
HETATM   28  C   UNL     1      20.570  50.572  48.427  1.00  0.00     0.183 A 
HETATM   29  O   UNL     1      19.592  50.403  47.479  1.00  0.00    -0.289 OA
HETATM   30  C   UNL     1      18.531  51.100  47.960  1.00  0.00     0.106 A 
HETATM   31  C   UNL     1      18.918  51.690  49.148  1.00  0.00     0.094 A 
HETATM   32  C   UNL     1      17.258  51.167  47.411  1.00  0.00     0.040 A 
HETATM   33  N   UNL     1      20.229  51.383  49.418  1.00  0.00    -0.221 NA
HETATM   34  C   UNL     1      17.967  52.410  49.883  1.00  0.00     0.041 A 
HETATM   35  C   UNL     1      16.644  52.470  49.397  1.00  0.00    -0.056 A 
HETATM   36  C   UNL     1      16.310  51.860  48.172  1.00  0.00     0.010 A 
BRANCH  35  37
HETATM   37  C   UNL     1      15.570  53.122  50.232  1.00  0.00     0.034 C 
HETATM   38  C   UNL     1      14.506  53.769  49.356  1.00  0.00     0.010 C 
ENDBRANCH  35  37
ENDBRANCH   4  28
TORSDOF 11
ENDMDL
MODEL 9
REMARK VINA RESULT:      -8.5      2.594     10.661
REMARK  11 active torsions:
REMARK  status: ('A' for Active; 'I' for Inactive)
REMARK    1  A    between atoms: C_2  and  C_3 
REMARK    2  A    between atoms: C_3  and  C_4 
REMARK    3  A    between atoms: C_4  and  O_5 
REMARK    4  A    between atoms: O_5  and  C_6 
REMARK    5  A    between atoms: C_8  and  C_9 
REMARK       I    between atoms: C_9  and  N_10 
REMARK    6  A    between atoms: N_10  and  C_11 
REMARK    7  A    between atoms: C_11  and  N_12 
REMARK    8  A    between atoms: N_12  and  C_13 
REMARK    9  A    between atoms: C_15  and  O_16 
REMARK   10  A    between atoms: C_17  and  C_18 
REMARK   11  A    between atoms: C_25  and  C_26 
ROOT
HETATM    1  C   UNL     1      23.094  44.304  49.852  1.00  0.00     0.036 C 
HETATM    2  C   UNL     1      23.985  45.348  50.102  1.00  0.00     0.067 C 
HETATM    3  C   UNL     1      25.143  45.132  50.851  1.00  0.00     0.082 C 
HETATM    4  C   UNL     1      25.443  43.860  51.354  1.00  0.00     0.050 C 
HETATM    5  C   UNL     1      24.633  42.787  50.939  1.00  0.00     0.021 C 
HETATM    6  C   UNL     1      23.475  43.004  50.180  1.00  0.00     0.030 C 
ENDROOT
BRANCH   1   7
HETATM    7  N   UNL     1      21.806  44.510  49.314  1.00  0.00    -0.333 N 
HETATM    8  H   UNL     1      21.101  44.874  49.956  1.00  0.00     0.168 HD
BRANCH   7   9
HETATM    9  C   UNL     1      21.461  44.630  47.985  1.00  0.00     0.179 C 
HETATM   10  S   UNL     1      21.778  43.605  46.696  1.00  0.00    -0.040 SA
BRANCH   9  11
HETATM   11  N   UNL     1      20.795  45.786  47.641  1.00  0.00    -0.299 N 
HETATM   12  C   UNL     1      21.272  47.048  47.319  1.00  0.00     0.257 C 
HETATM   13  O   UNL     1      22.449  47.385  47.363  1.00  0.00    -0.267 OA
HETATM   14  H   UNL     1      19.794  45.644  47.618  1.00  0.00     0.171 HD
BRANCH  12  15
HETATM   15  C   UNL     1      20.198  48.007  46.945  1.00  0.00     0.035 A 
HETATM   16  C   UNL     1      20.208  49.310  47.458  1.00  0.00     0.053 A 
HETATM   17  C   UNL     1      19.277  50.238  46.995  1.00  0.00     0.069 A 
HETATM   18  C   UNL     1      18.294  49.855  46.086  1.00  0.00     0.037 A 
HETATM   19  C   UNL     1      18.263  48.544  45.605  1.00  0.00     0.004 A 
HETATM   20  C   UNL     1      19.217  47.615  46.032  1.00  0.00     0.017 A 
BRANCH  17  21
HETATM   21  O   UNL     1      19.274  51.524  47.457  1.00  0.00    -0.351 OA
BRANCH  21  22
HETATM   22  C   UNL     1      19.942  51.652  48.722  1.00  0.00     0.175 C 
BRANCH  22  23
HETATM   23  C   UNL     1      18.933  51.876  49.849  1.00  0.00     0.026 C 
BRANCH  23  24
HETATM   24  C   UNL     1      18.027  50.665  50.072  1.00  0.00    -0.002 C 
HETATM   25  C   UNL     1      18.778  49.529  50.751  1.00  0.00     0.005 C 
ENDBRANCH  23  24
ENDBRANCH  22  23
ENDBRANCH  21  22
ENDBRANCH  17  21
ENDBRANCH  12  15
ENDBRANCH   9  11
ENDBRANCH   7   9
ENDBRANCH   1   7
BRANCH   3  26
HETATM   26  O   UNL     1      25.960  46.201  51.108  1.00  0.00    -0.360 OA
HETATM   27  H   UNL     1      25.522  47.018  50.815  1.00  0.00     0.217 HD
ENDBRANCH   3  26
BRANCH   4  28
HETATM   28  C   UNL     1      26.436  43.618  52.403  1.00  0.00     0.183 A 
HETATM   29  O   UNL     1      27.461  42.761  52.089  1.00  0.00    -0.289 OA
HETATM   30  C   UNL     1      28.397  42.986  53.046  1.00  0.00     0.106 A 
HETATM   31  C   UNL     1      27.890  43.933  53.916  1.00  0.00     0.094 A 
HETATM   32  C   UNL     1      29.667  42.431  53.120  1.00  0.00     0.040 A 
HETATM   33  N   UNL     1      26.626  44.300  53.524  1.00  0.00    -0.221 NA
HETATM   34  C   UNL     1      28.705  44.395  54.958  1.00  0.00     0.041 A 
HETATM   35  C   UNL     1      30.022  43.899  55.052  1.00  0.00    -0.056 A 
HETATM   36  C   UNL     1      30.481  42.925  54.144  1.00  0.00     0.010 A 
BRANCH  35  37
HETATM   37  C   UNL     1      30.965  44.475  56.080  1.00  0.00     0.034 C 
HETATM   38  C   UNL     1      31.560  43.383  56.958  1.00  0.00     0.010 C 
ENDBRANCH  35  37
ENDBRANCH   4  28
TORSDOF 11
ENDMDL
MODEL 10
REMARK VINA RESULT:      -8.5      2.811     10.177
REMARK  11 active torsions:
REMARK  status: ('A' for Active; 'I' for Inactive)
REMARK    1  A    between atoms: C_2  and  C_3 
REMARK    2  A    between atoms: C_3  and  C_4 
REMARK    3  A    between atoms: C_4  and  O_5 
REMARK    4  A    between atoms: O_5  and  C_6 
REMARK    5  A    between atoms: C_8  and  C_9 
REMARK       I    between atoms: C_9  and  N_10 
REMARK    6  A    between atoms: N_10  and  C_11 
REMARK    7  A    between atoms: C_11  and  N_12 
REMARK    8  A    between atoms: N_12  and  C_13 
REMARK    9  A    between atoms: C_15  and  O_16 
REMARK   10  A    between atoms: C_17  and  C_18 
REMARK   11  A    between atoms: C_25  and  C_26 
ROOT
HETATM    1  C   UNL     1      22.636  45.128  48.705  1.00  0.00     0.036 C 
HETATM    2  C   UNL     1      22.791  44.033  49.555  1.00  0.00     0.067 C 
HETATM    3  C   UNL     1      23.775  44.032  50.544  1.00  0.00     0.082 C 
HETATM    4  C   UNL     1      24.616  45.138  50.716  1.00  0.00     0.050 C 
HETATM    5  C   UNL     1      24.326  46.300  49.977  1.00  0.00     0.021 C 
HETATM    6  C   UNL     1      23.332  46.302  48.989  1.00  0.00     0.030 C 
ENDROOT
BRANCH   1   7
HETATM    7  N   UNL     1      21.829  45.091  47.547  1.00  0.00    -0.333 N 
HETATM    8  H   UNL     1      22.159  44.494  46.787  1.00  0.00     0.168 HD
BRANCH   7   9
HETATM    9  C   UNL     1      20.505  45.454  47.434  1.00  0.00     0.179 C 
HETATM   10  S   UNL     1      19.155  44.511  47.115  1.00  0.00    -0.040 SA
BRANCH   9  11
HETATM   11  N   UNL     1      20.241  46.801  47.551  1.00  0.00    -0.299 N 
HETATM   12  C   UNL     1      19.652  47.692  46.668  1.00  0.00     0.257 C 
HETATM   13  O   UNL     1      19.309  47.422  45.523  1.00  0.00    -0.267 OA
HETATM   14  H   UNL     1      20.530  47.158  48.453  1.00  0.00     0.171 HD
BRANCH  12  15
HETATM   15  C   UNL     1      19.503  49.064  47.224  1.00  0.00     0.035 A 
HETATM   16  C   UNL     1      20.249  49.456  48.342  1.00  0.00     0.053 A 
HETATM   17  C   UNL     1      20.203  50.781  48.770  1.00  0.00     0.069 A 
HETATM   18  C   UNL     1      19.362  51.695  48.140  1.00  0.00     0.037 A 
HETATM   19  C   UNL     1      18.588  51.292  47.048  1.00  0.00     0.004 A 
HETATM   20  C   UNL     1      18.658  49.975  46.585  1.00  0.00     0.017 A 
BRANCH  17  21
HETATM   21  O   UNL     1      20.937  51.203  49.843  1.00  0.00    -0.351 OA
BRANCH  21  22
HETATM   22  C   UNL     1      22.263  50.649  49.848  1.00  0.00     0.175 C 
BRANCH  22  23
HETATM   23  C   UNL     1      23.113  51.267  48.738  1.00  0.00     0.026 C 
BRANCH  23  24
HETATM   24  C   UNL     1      23.819  50.211  47.886  1.00  0.00    -0.002 C 
HETATM   25  C   UNL     1      25.136  49.781  48.515  1.00  0.00     0.005 C 
ENDBRANCH  23  24
ENDBRANCH  22  23
ENDBRANCH  21  22
ENDBRANCH  17  21
ENDBRANCH  12  15
ENDBRANCH   9  11
ENDBRANCH   7   9
ENDBRANCH   1   7
BRANCH   3  26
HETATM   26  O   UNL     1      23.918  42.912  51.319  1.00  0.00    -0.360 OA
HETATM   27  H   UNL     1      23.277  42.240  51.034  1.00  0.00     0.217 HD
ENDBRANCH   3  26
BRANCH   4  28
HETATM   28  C   UNL     1      25.862  45.096  51.486  1.00  0.00     0.183 A 
HETATM   29  O   UNL     1      25.876  45.797  52.666  1.00  0.00    -0.289 OA
HETATM   30  C   UNL     1      26.955  45.316  53.335  1.00  0.00     0.106 A 
HETATM   31  C   UNL     1      27.569  44.380  52.523  1.00  0.00     0.094 A 
HETATM   32  C   UNL     1      27.351  45.638  54.625  1.00  0.00     0.040 A 
HETATM   33  N   UNL     1      26.892  44.276  51.333  1.00  0.00    -0.221 NA
HETATM   34  C   UNL     1      28.675  43.679  53.023  1.00  0.00     0.041 A 
HETATM   35  C   UNL     1      29.091  43.933  54.346  1.00  0.00    -0.056 A 
HETATM   36  C   UNL     1      28.434  44.907  55.123  1.00  0.00     0.010 A 
BRANCH  35  37
HETATM   37  C   UNL     1      30.191  43.099  54.956  1.00  0.00     0.034 C 
HETATM   38  C   UNL     1      30.978  43.894  55.989  1.00  0.00     0.010 C 
ENDBRANCH  35  37
ENDBRANCH   4  28
TORSDOF 11
ENDMDL
