MODEL 1
REMARK VINA RESULT:      -9.2      0.000      0.000
REMARK  8 active torsions:
REMARK  status: ('A' for Active; 'I' for Inactive)
REMARK    1  A    between atoms: C_2  and  C_3 
REMARK    2  A    between atoms: C_4  and  N_5 
REMARK    3  A    between atoms: N_5  and  S_6 
REMARK    4  A    between atoms: S_6  and  C_7 
REMARK    5  A    between atoms: C_13  and  C_14 
REMARK       I    between atoms: C_14  and  N_15 
REMARK    6  A    between atoms: N_15  and  C_16 
REMARK    7  A    between atoms: C_16  and  C_17 
REMARK    8  A    between atoms: C_17  and  O_18 
ROOT
HETATM    1  C   UNL     1      26.537  43.572  52.272  1.00  0.00     0.081 A 
HETATM    2  C   UNL     1      26.136  44.906  52.177  1.00  0.00     0.043 A 
HETATM    3  C   UNL     1      25.317  45.295  51.111  1.00  0.00     0.043 A 
HETATM    4  C   UNL     1      24.857  44.354  50.171  1.00  0.00     0.046 A 
HETATM    5  N   UNL     1      24.054  44.771  49.106  1.00  0.00    -0.364 N 
HETATM    6  C   UNL     1      23.645  46.075  49.003  1.00  0.00     0.109 A 
HETATM    7  C   UNL     1      24.012  47.075  49.824  1.00  0.00     0.098 A 
HETATM    8  C   UNL     1      24.922  46.721  50.950  1.00  0.00     0.201 A 
HETATM    9  O   UNL     1      25.349  47.570  51.728  1.00  0.00    -0.286 OA
HETATM   10  C   UNL     1      25.266  43.022  50.287  1.00  0.00     0.032 A 
HETATM   11  C   UNL     1      26.099  42.627  51.337  1.00  0.00     0.027 A 
HETATM   12  H   UNL     1      23.609  44.076  48.514  1.00  0.00     0.165 HD
ENDROOT
BRANCH   1  13
HETATM   13  S   UNL     1      27.541  43.054  53.643  1.00  0.00     0.263 S 
HETATM   14  O   UNL     1      28.227  41.844  53.234  1.00  0.00    -0.200 OA
HETATM   15  O   UNL     1      26.730  43.077  54.839  1.00  0.00    -0.200 OA
BRANCH  13  16
HETATM   16  N   UNL     1      28.738  44.249  53.709  1.00  0.00    -0.280 N 
HETATM   17  H   UNL     1      29.358  44.172  52.905  1.00  0.00     0.179 HD
BRANCH  16  18
HETATM   18  C   UNL     1      29.353  44.508  54.970  1.00  0.00     0.049 A 
HETATM   19  C   UNL     1      28.917  45.557  55.797  1.00  0.00    -0.031 A 
HETATM   20  C   UNL     1      29.597  45.783  57.006  1.00  0.00     0.009 A 
HETATM   21  C   UNL     1      30.689  44.994  57.373  1.00  0.00     0.001 A 
HETATM   22  C   UNL     1      31.111  43.961  56.543  1.00  0.00     0.002 A 
HETATM   23  C   UNL     1      30.443  43.717  55.344  1.00  0.00     0.030 A 
BRANCH  19  24
HETATM   24  C   UNL     1      27.735  46.434  55.460  1.00  0.00     0.036 C 
HETATM   25  C   UNL     1      28.156  47.670  54.677  1.00  0.00     0.010 C 
ENDBRANCH  19  24
ENDBRANCH  16  18
ENDBRANCH  13  16
ENDBRANCH   1  13
BRANCH   7  26
HETATM   26  C   UNL     1      23.503  48.446  49.539  1.00  0.00     0.257 C 
HETATM   27  N   UNL     1      22.140  48.578  49.517  1.00  0.00    -0.355 N 
HETATM   28  H   UNL     1      21.566  47.734  49.554  1.00  0.00     0.162 HD
HETATM   29  O   UNL     1      24.266  49.390  49.345  1.00  0.00    -0.267 OA
BRANCH  27  30
HETATM   30  C   UNL     1      21.482  49.832  49.201  1.00  0.00     0.149 C 
BRANCH  30  31
HETATM   31  C   UNL     1      20.118  49.961  49.880  1.00  0.00     0.186 C 
BRANCH  31  32
HETATM   32  O   UNL     1      19.561  48.655  50.059  1.00  0.00    -0.394 OA
HETATM   33  C   UNL     1      18.589  48.639  51.097  1.00  0.00     0.201 C 
ENDBRANCH  31  32
ENDBRANCH  30  31
ENDBRANCH  27  30
ENDBRANCH   7  26
TORSDOF 8
ENDMDL
MODEL 2
REMARK VINA RESULT:      -8.6      2.512      9.606
REMARK  8 active torsions:
REMARK  status: ('A' for Active; 'I' for Inactive)
REMARK    1  A    between atoms: C_2  and  C_3 
REMARK    2  A    between atoms: C_4  and  N_5 
REMARK    3  A    between atoms: N_5  and  S_6 
REMARK    4  A    between atoms: S_6  and  C_7 
REMARK    5  A    between atoms: C_13  and  C_14 
REMARK       I    between atoms: C_14  and  N_15 
REMARK    6  A    between atoms: N_15  and  C_16 
REMARK    7  A    between atoms: C_16  and  C_17 
REMARK    8  A    between atoms: C_17  and  O_18 
ROOT
HETATM    1  C   UNL     1      23.224  48.189  49.022  1.00  0.00     0.081 A 
HETATM    2  C   UNL     1      24.213  48.028  49.995  1.00  0.00     0.043 A 
HETATM    3  C   UNL     1      24.569  46.735  50.394  1.00  0.00     0.043 A 
HETATM    4  C   UNL     1      23.983  45.606  49.793  1.00  0.00     0.046 A 
HETATM    5  N   UNL     1      24.344  44.324  50.220  1.00  0.00    -0.364 N 
HETATM    6  C   UNL     1      25.319  44.149  51.169  1.00  0.00     0.109 A 
HETATM    7  C   UNL     1      25.954  45.136  51.825  1.00  0.00     0.098 A 
HETATM    8  C   UNL     1      25.577  46.533  51.470  1.00  0.00     0.201 A 
HETATM    9  O   UNL     1      26.067  47.502  52.045  1.00  0.00    -0.286 OA
HETATM   10  C   UNL     1      22.999  45.788  48.817  1.00  0.00     0.032 A 
HETATM   11  C   UNL     1      22.622  47.076  48.426  1.00  0.00     0.027 A 
HETATM   12  H   UNL     1      24.030  43.515  49.694  1.00  0.00     0.165 HD
ENDROOT
BRANCH   1  13
HETATM   13  S   UNL     1      22.790  49.823  48.475  1.00  0.00     0.263 S 
HETATM   14  O   UNL     1      23.591  50.104  47.299  1.00  0.00    -0.200 OA
HETATM   15  O   UNL     1      22.813  50.709  49.616  1.00  0.00    -0.200 OA
BRANCH  13  16
HETATM   16  N   UNL     1      21.208  49.624  47.905  1.00  0.00    -0.280 N 
HETATM   17  H   UNL     1      21.198  49.626  46.887  1.00  0.00     0.179 HD
BRANCH  16  18
HETATM   18  C   UNL     1      20.168  50.351  48.558  1.00  0.00     0.049 A 
HETATM   19  C   UNL     1      19.285  49.723  49.453  1.00  0.00    -0.031 A 
HETATM   20  C   UNL     1      18.257  50.489  50.027  1.00  0.00     0.009 A 
HETATM   21  C   UNL     1      18.104  51.839  49.706  1.00  0.00     0.001 A 
HETATM   22  C   UNL     1      18.983  52.446  48.816  1.00  0.00     0.002 A 
HETATM   23  C   UNL     1      20.015  51.704  48.244  1.00  0.00     0.030 A 
BRANCH  19  24
HETATM   24  C   UNL     1      19.409  48.270  49.847  1.00  0.00     0.036 C 
HETATM   25  C   UNL     1      18.528  47.375  48.987  1.00  0.00     0.010 C 
ENDBRANCH  19  24
ENDBRANCH  16  18
ENDBRANCH  13  16
ENDBRANCH   1  13
BRANCH   7  26
HETATM   26  C   UNL     1      26.961  44.762  52.858  1.00  0.00     0.257 C 
HETATM   27  N   UNL     1      26.842  45.407  54.060  1.00  0.00    -0.355 N 
HETATM   28  H   UNL     1      26.184  46.184  54.136  1.00  0.00     0.162 HD
HETATM   29  O   UNL     1      27.832  43.924  52.636  1.00  0.00    -0.267 OA
BRANCH  27  30
HETATM   30  C   UNL     1      27.774  45.200  55.153  1.00  0.00     0.149 C 
BRANCH  30  31
HETATM   31  C   UNL     1      28.633  46.434  55.427  1.00  0.00     0.186 C 
BRANCH  31  32
HETATM   32  O   UNL     1      29.861  46.021  56.037  1.00  0.00    -0.394 OA
HETATM   33  C   UNL     1      29.732  45.911  57.449  1.00  0.00     0.201 C 
ENDBRANCH  31  32
ENDBRANCH  30  31
ENDBRANCH  27  30
ENDBRANCH   7  26
TORSDOF 8
ENDMDL
MODEL 3
REMARK VINA RESULT:      -8.6      1.530      2.432
REMARK  8 active torsions:
REMARK  status: ('A' for Active; 'I' for Inactive)
REMARK    1  A    between atoms: C_2  and  C_3 
REMARK    2  A    between atoms: C_4  and  N_5 
REMARK    3  A    between atoms: N_5  and  S_6 
REMARK    4  A    between atoms: S_6  and  C_7 
REMARK    5  A    between atoms: C_13  and  C_14 
REMARK       I    between atoms: C_14  and  N_15 
REMARK    6  A    between atoms: N_15  and  C_16 
REMARK    7  A    between atoms: C_16  and  C_17 
REMARK    8  A    between atoms: C_17  and  O_18 
ROOT
HETATM    1  C   UNL     1      25.752  43.507  51.059  1.00  0.00     0.081 A 
HETATM    2  C   UNL     1      25.642  44.869  50.770  1.00  0.00     0.043 A 
HETATM    3  C   UNL     1      24.493  45.334  50.121  1.00  0.00     0.043 A 
HETATM    4  C   UNL     1      23.436  44.461  49.806  1.00  0.00     0.046 A 
HETATM    5  N   UNL     1      22.305  44.948  49.142  1.00  0.00    -0.364 N 
HETATM    6  C   UNL     1      22.178  46.284  48.859  1.00  0.00     0.109 A 
HETATM    7  C   UNL     1      23.109  47.224  49.099  1.00  0.00     0.098 A 
HETATM    8  C   UNL     1      24.372  46.770  49.747  1.00  0.00     0.201 A 
HETATM    9  O   UNL     1      25.301  47.544  49.967  1.00  0.00    -0.286 OA
HETATM   10  C   UNL     1      23.563  43.102  50.108  1.00  0.00     0.032 A 
HETATM   11  C   UNL     1      24.715  42.624  50.738  1.00  0.00     0.027 A 
HETATM   12  H   UNL     1      21.489  44.353  49.043  1.00  0.00     0.165 HD
ENDROOT
BRANCH   1  13
HETATM   13  S   UNL     1      27.185  42.906  51.920  1.00  0.00     0.263 S 
HETATM   14  O   UNL     1      28.282  43.794  51.589  1.00  0.00    -0.200 OA
HETATM   15  O   UNL     1      27.290  41.483  51.695  1.00  0.00    -0.200 OA
BRANCH  13  16
HETATM   16  N   UNL     1      26.817  43.230  53.540  1.00  0.00    -0.280 N 
HETATM   17  H   UNL     1      25.826  43.068  53.715  1.00  0.00     0.179 HD
BRANCH  16  18
HETATM   18  C   UNL     1      27.390  44.394  54.134  1.00  0.00     0.049 A 
HETATM   19  C   UNL     1      28.646  44.353  54.762  1.00  0.00    -0.031 A 
HETATM   20  C   UNL     1      29.132  45.526  55.365  1.00  0.00     0.009 A 
HETATM   21  C   UNL     1      28.379  46.702  55.356  1.00  0.00     0.001 A 
HETATM   22  C   UNL     1      27.135  46.726  54.734  1.00  0.00     0.002 A 
HETATM   23  C   UNL     1      26.642  45.575  54.123  1.00  0.00     0.030 A 
BRANCH  19  24
HETATM   24  C   UNL     1      29.511  43.115  54.792  1.00  0.00     0.036 C 
HETATM   25  C   UNL     1      30.781  43.334  55.602  1.00  0.00     0.010 C 
ENDBRANCH  19  24
ENDBRANCH  16  18
ENDBRANCH  13  16
ENDBRANCH   1  13
BRANCH   7  26
HETATM   26  C   UNL     1      22.820  48.626  48.687  1.00  0.00     0.257 C 
HETATM   27  N   UNL     1      22.239  49.415  49.643  1.00  0.00    -0.355 N 
HETATM   28  H   UNL     1      21.916  48.979  50.508  1.00  0.00     0.162 HD
HETATM   29  O   UNL     1      23.095  49.037  47.561  1.00  0.00    -0.267 OA
BRANCH  27  30
HETATM   30  C   UNL     1      21.842  50.788  49.387  1.00  0.00     0.149 C 
BRANCH  30  31
HETATM   31  C   UNL     1      20.470  51.116  49.976  1.00  0.00     0.186 C 
BRANCH  31  32
HETATM   32  O   UNL     1      19.561  50.056  49.660  1.00  0.00    -0.394 OA
HETATM   33  C   UNL     1      18.223  50.395  50.003  1.00  0.00     0.201 C 
ENDBRANCH  31  32
ENDBRANCH  30  31
ENDBRANCH  27  30
ENDBRANCH   7  26
TORSDOF 8
ENDMDL
MODEL 4
REMARK VINA RESULT:      -8.5      1.765      2.550
REMARK  8 active torsions:
REMARK  status: ('A' for Active; 'I' for Inactive)
REMARK    1  A    between atoms: C_2  and  C_3 
REMARK    2  A    between atoms: C_4  and  N_5 
REMARK    3  A    between atoms: N_5  and  S_6 
REMARK    4  A    between atoms: S_6  and  C_7 
REMARK    5  A    between atoms: C_13  and  C_14 
REMARK       I    between atoms: C_14  and  N_15 
REMARK    6  A    between atoms: N_15  and  C_16 
REMARK    7  A    between atoms: C_16  and  C_17 
REMARK    8  A    between atoms: C_17  and  O_18 
ROOT
HETATM    1  C   UNL     1      25.889  45.074  52.866  1.00  0.00     0.081 A 
HETATM    2  C   UNL     1      25.319  46.122  52.140  1.00  0.00     0.043 A 
HETATM    3  C   UNL     1      24.583  45.826  50.987  1.00  0.00     0.043 A 
HETATM    4  C   UNL     1      24.371  44.495  50.585  1.00  0.00     0.046 A 
HETATM    5  N   UNL     1      23.645  44.227  49.420  1.00  0.00    -0.364 N 
HETATM    6  C   UNL     1      23.072  45.243  48.700  1.00  0.00     0.109 A 
HETATM    7  C   UNL     1      23.198  46.555  48.967  1.00  0.00     0.098 A 
HETATM    8  C   UNL     1      24.013  46.924  50.159  1.00  0.00     0.201 A 
HETATM    9  O   UNL     1      24.225  48.096  50.460  1.00  0.00    -0.286 OA
HETATM   10  C   UNL     1      24.945  43.460  51.329  1.00  0.00     0.032 A 
HETATM   11  C   UNL     1      25.699  43.745  52.471  1.00  0.00     0.027 A 
HETATM   12  H   UNL     1      23.373  43.272  49.210  1.00  0.00     0.165 HD
ENDROOT
BRANCH   1  13
HETATM   13  S   UNL     1      26.791  45.429  54.355  1.00  0.00     0.263 S 
HETATM   14  O   UNL     1      26.557  44.326  55.266  1.00  0.00    -0.200 OA
HETATM   15  O   UNL     1      26.504  46.789  54.750  1.00  0.00    -0.200 OA
BRANCH  13  16
HETATM   16  N   UNL     1      28.404  45.277  53.866  1.00  0.00    -0.280 N 
HETATM   17  H   UNL     1      28.452  44.868  52.934  1.00  0.00     0.179 HD
BRANCH  16  18
HETATM   18  C   UNL     1      29.349  44.800  54.824  1.00  0.00     0.049 A 
HETATM   19  C   UNL     1      29.962  43.544  54.686  1.00  0.00    -0.031 A 
HETATM   20  C   UNL     1      30.850  43.118  55.689  1.00  0.00     0.009 A 
HETATM   21  C   UNL     1      31.107  43.917  56.805  1.00  0.00     0.001 A 
HETATM   22  C   UNL     1      30.490  45.158  56.929  1.00  0.00     0.002 A 
HETATM   23  C   UNL     1      29.614  45.599  55.940  1.00  0.00     0.030 A 
BRANCH  19  24
HETATM   24  C   UNL     1      29.733  42.643  53.496  1.00  0.00     0.036 C 
HETATM   25  C   UNL     1      28.561  41.698  53.721  1.00  0.00     0.010 C 
ENDBRANCH  19  24
ENDBRANCH  16  18
ENDBRANCH  13  16
ENDBRANCH   1  13
BRANCH   7  26
HETATM   26  C   UNL     1      22.539  47.528  48.051  1.00  0.00     0.257 C 
HETATM   27  N   UNL     1      22.305  48.770  48.579  1.00  0.00    -0.355 N 
HETATM   28  H   UNL     1      22.459  48.915  49.577  1.00  0.00     0.162 HD
HETATM   29  O   UNL     1      22.237  47.226  46.899  1.00  0.00    -0.267 OA
BRANCH  27  30
HETATM   30  C   UNL     1      21.623  49.816  47.839  1.00  0.00     0.149 C 
BRANCH  30  31
HETATM   31  C   UNL     1      20.407  50.361  48.589  1.00  0.00     0.186 C 
BRANCH  31  32
HETATM   32  O   UNL     1      20.511  51.786  48.674  1.00  0.00    -0.394 OA
HETATM   33  C   UNL     1      19.252  52.415  48.471  1.00  0.00     0.201 C 
ENDBRANCH  31  32
ENDBRANCH  30  31
ENDBRANCH  27  30
ENDBRANCH   7  26
TORSDOF 8
ENDMDL
MODEL 5
REMARK VINA RESULT:      -8.3      2.704      4.256
REMARK  8 active torsions:
REMARK  status: ('A' for Active; 'I' for Inactive)
REMARK    1  A    between atoms: C_2  and  C_3 
REMARK    2  A    between atoms: C_4  and  N_5 
REMARK    3  A    between atoms: N_5  and  S_6 
REMARK    4  A    between atoms: S_6  and  C_7 
REMARK    5  A    between atoms: C_13  and  C_14 
REMARK       I    between atoms: C_14  and  N_15 
REMARK    6  A    between atoms: N_15  and  C_16 
REMARK    7  A    between atoms: C_16  and  C_17 
REMARK    8  A    between atoms: C_17  and  O_18 
ROOT
HETATM    1  C   UNL     1      25.471  46.631  50.098  1.00  0.00     0.081 A 
HETATM    2  C   UNL     1      24.152  46.991  49.815  1.00  0.00     0.043 A 
HETATM    3  C   UNL     1      23.899  48.234  49.225  1.00  0.00     0.043 A 
HETATM    4  C   UNL     1      24.954  49.095  48.872  1.00  0.00     0.046 A 
HETATM    5  N   UNL     1      24.674  50.339  48.298  1.00  0.00    -0.364 N 
HETATM    6  C   UNL     1      23.384  50.704  48.006  1.00  0.00     0.109 A 
HETATM    7  C   UNL     1      22.286  49.983  48.293  1.00  0.00     0.098 A 
HETATM    8  C   UNL     1      22.499  48.670  48.964  1.00  0.00     0.201 A 
HETATM    9  O   UNL     1      21.559  47.958  49.308  1.00  0.00    -0.286 OA
HETATM   10  C   UNL     1      26.268  48.715  49.159  1.00  0.00     0.032 A 
HETATM   11  C   UNL     1      26.530  47.483  49.766  1.00  0.00     0.027 A 
HETATM   12  H   UNL     1      25.432  50.895  47.916  1.00  0.00     0.165 HD
ENDROOT
BRANCH   1  13
HETATM   13  S   UNL     1      25.812  45.038  50.808  1.00  0.00     0.263 S 
HETATM   14  O   UNL     1      27.254  44.890  50.845  1.00  0.00    -0.200 OA
HETATM   15  O   UNL     1      24.983  44.056  50.148  1.00  0.00    -0.200 OA
BRANCH  13  16
HETATM   16  N   UNL     1      25.338  45.234  52.422  1.00  0.00    -0.280 N 
HETATM   17  H   UNL     1      24.409  45.649  52.468  1.00  0.00     0.179 HD
BRANCH  16  18
HETATM   18  C   UNL     1      26.307  45.727  53.346  1.00  0.00     0.049 A 
HETATM   19  C   UNL     1      27.069  44.857  54.143  1.00  0.00    -0.031 A 
HETATM   20  C   UNL     1      27.974  45.412  55.064  1.00  0.00     0.009 A 
HETATM   21  C   UNL     1      28.104  46.796  55.197  1.00  0.00     0.001 A 
HETATM   22  C   UNL     1      27.340  47.645  54.403  1.00  0.00     0.002 A 
HETATM   23  C   UNL     1      26.444  47.112  53.478  1.00  0.00     0.030 A 
BRANCH  19  24
HETATM   24  C   UNL     1      26.982  43.353  54.035  1.00  0.00     0.036 C 
HETATM   25  C   UNL     1      28.359  42.704  54.067  1.00  0.00     0.010 C 
ENDBRANCH  19  24
ENDBRANCH  16  18
ENDBRANCH  13  16
ENDBRANCH   1  13
BRANCH   7  26
HETATM   26  C   UNL     1      20.956  50.552  47.939  1.00  0.00     0.257 C 
HETATM   27  N   UNL     1      20.559  51.633  48.681  1.00  0.00    -0.355 N 
HETATM   28  H   UNL     1      21.110  51.894  49.499  1.00  0.00     0.162 HD
HETATM   29  O   UNL     1      20.271  50.078  47.034  1.00  0.00    -0.267 OA
BRANCH  27  30
HETATM   30  C   UNL     1      19.268  52.271  48.501  1.00  0.00     0.149 C 
BRANCH  30  31
HETATM   31  C   UNL     1      18.374  52.133  49.734  1.00  0.00     0.186 C 
BRANCH  31  32
HETATM   32  O   UNL     1      17.262  51.291  49.411  1.00  0.00    -0.394 OA
HETATM   33  C   UNL     1      16.858  51.456  48.058  1.00  0.00     0.201 C 
ENDBRANCH  31  32
ENDBRANCH  30  31
ENDBRANCH  27  30
ENDBRANCH   7  26
TORSDOF 8
ENDMDL
MODEL 6
REMARK VINA RESULT:      -8.2      2.041      3.358
REMARK  8 active torsions:
REMARK  status: ('A' for Active; 'I' for Inactive)
REMARK    1  A    between atoms: C_2  and  C_3 
REMARK    2  A    between atoms: C_4  and  N_5 
REMARK    3  A    between atoms: N_5  and  S_6 
REMARK    4  A    between atoms: S_6  and  C_7 
REMARK    5  A    between atoms: C_13  and  C_14 
REMARK       I    between atoms: C_14  and  N_15 
REMARK    6  A    between atoms: N_15  and  C_16 
REMARK    7  A    between atoms: C_16  and  C_17 
REMARK    8  A    between atoms: C_17  and  O_18 
ROOT
HETATM    1  C   UNL     1      27.240  42.054  51.460  1.00  0.00     0.081 A 
HETATM    2  C   UNL     1      26.353  43.116  51.269  1.00  0.00     0.043 A 
HETATM    3  C   UNL     1      25.243  42.932  50.438  1.00  0.00     0.043 A 
HETATM    4  C   UNL     1      24.986  41.684  49.840  1.00  0.00     0.046 A 
HETATM    5  N   UNL     1      23.879  41.531  49.000  1.00  0.00    -0.364 N 
HETATM    6  C   UNL     1      22.994  42.561  48.809  1.00  0.00     0.109 A 
HETATM    7  C   UNL     1      23.120  43.801  49.313  1.00  0.00     0.098 A 
HETATM    8  C   UNL     1      24.312  44.062  50.168  1.00  0.00     0.201 A 
HETATM    9  O   UNL     1      24.540  45.173  50.638  1.00  0.00    -0.286 OA
HETATM   10  C   UNL     1      25.883  40.632  50.048  1.00  0.00     0.032 A 
HETATM   11  C   UNL     1      27.006  40.812  50.861  1.00  0.00     0.027 A 
HETATM   12  H   UNL     1      23.616  40.602  48.685  1.00  0.00     0.165 HD
ENDROOT
BRANCH   1  13
HETATM   13  S   UNL     1      28.632  42.259  52.546  1.00  0.00     0.263 S 
HETATM   14  O   UNL     1      29.363  43.423  52.084  1.00  0.00    -0.200 OA
HETATM   15  O   UNL     1      29.290  40.981  52.692  1.00  0.00    -0.200 OA
BRANCH  13  16
HETATM   16  N   UNL     1      27.909  42.729  54.003  1.00  0.00    -0.280 N 
HETATM   17  H   UNL     1      26.930  42.448  54.017  1.00  0.00     0.179 HD
BRANCH  16  18
HETATM   18  C   UNL     1      28.210  44.030  54.507  1.00  0.00     0.049 A 
HETATM   19  C   UNL     1      29.396  44.285  55.216  1.00  0.00    -0.031 A 
HETATM   20  C   UNL     1      29.608  45.578  55.723  1.00  0.00     0.009 A 
HETATM   21  C   UNL     1      28.658  46.585  55.539  1.00  0.00     0.001 A 
HETATM   22  C   UNL     1      27.487  46.317  54.837  1.00  0.00     0.002 A 
HETATM   23  C   UNL     1      27.265  45.042  54.321  1.00  0.00     0.030 A 
BRANCH  19  24
HETATM   24  C   UNL     1      30.464  43.240  55.435  1.00  0.00     0.036 C 
HETATM   25  C   UNL     1      31.327  43.562  56.648  1.00  0.00     0.010 C 
ENDBRANCH  19  24
ENDBRANCH  16  18
ENDBRANCH  13  16
ENDBRANCH   1  13
BRANCH   7  26
HETATM   26  C   UNL     1      22.082  44.812  48.968  1.00  0.00     0.257 C 
HETATM   27  N   UNL     1      22.512  46.112  48.933  1.00  0.00    -0.355 N 
HETATM   28  H   UNL     1      23.451  46.326  49.271  1.00  0.00     0.162 HD
HETATM   29  O   UNL     1      20.921  44.488  48.726  1.00  0.00    -0.267 OA
BRANCH  27  30
HETATM   30  C   UNL     1      21.617  47.223  48.667  1.00  0.00     0.149 C 
BRANCH  30  31
HETATM   31  C   UNL     1      22.246  48.573  49.013  1.00  0.00     0.186 C 
BRANCH  31  32
HETATM   32  O   UNL     1      23.671  48.433  49.026  1.00  0.00    -0.394 OA
HETATM   33  C   UNL     1      24.310  49.544  48.409  1.00  0.00     0.201 C 
ENDBRANCH  31  32
ENDBRANCH  30  31
ENDBRANCH  27  30
ENDBRANCH   7  26
TORSDOF 8
ENDMDL
MODEL 7
REMARK VINA RESULT:      -8.2      1.610      2.219
REMARK  8 active torsions:
REMARK  status: ('A' for Active; 'I' for Inactive)
REMARK    1  A    between atoms: C_2  and  C_3 
REMARK    2  A    between atoms: C_4  and  N_5 
REMARK    3  A    between atoms: N_5  and  S_6 
REMARK    4  A    between atoms: S_6  and  C_7 
REMARK    5  A    between atoms: C_13  and  C_14 
REMARK       I    between atoms: C_14  and  N_15 
REMARK    6  A    between atoms: N_15  and  C_16 
REMARK    7  A    between atoms: C_16  and  C_17 
REMARK    8  A    between atoms: C_17  and  O_18 
ROOT
HETATM    1  C   UNL     1      27.070  42.461  51.917  1.00  0.00     0.081 A 
HETATM    2  C   UNL     1      26.112  43.462  51.739  1.00  0.00     0.043 A 
HETATM    3  C   UNL     1      25.430  43.539  50.520  1.00  0.00     0.043 A 
HETATM    4  C   UNL     1      25.661  42.596  49.501  1.00  0.00     0.046 A 
HETATM    5  N   UNL     1      24.978  42.705  48.286  1.00  0.00    -0.364 N 
HETATM    6  C   UNL     1      24.029  43.676  48.097  1.00  0.00     0.109 A 
HETATM    7  C   UNL     1      23.713  44.640  48.981  1.00  0.00     0.098 A 
HETATM    8  C   UNL     1      24.446  44.629  50.278  1.00  0.00     0.201 A 
HETATM    9  O   UNL     1      24.262  45.493  51.132  1.00  0.00    -0.286 OA
HETATM   10  C   UNL     1      26.620  41.599  49.701  1.00  0.00     0.032 A 
HETATM   11  C   UNL     1      27.321  41.525  50.908  1.00  0.00     0.027 A 
HETATM   12  H   UNL     1      25.038  41.950  47.610  1.00  0.00     0.165 HD
ENDROOT
BRANCH   1  13
HETATM   13  S   UNL     1      27.915  42.324  53.475  1.00  0.00     0.263 S 
HETATM   14  O   UNL     1      28.721  41.120  53.415  1.00  0.00    -0.200 OA
HETATM   15  O   UNL     1      26.953  42.519  54.535  1.00  0.00    -0.200 OA
BRANCH  13  16
HETATM   16  N   UNL     1      29.016  43.608  53.423  1.00  0.00    -0.280 N 
HETATM   17  H   UNL     1      29.697  43.458  52.680  1.00  0.00     0.179 HD
BRANCH  16  18
HETATM   18  C   UNL     1      29.518  44.106  54.662  1.00  0.00     0.049 A 
HETATM   19  C   UNL     1      28.983  45.260  55.259  1.00  0.00    -0.031 A 
HETATM   20  C   UNL     1      29.554  45.721  56.457  1.00  0.00     0.009 A 
HETATM   21  C   UNL     1      30.638  45.058  57.036  1.00  0.00     0.001 A 
HETATM   22  C   UNL     1      31.160  43.918  56.432  1.00  0.00     0.002 A 
HETATM   23  C   UNL     1      30.599  43.443  55.248  1.00  0.00     0.030 A 
BRANCH  19  24
HETATM   24  C   UNL     1      27.804  46.011  54.686  1.00  0.00     0.036 C 
HETATM   25  C   UNL     1      27.951  47.515  54.868  1.00  0.00     0.010 C 
ENDBRANCH  19  24
ENDBRANCH  16  18
ENDBRANCH  13  16
ENDBRANCH   1  13
BRANCH   7  26
HETATM   26  C   UNL     1      22.682  45.643  48.593  1.00  0.00     0.257 C 
HETATM   27  N   UNL     1      23.126  46.934  48.483  1.00  0.00    -0.355 N 
HETATM   28  H   UNL     1      24.071  47.155  48.798  1.00  0.00     0.162 HD
HETATM   29  O   UNL     1      21.515  45.319  48.383  1.00  0.00    -0.267 OA
BRANCH  27  30
HETATM   30  C   UNL     1      22.239  48.039  48.168  1.00  0.00     0.149 C 
BRANCH  30  31
HETATM   31  C   UNL     1      22.003  48.956  49.368  1.00  0.00     0.186 C 
BRANCH  31  32
HETATM   32  O   UNL     1      23.198  49.702  49.628  1.00  0.00    -0.394 OA
HETATM   33  C   UNL     1      23.170  50.971  48.988  1.00  0.00     0.201 C 
ENDBRANCH  31  32
ENDBRANCH  30  31
ENDBRANCH  27  30
ENDBRANCH   7  26
TORSDOF 8
ENDMDL
MODEL 8
REMARK VINA RESULT:      -8.2      2.425      2.927
REMARK  8 active torsions:
REMARK  status: ('A' for Active; 'I' for Inactive)
REMARK    1  A    between atoms: C_2  and  C_3 
REMARK    2  A    between atoms: C_4  and  N_5 
REMARK    3  A    between atoms: N_5  and  S_6 
REMARK    4  A    between atoms: S_6  and  C_7 
REMARK    5  A    between atoms: C_13  and  C_14 
REMARK       I    between atoms: C_14  and  N_15 
REMARK    6  A    between atoms: N_15  and  C_16 
REMARK    7  A    between atoms: C_16  and  C_17 
REMARK    8  A    between atoms: C_17  and  O_18 
ROOT
HETATM    1  C   UNL     1      26.292  44.620  52.563  1.00  0.00     0.081 A 
HETATM    2  C   UNL     1      25.563  44.176  51.457  1.00  0.00     0.043 A 
HETATM    3  C   UNL     1      24.812  45.102  50.724  1.00  0.00     0.043 A 
HETATM    4  C   UNL     1      24.824  46.469  51.056  1.00  0.00     0.046 A 
HETATM    5  N   UNL     1      24.052  47.371  50.317  1.00  0.00    -0.364 N 
HETATM    6  C   UNL     1      23.337  46.953  49.224  1.00  0.00     0.109 A 
HETATM    7  C   UNL     1      23.233  45.682  48.801  1.00  0.00     0.098 A 
HETATM    8  C   UNL     1      23.978  44.650  49.577  1.00  0.00     0.201 A 
HETATM    9  O   UNL     1      23.910  43.456  49.296  1.00  0.00    -0.286 OA
HETATM   10  C   UNL     1      25.565  46.894  52.163  1.00  0.00     0.032 A 
HETATM   11  C   UNL     1      26.303  45.974  52.914  1.00  0.00     0.027 A 
HETATM   12  H   UNL     1      24.171  48.368  50.466  1.00  0.00     0.165 HD
ENDROOT
BRANCH   1  13
HETATM   13  S   UNL     1      27.284  43.465  53.479  1.00  0.00     0.263 S 
HETATM   14  O   UNL     1      27.416  42.275  52.661  1.00  0.00    -0.200 OA
HETATM   15  O   UNL     1      26.765  43.384  54.825  1.00  0.00    -0.200 OA
BRANCH  13  16
HETATM   16  N   UNL     1      28.813  44.190  53.470  1.00  0.00    -0.280 N 
HETATM   17  H   UNL     1      29.332  43.908  52.640  1.00  0.00     0.179 HD
BRANCH  16  18
HETATM   18  C   UNL     1      29.540  44.227  54.697  1.00  0.00     0.049 A 
HETATM   19  C   UNL     1      29.581  45.387  55.490  1.00  0.00    -0.031 A 
HETATM   20  C   UNL     1      30.353  45.368  56.665  1.00  0.00     0.009 A 
HETATM   21  C   UNL     1      31.075  44.230  57.030  1.00  0.00     0.001 A 
HETATM   22  C   UNL     1      31.027  43.090  56.234  1.00  0.00     0.002 A 
HETATM   23  C   UNL     1      30.260  43.089  55.070  1.00  0.00     0.030 A 
BRANCH  19  24
HETATM   24  C   UNL     1      28.812  46.641  55.153  1.00  0.00     0.036 C 
HETATM   25  C   UNL     1      27.694  46.903  56.153  1.00  0.00     0.010 C 
ENDBRANCH  19  24
ENDBRANCH  16  18
ENDBRANCH  13  16
ENDBRANCH   1  13
BRANCH   7  26
HETATM   26  C   UNL     1      22.377  45.401  47.614  1.00  0.00     0.257 C 
HETATM   27  N   UNL     1      21.103  45.900  47.673  1.00  0.00    -0.355 N 
HETATM   28  H   UNL     1      20.774  46.299  48.552  1.00  0.00     0.162 HD
HETATM   29  O   UNL     1      22.800  44.767  46.649  1.00  0.00    -0.267 OA
BRANCH  27  30
HETATM   30  C   UNL     1      20.125  45.669  46.625  1.00  0.00     0.149 C 
BRANCH  30  31
HETATM   31  C   UNL     1      19.234  44.462  46.918  1.00  0.00     0.186 C 
BRANCH  31  32
HETATM   32  O   UNL     1      18.507  44.701  48.128  1.00  0.00    -0.394 OA
HETATM   33  C   UNL     1      17.553  45.742  47.968  1.00  0.00     0.201 C 
ENDBRANCH  31  32
ENDBRANCH  30  31
ENDBRANCH  27  30
ENDBRANCH   7  26
TORSDOF 8
ENDMDL
MODEL 9
REMARK VINA RESULT:      -8.1      2.519      3.336
REMARK  8 active torsions:
REMARK  status: ('A' for Active; 'I' for Inactive)
REMARK    1  A    between atoms: C_2  and  C_3 
REMARK    2  A    between atoms: C_4  and  N_5 
REMARK    3  A    between atoms: N_5  and  S_6 
REMARK    4  A    between atoms: S_6  and  C_7 
REMARK    5  A    between atoms: C_13  and  C_14 
REMARK       I    between atoms: C_14  and  N_15 
REMARK    6  A    between atoms: N_15  and  C_16 
REMARK    7  A    between atoms: C_16  and  C_17 
REMARK    8  A    between atoms: C_17  and  O_18 
ROOT
HETATM    1  C   UNL     1      25.158  43.805  49.412  1.00  0.00     0.081 A 
HETATM    2  C   UNL     1      24.812  45.156  49.350  1.00  0.00     0.043 A 
HETATM    3  C   UNL     1      23.489  45.506  49.060  1.00  0.00     0.043 A 
HETATM    4  C   UNL     1      22.502  44.519  48.883  1.00  0.00     0.046 A 
HETATM    5  N   UNL     1      21.190  44.893  48.578  1.00  0.00    -0.364 N 
HETATM    6  C   UNL     1      20.833  46.216  48.522  1.00  0.00     0.109 A 
HETATM    7  C   UNL     1      21.671  47.257  48.665  1.00  0.00     0.098 A 
HETATM    8  C   UNL     1      23.103  46.937  48.929  1.00  0.00     0.201 A 
HETATM    9  O   UNL     1      23.954  47.817  49.031  1.00  0.00    -0.286 OA
HETATM   10  C   UNL     1      22.867  43.171  48.955  1.00  0.00     0.032 A 
HETATM   11  C   UNL     1      24.191  42.811  49.224  1.00  0.00     0.027 A 
HETATM   12  H   UNL     1      20.455  44.194  48.591  1.00  0.00     0.165 HD
ENDROOT
BRANCH   1  13
HETATM   13  S   UNL     1      26.825  43.344  49.821  1.00  0.00     0.263 S 
HETATM   14  O   UNL     1      27.549  44.569  50.097  1.00  0.00    -0.200 OA
HETATM   15  O   UNL     1      27.299  42.413  48.823  1.00  0.00    -0.200 OA
BRANCH  13  16
HETATM   16  N   UNL     1      26.649  42.576  51.320  1.00  0.00    -0.280 N 
HETATM   17  H   UNL     1      25.667  42.552  51.589  1.00  0.00     0.179 HD
BRANCH  16  18
HETATM   18  C   UNL     1      27.587  42.895  52.346  1.00  0.00     0.049 A 
HETATM   19  C   UNL     1      27.290  43.837  53.345  1.00  0.00    -0.031 A 
HETATM   20  C   UNL     1      28.276  44.136  54.299  1.00  0.00     0.009 A 
HETATM   21  C   UNL     1      29.530  43.523  54.251  1.00  0.00     0.001 A 
HETATM   22  C   UNL     1      29.812  42.594  53.254  1.00  0.00     0.002 A 
HETATM   23  C   UNL     1      28.841  42.280  52.305  1.00  0.00     0.030 A 
BRANCH  19  24
HETATM   24  C   UNL     1      25.948  44.522  53.456  1.00  0.00     0.036 C 
HETATM   25  C   UNL     1      26.024  45.983  53.032  1.00  0.00     0.010 C 
ENDBRANCH  19  24
ENDBRANCH  16  18
ENDBRANCH  13  16
ENDBRANCH   1  13
BRANCH   7  26
HETATM   26  C   UNL     1      21.117  48.634  48.532  1.00  0.00     0.257 C 
HETATM   27  N   UNL     1      21.360  49.473  49.586  1.00  0.00    -0.355 N 
HETATM   28  H   UNL     1      21.769  49.085  50.437  1.00  0.00     0.162 HD
HETATM   29  O   UNL     1      20.491  48.983  47.533  1.00  0.00    -0.267 OA
BRANCH  27  30
HETATM   30  C   UNL     1      20.844  50.828  49.640  1.00  0.00     0.149 C 
BRANCH  30  31
HETATM   31  C   UNL     1      19.475  50.904  50.318  1.00  0.00     0.186 C 
BRANCH  31  32
HETATM   32  O   UNL     1      18.751  52.017  49.783  1.00  0.00    -0.394 OA
HETATM   33  C   UNL     1      19.194  52.349  48.474  1.00  0.00     0.201 C 
ENDBRANCH  31  32
ENDBRANCH  30  31
ENDBRANCH  27  30
ENDBRANCH   7  26
TORSDOF 8
ENDMDL
MODEL 10
REMARK VINA RESULT:      -8.0      3.359      6.755
REMARK  8 active torsions:
REMARK  status: ('A' for Active; 'I' for Inactive)
REMARK    1  A    between atoms: C_2  and  C_3 
REMARK    2  A    between atoms: C_4  and  N_5 
REMARK    3  A    between atoms: N_5  and  S_6 
REMARK    4  A    between atoms: S_6  and  C_7 
REMARK    5  A    between atoms: C_13  and  C_14 
REMARK       I    between atoms: C_14  and  N_15 
REMARK    6  A    between atoms: N_15  and  C_16 
REMARK    7  A    between atoms: C_16  and  C_17 
REMARK    8  A    between atoms: C_17  and  O_18 
ROOT
HETATM    1  C   UNL     1      25.508  44.342  52.545  1.00  0.00     0.081 A 
HETATM    2  C   UNL     1      26.007  43.159  51.996  1.00  0.00     0.043 A 
HETATM    3  C   UNL     1      25.526  42.731  50.754  1.00  0.00     0.043 A 
HETATM    4  C   UNL     1      24.591  43.500  50.036  1.00  0.00     0.046 A 
HETATM    5  N   UNL     1      24.113  43.043  48.804  1.00  0.00    -0.364 N 
HETATM    6  C   UNL     1      24.599  41.887  48.248  1.00  0.00     0.109 A 
HETATM    7  C   UNL     1      25.486  41.057  48.824  1.00  0.00     0.098 A 
HETATM    8  C   UNL     1      25.995  41.445  50.170  1.00  0.00     0.201 A 
HETATM    9  O   UNL     1      26.773  40.731  50.798  1.00  0.00    -0.286 OA
HETATM   10  C   UNL     1      24.108  44.684  50.600  1.00  0.00     0.032 A 
HETATM   11  C   UNL     1      24.568  45.110  51.850  1.00  0.00     0.027 A 
HETATM   12  H   UNL     1      23.553  43.660  48.226  1.00  0.00     0.165 HD
ENDROOT
BRANCH   1  13
HETATM   13  S   UNL     1      26.140  44.921  54.102  1.00  0.00     0.263 S 
HETATM   14  O   UNL     1      26.279  43.762  54.961  1.00  0.00    -0.200 OA
HETATM   15  O   UNL     1      25.356  46.062  54.517  1.00  0.00    -0.200 OA
BRANCH  13  16
HETATM   16  N   UNL     1      27.721  45.390  53.718  1.00  0.00    -0.280 N 
HETATM   17  H   UNL     1      27.809  45.543  52.715  1.00  0.00     0.179 HD
BRANCH  16  18
HETATM   18  C   UNL     1      28.794  44.701  54.357  1.00  0.00     0.049 A 
HETATM   19  C   UNL     1      29.328  45.148  55.578  1.00  0.00    -0.031 A 
HETATM   20  C   UNL     1      30.414  44.448  56.130  1.00  0.00     0.009 A 
HETATM   21  C   UNL     1      30.961  43.342  55.477  1.00  0.00     0.001 A 
HETATM   22  C   UNL     1      30.424  42.912  54.268  1.00  0.00     0.002 A 
HETATM   23  C   UNL     1      29.341  43.590  53.710  1.00  0.00     0.030 A 
BRANCH  19  24
HETATM   24  C   UNL     1      28.770  46.329  56.336  1.00  0.00     0.036 C 
HETATM   25  C   UNL     1      28.812  46.103  57.841  1.00  0.00     0.010 C 
ENDBRANCH  19  24
ENDBRANCH  16  18
ENDBRANCH  13  16
ENDBRANCH   1  13
BRANCH   7  26
HETATM   26  C   UNL     1      25.874  39.819  48.091  1.00  0.00     0.257 C 
HETATM   27  N   UNL     1      26.254  38.763  48.875  1.00  0.00    -0.355 N 
HETATM   28  H   UNL     1      26.384  38.918  49.876  1.00  0.00     0.162 HD
HETATM   29  O   UNL     1      25.844  39.760  46.863  1.00  0.00    -0.267 OA
BRANCH  27  30
HETATM   30  C   UNL     1      26.714  37.504  48.319  1.00  0.00     0.149 C 
BRANCH  30  31
HETATM   31  C   UNL     1      28.218  37.502  48.047  1.00  0.00     0.186 C 
BRANCH  31  32
HETATM   32  O   UNL     1      28.849  38.454  48.911  1.00  0.00    -0.394 OA
HETATM   33  C   UNL     1      29.805  37.833  49.762  1.00  0.00     0.201 C 
ENDBRANCH  31  32
ENDBRANCH  30  31
ENDBRANCH  27  30
ENDBRANCH   7  26
TORSDOF 8
ENDMDL
