MODEL 1
REMARK VINA RESULT:      -9.7      0.000      0.000
REMARK  7 active torsions:
REMARK  status: ('A' for Active; 'I' for Inactive)
REMARK    1  A    between atoms: C_4  and  N_5 
REMARK    2  A    between atoms: N_8  and  C_10 
REMARK    3  A    between atoms: C_10  and  C_11 
REMARK    4  A    between atoms: C_11  and  C_12 
REMARK    5  A    between atoms: C_12  and  C_13 
REMARK    6  A    between atoms: C_13  and  N_14 
REMARK       I    between atoms: N_14  and  C_15 
REMARK    7  A    between atoms: C_15  and  C_16 
ROOT
HETATM    1  C   UNL     1      28.571  41.055  52.022  1.00  0.00     0.123 C 
ENDROOT
BRANCH   1   2
HETATM    2  C   UNL     1      27.054  41.061  51.828  1.00  0.00     0.021 C 
BRANCH   2   3
HETATM    3  C   UNL     1      26.636  42.048  50.735  1.00  0.00     0.029 C 
BRANCH   3   4
HETATM    4  C   UNL     1      25.614  43.053  51.265  1.00  0.00     0.235 C 
BRANCH   4   5
HETATM    5  N   UNL     1      26.146  44.462  51.154  1.00  0.00    -0.068 N 
HETATM    6  C   UNL     1      26.386  44.857  49.688  1.00  0.00     0.254 C 
HETATM    7  C   UNL     1      27.041  46.253  49.604  1.00  0.00     0.150 C 
HETATM    8  N   UNL     1      26.234  47.252  50.331  1.00  0.00    -0.378 N 
HETATM    9  C   UNL     1      25.926  46.909  51.728  1.00  0.00     0.150 C 
HETATM   10  C   UNL     1      25.262  45.520  51.831  1.00  0.00     0.254 C 
HETATM   11  H   UNL     1      27.064  44.496  51.615  1.00  0.00     0.280 HD
BRANCH   8  12
HETATM   12  C   UNL     1      25.402  48.093  49.592  1.00  0.00     0.030 A 
HETATM   13  C   UNL     1      24.000  47.999  49.609  1.00  0.00     0.036 A 
HETATM   14  C   UNL     1      23.181  48.874  48.870  1.00  0.00    -0.060 A 
HETATM   15  C   UNL     1      21.684  48.774  48.943  1.00  0.00     0.048 C 
HETATM   16  C   UNL     1      23.770  49.884  48.110  1.00  0.00     0.007 A 
HETATM   17  C   UNL     1      25.152  50.012  48.084  1.00  0.00     0.003 A 
HETATM   18  C   UNL     1      25.952  49.130  48.818  1.00  0.00     0.029 A 
ENDBRANCH   8  12
ENDBRANCH   4   5
ENDBRANCH   3   4
ENDBRANCH   2   3
ENDBRANCH   1   2
BRANCH   1  19
HETATM   19  N   UNL     1      28.970  41.731  53.237  1.00  0.00    -0.357 N 
HETATM   20  C   UNL     1      29.210  43.093  53.252  1.00  0.00     0.254 C 
HETATM   21  O   UNL     1      29.006  43.801  52.269  1.00  0.00    -0.268 OA
HETATM   22  H   UNL     1      29.032  41.188  54.088  1.00  0.00     0.162 HD
BRANCH  20  23
HETATM   23  C   UNL     1      29.698  43.685  54.526  1.00  0.00     0.064 A 
HETATM   24  C   UNL     1      29.099  44.825  55.036  1.00  0.00     0.077 A 
HETATM   25  C   UNL     1      29.521  45.414  56.232  1.00  0.00     0.065 A 
HETATM   26  N   UNL     1      28.041  45.592  54.543  1.00  0.00    -0.330 N 
HETATM   27  N   UNL     1      28.723  46.533  56.471  1.00  0.00    -0.331 N 
HETATM   28  C   UNL     1      30.561  44.912  56.974  1.00  0.00     0.074 A 
HETATM   29  C   UNL     1      27.807  46.654  55.419  1.00  0.00     0.176 A 
HETATM   30  H   UNL     1      28.794  47.173  57.249  1.00  0.00     0.168 HD
HETATM   31  S   UNL     1      26.669  47.832  55.246  1.00  0.00    -0.041 SA
HETATM   32  C   UNL     1      31.184  43.777  56.462  1.00  0.00     0.119 A 
HETATM   33  F   UNL     1      32.216  43.244  57.130  1.00  0.00    -0.206 F 
HETATM   34  C   UNL     1      30.774  43.165  55.259  1.00  0.00     0.061 A 
HETATM   35  H   UNL     1      27.570  45.422  53.662  1.00  0.00     0.168 HD
ENDBRANCH  20  23
ENDBRANCH   1  19
TORSDOF 7
ENDMDL
MODEL 2
REMARK VINA RESULT:      -8.6      5.195     10.610
REMARK  7 active torsions:
REMARK  status: ('A' for Active; 'I' for Inactive)
REMARK    1  A    between atoms: C_4  and  N_5 
REMARK    2  A    between atoms: N_8  and  C_10 
REMARK    3  A    between atoms: C_10  and  C_11 
REMARK    4  A    between atoms: C_11  and  C_12 
REMARK    5  A    between atoms: C_12  and  C_13 
REMARK    6  A    between atoms: C_13  and  N_14 
REMARK       I    between atoms: N_14  and  C_15 
REMARK    7  A    between atoms: C_15  and  C_16 
ROOT
HETATM    1  C   UNL     1      23.751  47.800  49.484  1.00  0.00     0.123 C 
ENDROOT
BRANCH   1   2
HETATM    2  C   UNL     1      23.732  46.278  49.340  1.00  0.00     0.021 C 
BRANCH   2   3
HETATM    3  C   UNL     1      25.080  45.665  49.727  1.00  0.00     0.029 C 
BRANCH   3   4
HETATM    4  C   UNL     1      25.837  46.573  50.696  1.00  0.00     0.235 C 
BRANCH   4   5
HETATM    5  N   UNL     1      25.855  45.974  52.083  1.00  0.00    -0.068 N 
HETATM    6  C   UNL     1      26.630  44.646  52.110  1.00  0.00     0.254 C 
HETATM    7  C   UNL     1      26.533  43.993  53.506  1.00  0.00     0.150 C 
HETATM    8  N   UNL     1      26.987  44.930  54.553  1.00  0.00    -0.378 N 
HETATM    9  C   UNL     1      26.319  46.241  54.548  1.00  0.00     0.150 C 
HETATM   10  C   UNL     1      26.412  46.914  53.163  1.00  0.00     0.254 C 
HETATM   11  H   UNL     1      24.888  45.749  52.347  1.00  0.00     0.280 HD
BRANCH   8  12
HETATM   12  C   UNL     1      28.275  44.776  55.064  1.00  0.00     0.030 A 
HETATM   13  C   UNL     1      28.761  45.509  56.160  1.00  0.00     0.036 A 
HETATM   14  C   UNL     1      30.060  45.320  56.671  1.00  0.00    -0.060 A 
HETATM   15  C   UNL     1      30.535  46.090  57.870  1.00  0.00     0.048 C 
HETATM   16  C   UNL     1      30.889  44.360  56.092  1.00  0.00     0.007 A 
HETATM   17  C   UNL     1      30.432  43.609  55.017  1.00  0.00     0.003 A 
HETATM   18  C   UNL     1      29.143  43.815  54.517  1.00  0.00     0.029 A 
ENDBRANCH   8  12
ENDBRANCH   4   5
ENDBRANCH   3   4
ENDBRANCH   2   3
ENDBRANCH   1   2
BRANCH   1  19
HETATM   19  N   UNL     1      22.434  48.381  49.331  1.00  0.00    -0.357 N 
HETATM   20  C   UNL     1      22.162  49.276  48.312  1.00  0.00     0.254 C 
HETATM   21  O   UNL     1      22.986  49.543  47.443  1.00  0.00    -0.268 OA
HETATM   22  H   UNL     1      21.705  48.087  49.967  1.00  0.00     0.162 HD
BRANCH  20  23
HETATM   23  C   UNL     1      20.806  49.886  48.285  1.00  0.00     0.064 A 
HETATM   24  C   UNL     1      19.683  49.080  48.198  1.00  0.00     0.077 A 
HETATM   25  C   UNL     1      18.389  49.608  48.173  1.00  0.00     0.065 A 
HETATM   26  N   UNL     1      19.568  47.690  48.118  1.00  0.00    -0.330 N 
HETATM   27  N   UNL     1      17.487  48.548  48.083  1.00  0.00    -0.331 N 
HETATM   28  C   UNL     1      18.143  50.958  48.224  1.00  0.00     0.074 A 
HETATM   29  C   UNL     1      18.215  47.353  48.039  1.00  0.00     0.176 A 
HETATM   30  H   UNL     1      16.481  48.611  48.032  1.00  0.00     0.168 HD
HETATM   31  S   UNL     1      17.592  45.834  47.912  1.00  0.00    -0.041 SA
HETATM   32  C   UNL     1      19.265  51.781  48.294  1.00  0.00     0.119 A 
HETATM   33  F   UNL     1      19.096  53.109  48.332  1.00  0.00    -0.206 F 
HETATM   34  C   UNL     1      20.579  51.270  48.321  1.00  0.00     0.061 A 
HETATM   35  H   UNL     1      20.353  47.050  48.069  1.00  0.00     0.168 HD
ENDBRANCH  20  23
ENDBRANCH   1  19
TORSDOF 7
ENDMDL
MODEL 3
REMARK VINA RESULT:      -8.6      1.702      2.700
REMARK  7 active torsions:
REMARK  status: ('A' for Active; 'I' for Inactive)
REMARK    1  A    between atoms: C_4  and  N_5 
REMARK    2  A    between atoms: N_8  and  C_10 
REMARK    3  A    between atoms: C_10  and  C_11 
REMARK    4  A    between atoms: C_11  and  C_12 
REMARK    5  A    between atoms: C_12  and  C_13 
REMARK    6  A    between atoms: C_13  and  N_14 
REMARK       I    between atoms: N_14  and  C_15 
REMARK    7  A    between atoms: C_15  and  C_16 
ROOT
HETATM    1  C   UNL     1      27.559  42.889  51.009  1.00  0.00     0.123 C 
ENDROOT
BRANCH   1   2
HETATM    2  C   UNL     1      26.864  43.978  50.190  1.00  0.00     0.021 C 
BRANCH   2   3
HETATM    3  C   UNL     1      26.229  45.036  51.095  1.00  0.00     0.029 C 
BRANCH   3   4
HETATM    4  C   UNL     1      24.722  45.128  50.859  1.00  0.00     0.235 C 
BRANCH   4   5
HETATM    5  N   UNL     1      24.415  46.102  49.747  1.00  0.00    -0.068 N 
HETATM    6  C   UNL     1      22.973  45.938  49.238  1.00  0.00     0.254 C 
HETATM    7  C   UNL     1      22.720  46.858  48.024  1.00  0.00     0.150 C 
HETATM    8  N   UNL     1      23.043  48.259  48.356  1.00  0.00    -0.378 N 
HETATM    9  C   UNL     1      24.394  48.477  48.896  1.00  0.00     0.150 C 
HETATM   10  C   UNL     1      24.663  47.572  50.116  1.00  0.00     0.254 C 
HETATM   11  H   UNL     1      25.027  45.884  48.951  1.00  0.00     0.280 HD
BRANCH   8  12
HETATM   12  C   UNL     1      21.992  49.124  48.662  1.00  0.00     0.030 A 
HETATM   13  C   UNL     1      20.795  48.698  49.263  1.00  0.00     0.036 A 
HETATM   14  C   UNL     1      19.757  49.594  49.581  1.00  0.00    -0.060 A 
HETATM   15  C   UNL     1      18.506  49.114  50.261  1.00  0.00     0.048 C 
HETATM   16  C   UNL     1      19.921  50.954  49.316  1.00  0.00     0.007 A 
HETATM   17  C   UNL     1      21.099  51.407  48.737  1.00  0.00     0.003 A 
HETATM   18  C   UNL     1      22.117  50.503  48.420  1.00  0.00     0.029 A 
ENDBRANCH   8  12
ENDBRANCH   4   5
ENDBRANCH   3   4
ENDBRANCH   2   3
ENDBRANCH   1   2
BRANCH   1  19
HETATM   19  N   UNL     1      28.339  43.438  52.098  1.00  0.00    -0.357 N 
HETATM   20  C   UNL     1      28.334  42.848  53.348  1.00  0.00     0.254 C 
HETATM   21  O   UNL     1      27.752  41.789  53.567  1.00  0.00    -0.268 OA
HETATM   22  H   UNL     1      28.919  44.245  51.911  1.00  0.00     0.162 HD
BRANCH  20  23
HETATM   23  C   UNL     1      29.098  43.530  54.427  1.00  0.00     0.064 A 
HETATM   24  C   UNL     1      28.676  44.758  54.906  1.00  0.00     0.077 A 
HETATM   25  C   UNL     1      29.359  45.435  55.922  1.00  0.00     0.065 A 
HETATM   26  N   UNL     1      27.585  45.550  54.539  1.00  0.00    -0.330 N 
HETATM   27  N   UNL     1      28.689  46.630  56.177  1.00  0.00    -0.331 N 
HETATM   28  C   UNL     1      30.497  44.933  56.504  1.00  0.00     0.074 A 
HETATM   29  C   UNL     1      27.589  46.712  55.314  1.00  0.00     0.176 A 
HETATM   30  H   UNL     1      28.948  47.340  56.847  1.00  0.00     0.168 HD
HETATM   31  S   UNL     1      26.507  47.950  55.226  1.00  0.00    -0.041 SA
HETATM   32  C   UNL     1      30.943  43.706  56.017  1.00  0.00     0.119 A 
HETATM   33  F   UNL     1      32.056  43.168  56.532  1.00  0.00    -0.206 F 
HETATM   34  C   UNL     1      30.268  43.007  54.996  1.00  0.00     0.061 A 
HETATM   35  H   UNL     1      26.939  45.326  53.791  1.00  0.00     0.168 HD
ENDBRANCH  20  23
ENDBRANCH   1  19
TORSDOF 7
ENDMDL
MODEL 4
REMARK VINA RESULT:      -8.6      4.193      9.149
REMARK  7 active torsions:
REMARK  status: ('A' for Active; 'I' for Inactive)
REMARK    1  A    between atoms: C_4  and  N_5 
REMARK    2  A    between atoms: N_8  and  C_10 
REMARK    3  A    between atoms: C_10  and  C_11 
REMARK    4  A    between atoms: C_11  and  C_12 
REMARK    5  A    between atoms: C_12  and  C_13 
REMARK    6  A    between atoms: C_13  and  N_14 
REMARK       I    between atoms: N_14  and  C_15 
REMARK    7  A    between atoms: C_15  and  C_16 
ROOT
HETATM    1  C   UNL     1      23.133  44.679  49.557  1.00  0.00     0.123 C 
ENDROOT
BRANCH   1   2
HETATM    2  C   UNL     1      24.317  43.942  48.928  1.00  0.00     0.021 C 
BRANCH   2   3
HETATM    3  C   UNL     1      25.648  44.583  49.330  1.00  0.00     0.029 C 
BRANCH   3   4
HETATM    4  C   UNL     1      26.688  43.518  49.674  1.00  0.00     0.235 C 
BRANCH   4   5
HETATM    5  N   UNL     1      26.651  43.193  51.149  1.00  0.00    -0.068 N 
HETATM    6  C   UNL     1      27.986  42.599  51.626  1.00  0.00     0.254 C 
HETATM    7  C   UNL     1      27.886  42.164  53.105  1.00  0.00     0.150 C 
HETATM    8  N   UNL     1      27.436  43.288  53.949  1.00  0.00    -0.378 N 
HETATM    9  C   UNL     1      26.188  43.934  53.516  1.00  0.00     0.150 C 
HETATM   10  C   UNL     1      26.272  44.384  52.042  1.00  0.00     0.254 C 
HETATM   11  H   UNL     1      25.942  42.465  51.299  1.00  0.00     0.280 HD
BRANCH   8  12
HETATM   12  C   UNL     1      28.394  43.984  54.686  1.00  0.00     0.030 A 
HETATM   13  C   UNL     1      29.541  43.377  55.226  1.00  0.00     0.036 A 
HETATM   14  C   UNL     1      30.505  44.105  55.949  1.00  0.00    -0.060 A 
HETATM   15  C   UNL     1      31.741  43.435  56.477  1.00  0.00     0.048 C 
HETATM   16  C   UNL     1      30.336  45.479  56.120  1.00  0.00     0.007 A 
HETATM   17  C   UNL     1      29.221  46.110  55.586  1.00  0.00     0.003 A 
HETATM   18  C   UNL     1      28.269  45.370  54.877  1.00  0.00     0.029 A 
ENDBRANCH   8  12
ENDBRANCH   4   5
ENDBRANCH   3   4
ENDBRANCH   2   3
ENDBRANCH   1   2
BRANCH   1  19
HETATM   19  N   UNL     1      23.272  46.116  49.467  1.00  0.00    -0.357 N 
HETATM   20  C   UNL     1      22.365  46.879  48.755  1.00  0.00     0.254 C 
HETATM   21  O   UNL     1      21.356  46.390  48.253  1.00  0.00    -0.268 OA
HETATM   22  H   UNL     1      24.032  46.555  49.970  1.00  0.00     0.162 HD
BRANCH  20  23
HETATM   23  C   UNL     1      22.636  48.337  48.647  1.00  0.00     0.064 A 
HETATM   24  C   UNL     1      21.636  49.252  48.927  1.00  0.00     0.077 A 
HETATM   25  C   UNL     1      21.846  50.632  48.843  1.00  0.00     0.065 A 
HETATM   26  N   UNL     1      20.309  49.055  49.320  1.00  0.00    -0.330 N 
HETATM   27  N   UNL     1      20.657  51.275  49.186  1.00  0.00    -0.331 N 
HETATM   28  C   UNL     1      23.051  51.172  48.468  1.00  0.00     0.074 A 
HETATM   29  C   UNL     1      19.695  50.300  49.474  1.00  0.00     0.176 A 
HETATM   30  H   UNL     1      20.490  52.271  49.204  1.00  0.00     0.168 HD
HETATM   31  S   UNL     1      18.130  50.570  49.910  1.00  0.00    -0.041 SA
HETATM   32  C   UNL     1      24.060  50.261  48.165  1.00  0.00     0.119 A 
HETATM   33  F   UNL     1      25.257  50.722  47.777  1.00  0.00    -0.206 F 
HETATM   34  C   UNL     1      23.871  48.866  48.245  1.00  0.00     0.061 A 
HETATM   35  H   UNL     1      19.867  48.148  49.417  1.00  0.00     0.168 HD
ENDBRANCH  20  23
ENDBRANCH   1  19
TORSDOF 7
ENDMDL
MODEL 5
REMARK VINA RESULT:      -8.5      4.672      9.842
REMARK  7 active torsions:
REMARK  status: ('A' for Active; 'I' for Inactive)
REMARK    1  A    between atoms: C_4  and  N_5 
REMARK    2  A    between atoms: N_8  and  C_10 
REMARK    3  A    between atoms: C_10  and  C_11 
REMARK    4  A    between atoms: C_11  and  C_12 
REMARK    5  A    between atoms: C_12  and  C_13 
REMARK    6  A    between atoms: C_13  and  N_14 
REMARK       I    between atoms: N_14  and  C_15 
REMARK    7  A    between atoms: C_15  and  C_16 
ROOT
HETATM    1  C   UNL     1      24.964  49.173  48.673  1.00  0.00     0.123 C 
ENDROOT
BRANCH   1   2
HETATM    2  C   UNL     1      25.807  48.278  49.584  1.00  0.00     0.021 C 
BRANCH   2   3
HETATM    3  C   UNL     1      25.047  47.008  49.974  1.00  0.00     0.029 C 
BRANCH   3   4
HETATM    4  C   UNL     1      25.839  45.756  49.600  1.00  0.00     0.235 C 
BRANCH   4   5
HETATM    5  N   UNL     1      26.017  44.859  50.801  1.00  0.00    -0.068 N 
HETATM    6  C   UNL     1      27.464  44.348  50.910  1.00  0.00     0.254 C 
HETATM    7  C   UNL     1      27.595  43.340  52.072  1.00  0.00     0.150 C 
HETATM    8  N   UNL     1      27.112  43.933  53.334  1.00  0.00    -0.378 N 
HETATM    9  C   UNL     1      25.750  44.486  53.282  1.00  0.00     0.150 C 
HETATM   10  C   UNL     1      25.602  45.504  52.132  1.00  0.00     0.254 C 
HETATM   11  H   UNL     1      25.428  44.028  50.671  1.00  0.00     0.280 HD
BRANCH   8  12
HETATM   12  C   UNL     1      28.055  44.415  54.240  1.00  0.00     0.030 A 
HETATM   13  C   UNL     1      29.150  43.656  54.689  1.00  0.00     0.036 A 
HETATM   14  C   UNL     1      30.101  44.173  55.589  1.00  0.00    -0.060 A 
HETATM   15  C   UNL     1      31.283  43.350  56.018  1.00  0.00     0.048 C 
HETATM   16  C   UNL     1      29.976  45.487  56.037  1.00  0.00     0.007 A 
HETATM   17  C   UNL     1      28.914  46.268  55.600  1.00  0.00     0.003 A 
HETATM   18  C   UNL     1      27.973  45.736  54.712  1.00  0.00     0.029 A 
ENDBRANCH   8  12
ENDBRANCH   4   5
ENDBRANCH   3   4
ENDBRANCH   2   3
ENDBRANCH   1   2
BRANCH   1  19
HETATM   19  N   UNL     1      23.626  48.656  48.484  1.00  0.00    -0.357 N 
HETATM   20  C   UNL     1      22.549  49.195  49.163  1.00  0.00     0.254 C 
HETATM   21  O   UNL     1      22.661  50.188  49.877  1.00  0.00    -0.268 OA
HETATM   22  H   UNL     1      23.492  47.912  47.812  1.00  0.00     0.162 HD
BRANCH  20  23
HETATM   23  C   UNL     1      21.226  48.544  48.970  1.00  0.00     0.064 A 
HETATM   24  C   UNL     1      20.063  49.286  49.085  1.00  0.00     0.077 A 
HETATM   25  C   UNL     1      18.798  48.719  48.908  1.00  0.00     0.065 A 
HETATM   26  N   UNL     1      19.876  50.640  49.377  1.00  0.00    -0.330 N 
HETATM   27  N   UNL     1      17.842  49.719  49.086  1.00  0.00    -0.331 N 
HETATM   28  C   UNL     1      18.622  47.388  48.619  1.00  0.00     0.074 A 
HETATM   29  C   UNL     1      18.507  50.914  49.388  1.00  0.00     0.176 A 
HETATM   30  H   UNL     1      16.839  49.615  49.036  1.00  0.00     0.168 HD
HETATM   31  S   UNL     1      17.803  52.370  49.700  1.00  0.00    -0.041 SA
HETATM   32  C   UNL     1      19.783  46.626  48.519  1.00  0.00     0.119 A 
HETATM   33  F   UNL     1      19.681  45.317  48.253  1.00  0.00    -0.206 F 
HETATM   34  C   UNL     1      21.069  47.178  48.692  1.00  0.00     0.061 A 
HETATM   35  H   UNL     1      20.623  51.289  49.598  1.00  0.00     0.168 HD
ENDBRANCH  20  23
ENDBRANCH   1  19
TORSDOF 7
ENDMDL
MODEL 6
REMARK VINA RESULT:      -8.4      4.403      9.572
REMARK  7 active torsions:
REMARK  status: ('A' for Active; 'I' for Inactive)
REMARK    1  A    between atoms: C_4  and  N_5 
REMARK    2  A    between atoms: N_8  and  C_10 
REMARK    3  A    between atoms: C_10  and  C_11 
REMARK    4  A    between atoms: C_11  and  C_12 
REMARK    5  A    between atoms: C_12  and  C_13 
REMARK    6  A    between atoms: C_13  and  N_14 
REMARK       I    between atoms: N_14  and  C_15 
REMARK    7  A    between atoms: C_15  and  C_16 
ROOT
HETATM    1  C   UNL     1      26.217  49.205  48.740  1.00  0.00     0.123 C 
ENDROOT
BRANCH   1   2
HETATM    2  C   UNL     1      26.932  48.130  49.561  1.00  0.00     0.021 C 
BRANCH   2   3
HETATM    3  C   UNL     1      25.974  47.003  49.956  1.00  0.00     0.029 C 
BRANCH   3   4
HETATM    4  C   UNL     1      24.975  47.476  51.011  1.00  0.00     0.235 C 
BRANCH   4   5
HETATM    5  N   UNL     1      25.151  46.701  52.295  1.00  0.00    -0.068 N 
HETATM    6  C   UNL     1      25.198  45.186  52.035  1.00  0.00     0.254 C 
HETATM    7  C   UNL     1      25.257  44.410  53.369  1.00  0.00     0.150 C 
HETATM    8  N   UNL     1      26.389  44.875  54.193  1.00  0.00    -0.378 N 
HETATM    9  C   UNL     1      26.430  46.325  54.438  1.00  0.00     0.150 C 
HETATM   10  C   UNL     1      26.381  47.118  53.115  1.00  0.00     0.254 C 
HETATM   11  H   UNL     1      24.325  46.866  52.884  1.00  0.00     0.280 HD
BRANCH   8  12
HETATM   12  C   UNL     1      27.551  44.105  54.212  1.00  0.00     0.030 A 
HETATM   13  C   UNL     1      27.670  42.873  53.547  1.00  0.00     0.036 A 
HETATM   14  C   UNL     1      28.861  42.123  53.564  1.00  0.00    -0.060 A 
HETATM   15  C   UNL     1      28.968  40.829  52.808  1.00  0.00     0.048 C 
HETATM   16  C   UNL     1      29.974  42.623  54.240  1.00  0.00     0.007 A 
HETATM   17  C   UNL     1      29.894  43.845  54.894  1.00  0.00     0.003 A 
HETATM   18  C   UNL     1      28.700  44.573  54.874  1.00  0.00     0.029 A 
ENDBRANCH   8  12
ENDBRANCH   4   5
ENDBRANCH   3   4
ENDBRANCH   2   3
ENDBRANCH   1   2
BRANCH   1  19
HETATM   19  N   UNL     1      24.789  49.212  48.971  1.00  0.00    -0.357 N 
HETATM   20  C   UNL     1      23.931  49.888  48.124  1.00  0.00     0.254 C 
HETATM   21  O   UNL     1      24.325  50.428  47.094  1.00  0.00    -0.268 OA
HETATM   22  H   UNL     1      24.429  48.677  49.750  1.00  0.00     0.162 HD
BRANCH  20  23
HETATM   23  C   UNL     1      22.490  49.911  48.489  1.00  0.00     0.064 A 
HETATM   24  C   UNL     1      21.789  48.724  48.626  1.00  0.00     0.077 A 
HETATM   25  C   UNL     1      20.435  48.696  48.972  1.00  0.00     0.065 A 
HETATM   26  N   UNL     1      22.207  47.400  48.470  1.00  0.00    -0.330 N 
HETATM   27  N   UNL     1      20.027  47.364  49.031  1.00  0.00    -0.331 N 
HETATM   28  C   UNL     1      19.706  49.840  49.189  1.00  0.00     0.074 A 
HETATM   29  C   UNL     1      21.123  46.553  48.710  1.00  0.00     0.176 A 
HETATM   30  H   UNL     1      19.101  47.022  49.241  1.00  0.00     0.168 HD
HETATM   31  S   UNL     1      21.130  44.909  48.627  1.00  0.00    -0.041 SA
HETATM   32  C   UNL     1      20.395  51.041  49.036  1.00  0.00     0.119 A 
HETATM   33  F   UNL     1      19.739  52.195  49.219  1.00  0.00    -0.206 F 
HETATM   34  C   UNL     1      21.760  51.092  48.690  1.00  0.00     0.061 A 
HETATM   35  H   UNL     1      23.136  47.122  48.174  1.00  0.00     0.168 HD
ENDBRANCH  20  23
ENDBRANCH   1  19
TORSDOF 7
ENDMDL
MODEL 7
REMARK VINA RESULT:      -8.4      2.954      4.474
REMARK  7 active torsions:
REMARK  status: ('A' for Active; 'I' for Inactive)
REMARK    1  A    between atoms: C_4  and  N_5 
REMARK    2  A    between atoms: N_8  and  C_10 
REMARK    3  A    between atoms: C_10  and  C_11 
REMARK    4  A    between atoms: C_11  and  C_12 
REMARK    5  A    between atoms: C_12  and  C_13 
REMARK    6  A    between atoms: C_13  and  N_14 
REMARK       I    between atoms: N_14  and  C_15 
REMARK    7  A    between atoms: C_15  and  C_16 
ROOT
HETATM    1  C   UNL     1      27.147  43.275  50.400  1.00  0.00     0.123 C 
ENDROOT
BRANCH   1   2
HETATM    2  C   UNL     1      25.991  43.592  49.450  1.00  0.00     0.021 C 
BRANCH   2   3
HETATM    3  C   UNL     1      25.584  45.065  49.542  1.00  0.00     0.029 C 
BRANCH   3   4
HETATM    4  C   UNL     1      24.073  45.207  49.718  1.00  0.00     0.235 C 
BRANCH   4   5
HETATM    5  N   UNL     1      23.535  46.312  48.840  1.00  0.00    -0.068 N 
HETATM    6  C   UNL     1      22.056  46.080  48.490  1.00  0.00     0.254 C 
HETATM    7  C   UNL     1      21.561  47.154  47.497  1.00  0.00     0.150 C 
HETATM    8  N   UNL     1      21.808  48.509  48.028  1.00  0.00    -0.378 N 
HETATM    9  C   UNL     1      23.198  48.778  48.430  1.00  0.00     0.150 C 
HETATM   10  C   UNL     1      23.707  47.720  49.430  1.00  0.00     0.254 C 
HETATM   11  H   UNL     1      24.048  46.292  47.950  1.00  0.00     0.280 HD
BRANCH   8  12
HETATM   12  C   UNL     1      20.742  49.196  48.607  1.00  0.00     0.030 A 
HETATM   13  C   UNL     1      20.418  50.526  48.287  1.00  0.00     0.036 A 
HETATM   14  C   UNL     1      19.322  51.191  48.870  1.00  0.00    -0.060 A 
HETATM   15  C   UNL     1      18.978  52.600  48.477  1.00  0.00     0.048 C 
HETATM   16  C   UNL     1      18.512  50.509  49.777  1.00  0.00     0.007 A 
HETATM   17  C   UNL     1      18.796  49.190  50.101  1.00  0.00     0.003 A 
HETATM   18  C   UNL     1      19.893  48.546  49.519  1.00  0.00     0.029 A 
ENDBRANCH   8  12
ENDBRANCH   4   5
ENDBRANCH   3   4
ENDBRANCH   2   3
ENDBRANCH   1   2
BRANCH   1  19
HETATM   19  N   UNL     1      27.330  44.302  51.402  1.00  0.00    -0.357 N 
HETATM   20  C   UNL     1      27.304  43.999  52.751  1.00  0.00     0.254 C 
HETATM   21  O   UNL     1      27.221  42.843  53.156  1.00  0.00    -0.268 OA
HETATM   22  H   UNL     1      27.516  45.246  51.090  1.00  0.00     0.162 HD
BRANCH  20  23
HETATM   23  C   UNL     1      27.416  45.132  53.707  1.00  0.00     0.064 A 
HETATM   24  C   UNL     1      28.406  45.129  54.675  1.00  0.00     0.077 A 
HETATM   25  C   UNL     1      28.552  46.174  55.592  1.00  0.00     0.065 A 
HETATM   26  N   UNL     1      29.399  44.186  54.954  1.00  0.00    -0.330 N 
HETATM   27  N   UNL     1      29.630  45.875  56.425  1.00  0.00    -0.331 N 
HETATM   28  C   UNL     1      27.721  47.266  55.603  1.00  0.00     0.074 A 
HETATM   29  C   UNL     1      30.155  44.635  56.039  1.00  0.00     0.176 A 
HETATM   30  H   UNL     1      29.973  46.430  57.195  1.00  0.00     0.168 HD
HETATM   31  S   UNL     1      31.424  43.852  56.738  1.00  0.00    -0.041 SA
HETATM   32  C   UNL     1      26.709  47.273  54.645  1.00  0.00     0.119 A 
HETATM   33  F   UNL     1      25.854  48.304  54.610  1.00  0.00    -0.206 F 
HETATM   34  C   UNL     1      26.545  46.231  53.710  1.00  0.00     0.061 A 
HETATM   35  H   UNL     1      29.501  43.300  54.473  1.00  0.00     0.168 HD
ENDBRANCH  20  23
ENDBRANCH   1  19
TORSDOF 7
ENDMDL
MODEL 8
REMARK VINA RESULT:      -8.3      3.069      7.562
REMARK  7 active torsions:
REMARK  status: ('A' for Active; 'I' for Inactive)
REMARK    1  A    between atoms: C_4  and  N_5 
REMARK    2  A    between atoms: N_8  and  C_10 
REMARK    3  A    between atoms: C_10  and  C_11 
REMARK    4  A    between atoms: C_11  and  C_12 
REMARK    5  A    between atoms: C_12  and  C_13 
REMARK    6  A    between atoms: C_13  and  N_14 
REMARK       I    between atoms: N_14  and  C_15 
REMARK    7  A    between atoms: C_15  and  C_16 
ROOT
HETATM    1  C   UNL     1      25.255  42.710  49.526  1.00  0.00     0.123 C 
ENDROOT
BRANCH   1   2
HETATM    2  C   UNL     1      26.155  41.766  48.728  1.00  0.00     0.021 C 
BRANCH   2   3
HETATM    3  C   UNL     1      27.000  40.887  49.654  1.00  0.00     0.029 C 
BRANCH   3   4
HETATM    4  C   UNL     1      26.635  41.123  51.118  1.00  0.00     0.235 C 
BRANCH   4   5
HETATM    5  N   UNL     1      27.840  41.595  51.898  1.00  0.00    -0.068 N 
HETATM    6  C   UNL     1      28.146  43.075  51.614  1.00  0.00     0.254 C 
HETATM    7  C   UNL     1      29.449  43.503  52.325  1.00  0.00     0.150 C 
HETATM    8  N   UNL     1      29.373  43.211  53.770  1.00  0.00    -0.378 N 
HETATM    9  C   UNL     1      29.033  41.821  54.109  1.00  0.00     0.150 C 
HETATM   10  C   UNL     1      27.729  41.377  53.414  1.00  0.00     0.254 C 
HETATM   11  H   UNL     1      28.658  41.065  51.575  1.00  0.00     0.280 HD
BRANCH   8  12
HETATM   12  C   UNL     1      29.083  44.261  54.641  1.00  0.00     0.030 A 
HETATM   13  C   UNL     1      29.878  44.579  55.756  1.00  0.00     0.036 A 
HETATM   14  C   UNL     1      29.575  45.657  56.609  1.00  0.00    -0.060 A 
HETATM   15  C   UNL     1      30.468  45.996  57.769  1.00  0.00     0.048 C 
HETATM   16  C   UNL     1      28.466  46.456  56.334  1.00  0.00     0.007 A 
HETATM   17  C   UNL     1      27.669  46.177  55.232  1.00  0.00     0.003 A 
HETATM   18  C   UNL     1      27.980  45.097  54.399  1.00  0.00     0.029 A 
ENDBRANCH   8  12
ENDBRANCH   4   5
ENDBRANCH   3   4
ENDBRANCH   2   3
ENDBRANCH   1   2
BRANCH   1  19
HETATM   19  N   UNL     1      25.591  44.100  49.310  1.00  0.00    -0.357 N 
HETATM   20  C   UNL     1      25.010  45.102  50.066  1.00  0.00     0.254 C 
HETATM   21  O   UNL     1      24.264  44.856  51.009  1.00  0.00    -0.268 OA
HETATM   22  H   UNL     1      26.291  44.320  48.615  1.00  0.00     0.162 HD
BRANCH  20  23
HETATM   23  C   UNL     1      25.352  46.506  49.715  1.00  0.00     0.064 A 
HETATM   24  C   UNL     1      24.347  47.418  49.440  1.00  0.00     0.077 A 
HETATM   25  C   UNL     1      24.620  48.749  49.110  1.00  0.00     0.065 A 
HETATM   26  N   UNL     1      22.959  47.260  49.421  1.00  0.00    -0.330 N 
HETATM   27  N   UNL     1      23.407  49.402  48.894  1.00  0.00    -0.331 N 
HETATM   28  C   UNL     1      25.900  49.239  49.027  1.00  0.00     0.074 A 
HETATM   29  C   UNL     1      22.371  48.479  49.077  1.00  0.00     0.176 A 
HETATM   30  H   UNL     1      23.278  50.367  48.627  1.00  0.00     0.168 HD
HETATM   31  S   UNL     1      20.759  48.775  48.912  1.00  0.00    -0.041 SA
HETATM   32  C   UNL     1      26.921  48.327  49.283  1.00  0.00     0.119 A 
HETATM   33  F   UNL     1      28.194  48.737  49.205  1.00  0.00    -0.206 F 
HETATM   34  C   UNL     1      26.668  46.981  49.620  1.00  0.00     0.061 A 
HETATM   35  H   UNL     1      22.478  46.381  49.578  1.00  0.00     0.168 HD
ENDBRANCH  20  23
ENDBRANCH   1  19
TORSDOF 7
ENDMDL
MODEL 9
REMARK VINA RESULT:      -8.3      4.946     10.143
REMARK  7 active torsions:
REMARK  status: ('A' for Active; 'I' for Inactive)
REMARK    1  A    between atoms: C_4  and  N_5 
REMARK    2  A    between atoms: N_8  and  C_10 
REMARK    3  A    between atoms: C_10  and  C_11 
REMARK    4  A    between atoms: C_11  and  C_12 
REMARK    5  A    between atoms: C_12  and  C_13 
REMARK    6  A    between atoms: C_13  and  N_14 
REMARK       I    between atoms: N_14  and  C_15 
REMARK    7  A    between atoms: C_15  and  C_16 
ROOT
HETATM    1  C   UNL     1      24.160  48.324  49.079  1.00  0.00     0.123 C 
ENDROOT
BRANCH   1   2
HETATM    2  C   UNL     1      24.571  47.546  50.330  1.00  0.00     0.021 C 
BRANCH   2   3
HETATM    3  C   UNL     1      25.874  46.775  50.103  1.00  0.00     0.029 C 
BRANCH   3   4
HETATM    4  C   UNL     1      25.593  45.322  49.724  1.00  0.00     0.235 C 
BRANCH   4   5
HETATM    5  N   UNL     1      26.063  44.387  50.813  1.00  0.00    -0.068 N 
HETATM    6  C   UNL     1      27.597  44.287  50.844  1.00  0.00     0.254 C 
HETATM    7  C   UNL     1      28.050  43.237  51.882  1.00  0.00     0.150 C 
HETATM    8  N   UNL     1      27.478  43.536  53.210  1.00  0.00    -0.378 N 
HETATM    9  C   UNL     1      26.016  43.694  53.239  1.00  0.00     0.150 C 
HETATM   10  C   UNL     1      25.545  44.747  52.214  1.00  0.00     0.254 C 
HETATM   11  H   UNL     1      25.718  43.444  50.597  1.00  0.00     0.280 HD
BRANCH   8  12
HETATM   12  C   UNL     1      28.293  44.162  54.153  1.00  0.00     0.030 A 
HETATM   13  C   UNL     1      29.393  43.531  54.760  1.00  0.00     0.036 A 
HETATM   14  C   UNL     1      30.213  44.191  55.695  1.00  0.00    -0.060 A 
HETATM   15  C   UNL     1      31.406  43.502  56.295  1.00  0.00     0.048 C 
HETATM   16  C   UNL     1      29.948  45.522  56.017  1.00  0.00     0.007 A 
HETATM   17  C   UNL     1      28.878  46.177  55.423  1.00  0.00     0.003 A 
HETATM   18  C   UNL     1      28.068  45.504  54.503  1.00  0.00     0.029 A 
ENDBRANCH   8  12
ENDBRANCH   4   5
ENDBRANCH   3   4
ENDBRANCH   2   3
ENDBRANCH   1   2
BRANCH   1  19
HETATM   19  N   UNL     1      22.747  48.635  49.066  1.00  0.00    -0.357 N 
HETATM   20  C   UNL     1      22.277  49.844  49.543  1.00  0.00     0.254 C 
HETATM   21  O   UNL     1      23.035  50.739  49.907  1.00  0.00    -0.268 OA
HETATM   22  H   UNL     1      22.113  47.958  48.664  1.00  0.00     0.162 HD
BRANCH  20  23
HETATM   23  C   UNL     1      20.803  50.040  49.569  1.00  0.00     0.064 A 
HETATM   24  C   UNL     1      19.957  48.988  49.266  1.00  0.00     0.077 A 
HETATM   25  C   UNL     1      18.565  49.124  49.281  1.00  0.00     0.065 A 
HETATM   26  N   UNL     1      20.242  47.669  48.905  1.00  0.00    -0.330 N 
HETATM   27  N   UNL     1      18.003  47.896  48.936  1.00  0.00    -0.331 N 
HETATM   28  C   UNL     1      17.945  50.310  49.588  1.00  0.00     0.074 A 
HETATM   29  C   UNL     1      19.041  46.989  48.691  1.00  0.00     0.176 A 
HETATM   30  H   UNL     1      17.020  47.683  48.847  1.00  0.00     0.168 HD
HETATM   31  S   UNL     1      18.876  45.416  48.233  1.00  0.00    -0.041 SA
HETATM   32  C   UNL     1      18.786  51.382  49.877  1.00  0.00     0.119 A 
HETATM   33  F   UNL     1      18.245  52.572  50.170  1.00  0.00    -0.206 F 
HETATM   34  C   UNL     1      20.191  51.266  49.869  1.00  0.00     0.061 A 
HETATM   35  H   UNL     1      21.177  47.300  48.769  1.00  0.00     0.168 HD
ENDBRANCH  20  23
ENDBRANCH   1  19
TORSDOF 7
ENDMDL
MODEL 10
REMARK VINA RESULT:      -8.1      3.752      6.295
REMARK  7 active torsions:
REMARK  status: ('A' for Active; 'I' for Inactive)
REMARK    1  A    between atoms: C_4  and  N_5 
REMARK    2  A    between atoms: N_8  and  C_10 
REMARK    3  A    between atoms: C_10  and  C_11 
REMARK    4  A    between atoms: C_11  and  C_12 
REMARK    5  A    between atoms: C_12  and  C_13 
REMARK    6  A    between atoms: C_13  and  N_14 
REMARK       I    between atoms: N_14  and  C_15 
REMARK    7  A    between atoms: C_15  and  C_16 
ROOT
HETATM    1  C   UNL     1      25.023  45.972  50.256  1.00  0.00     0.123 C 
ENDROOT
BRANCH   1   2
HETATM    2  C   UNL     1      25.156  47.484  50.441  1.00  0.00     0.021 C 
BRANCH   2   3
HETATM    3  C   UNL     1      24.401  48.247  49.350  1.00  0.00     0.029 C 
BRANCH   3   4
HETATM    4  C   UNL     1      23.126  47.509  48.947  1.00  0.00     0.235 C 
BRANCH   4   5
HETATM    5  N   UNL     1      21.904  48.239  49.455  1.00  0.00    -0.068 N 
HETATM    6  C   UNL     1      21.992  49.747  49.167  1.00  0.00     0.254 C 
HETATM    7  C   UNL     1      20.794  50.488  49.799  1.00  0.00     0.150 C 
HETATM    8  N   UNL     1      19.519  49.902  49.342  1.00  0.00    -0.378 N 
HETATM    9  C   UNL     1      19.392  48.450  49.544  1.00  0.00     0.150 C 
HETATM   10  C   UNL     1      20.577  47.691  48.911  1.00  0.00     0.254 C 
HETATM   11  H   UNL     1      21.875  48.142  50.477  1.00  0.00     0.280 HD
BRANCH   8  12
HETATM   12  C   UNL     1      18.815  50.557  48.333  1.00  0.00     0.030 A 
HETATM   13  C   UNL     1      19.035  50.323  46.964  1.00  0.00     0.036 A 
HETATM   14  C   UNL     1      18.297  50.982  45.963  1.00  0.00    -0.060 A 
HETATM   15  C   UNL     1      18.527  50.679  44.510  1.00  0.00     0.048 C 
HETATM   16  C   UNL     1      17.297  51.882  46.331  1.00  0.00     0.007 A 
HETATM   17  C   UNL     1      17.045  52.124  47.675  1.00  0.00     0.003 A 
HETATM   18  C   UNL     1      17.793  51.466  48.657  1.00  0.00     0.029 A 
ENDBRANCH   8  12
ENDBRANCH   4   5
ENDBRANCH   3   4
ENDBRANCH   2   3
ENDBRANCH   1   2
BRANCH   1  19
HETATM   19  N   UNL     1      25.846  45.231  51.188  1.00  0.00    -0.357 N 
HETATM   20  C   UNL     1      26.922  44.480  50.751  1.00  0.00     0.254 C 
HETATM   21  O   UNL     1      27.285  44.483  49.578  1.00  0.00    -0.268 OA
HETATM   22  H   UNL     1      25.637  45.306  52.174  1.00  0.00     0.162 HD
BRANCH  20  23
HETATM   23  C   UNL     1      27.657  43.686  51.770  1.00  0.00     0.064 A 
HETATM   24  C   UNL     1      27.977  42.362  51.521  1.00  0.00     0.077 A 
HETATM   25  C   UNL     1      28.671  41.577  52.447  1.00  0.00     0.065 A 
HETATM   26  N   UNL     1      27.717  41.560  50.407  1.00  0.00    -0.330 N 
HETATM   27  N   UNL     1      28.837  40.304  51.902  1.00  0.00    -0.331 N 
HETATM   28  C   UNL     1      29.072  42.061  53.668  1.00  0.00     0.074 A 
HETATM   29  C   UNL     1      28.237  40.284  50.637  1.00  0.00     0.176 A 
HETATM   30  H   UNL     1      29.286  39.512  52.338  1.00  0.00     0.168 HD
HETATM   31  S   UNL     1      28.158  38.997  49.614  1.00  0.00    -0.041 SA
HETATM   32  C   UNL     1      28.740  43.386  53.939  1.00  0.00     0.119 A 
HETATM   33  F   UNL     1      29.089  43.916  55.119  1.00  0.00    -0.206 F 
HETATM   34  C   UNL     1      28.043  44.195  53.019  1.00  0.00     0.061 A 
HETATM   35  H   UNL     1      27.185  41.857  49.597  1.00  0.00     0.168 HD
ENDBRANCH  20  23
ENDBRANCH   1  19
TORSDOF 7
ENDMDL
