MODEL 1
REMARK VINA RESULT:      -9.3      0.000      0.000
REMARK  4 active torsions:
REMARK  status: ('A' for Active; 'I' for Inactive)
REMARK       I    between atoms: N_6  and  C_7 
REMARK    1  A    between atoms: C_7  and  C_8 
REMARK    2  A    between atoms: C_9  and  N_10 
REMARK       I    between atoms: N_10  and  C_11 
REMARK    3  A    between atoms: C_11  and  C_12 
REMARK    4  A    between atoms: N_20  and  C_21 
ROOT
HETATM    1  C   UNL     1      26.336  43.442  51.055  1.00  0.00     0.097 A 
HETATM    2  C   UNL     1      26.590  44.740  51.480  1.00  0.00     0.149 A 
HETATM    3  N   UNL     1      26.880  44.670  52.846  1.00  0.00    -0.217 N 
HETATM    4  N   UNL     1      26.971  43.379  53.255  1.00  0.00    -0.177 NA
HETATM    5  C   UNL     1      26.659  42.659  52.183  1.00  0.00     0.160 A 
ENDROOT
BRANCH   2   6
HETATM    6  N   UNL     1      26.638  45.887  50.693  1.00  0.00    -0.306 N 
HETATM    7  C   UNL     1      25.475  46.674  50.404  1.00  0.00     0.258 C 
HETATM    8  O   UNL     1      24.398  46.406  50.915  1.00  0.00    -0.267 OA
HETATM    9  H   UNL     1      27.555  46.234  50.426  1.00  0.00     0.170 HD
BRANCH   7  10
HETATM   10  C   UNL     1      25.754  47.938  49.694  1.00  0.00     0.049 A 
HETATM   11  C   UNL     1      24.766  48.660  49.015  1.00  0.00     0.026 A 
HETATM   12 BR   UNL     1      22.928  48.198  49.082  1.00  0.00    -0.050 Br
HETATM   13  C   UNL     1      25.124  49.780  48.260  1.00  0.00     0.020 A 
HETATM   14  C   UNL     1      26.462  50.174  48.179  1.00  0.00     0.001 A 
HETATM   15  C   UNL     1      27.445  49.463  48.866  1.00  0.00     0.001 A 
HETATM   16  C   UNL     1      27.094  48.350  49.630  1.00  0.00     0.018 A 
ENDBRANCH   7  10
ENDBRANCH   2   6
BRANCH   1  17
HETATM   17  C   UNL     1      26.027  42.981  49.715  1.00  0.00     0.259 C 
HETATM   18  N   UNL     1      24.742  42.480  49.463  1.00  0.00    -0.345 N 
HETATM   19  C   UNL     1      24.510  41.813  48.174  1.00  0.00     0.154 C 
HETATM   20  C   UNL     1      23.521  42.942  50.141  1.00  0.00     0.154 C 
HETATM   21  C   UNL     1      23.708  42.709  47.217  1.00  0.00     0.254 C 
HETATM   22  N   UNL     1      22.398  43.121  47.893  1.00  0.00    -0.072 N 
HETATM   23  C   UNL     1      21.528  43.939  46.982  1.00  0.00     0.269 C 
HETATM   24  H   UNL     1      21.875  42.258  48.099  1.00  0.00     0.279 HD
HETATM   25  C   UNL     1      22.661  43.830  49.216  1.00  0.00     0.254 C 
HETATM   26  O   UNL     1      26.881  42.992  48.830  1.00  0.00    -0.267 OA
ENDBRANCH   1  17
BRANCH   3  27
HETATM   27  C   UNL     1      27.007  45.732  53.794  1.00  0.00     0.060 A 
HETATM   28  C   UNL     1      26.077  46.779  53.872  1.00  0.00     0.031 A 
HETATM   29  C   UNL     1      26.232  47.793  54.823  1.00  0.00     0.002 A 
HETATM   30  C   UNL     1      27.300  47.761  55.715  1.00  0.00     0.000 A 
HETATM   31  C   UNL     1      28.214  46.712  55.663  1.00  0.00     0.002 A 
HETATM   32  C   UNL     1      28.071  45.701  54.710  1.00  0.00     0.031 A 
ENDBRANCH   3  27
TORSDOF 4
ENDMDL
MODEL 2
REMARK VINA RESULT:      -8.8      3.271      6.033
REMARK  4 active torsions:
REMARK  status: ('A' for Active; 'I' for Inactive)
REMARK       I    between atoms: N_6  and  C_7 
REMARK    1  A    between atoms: C_7  and  C_8 
REMARK    2  A    between atoms: C_9  and  N_10 
REMARK       I    between atoms: N_10  and  C_11 
REMARK    3  A    between atoms: C_11  and  C_12 
REMARK    4  A    between atoms: N_20  and  C_21 
ROOT
HETATM    1  C   UNL     1      26.729  42.015  49.574  1.00  0.00     0.097 A 
HETATM    2  C   UNL     1      26.828  43.250  50.199  1.00  0.00     0.149 A 
HETATM    3  N   UNL     1      25.904  44.096  49.577  1.00  0.00    -0.217 N 
HETATM    4  N   UNL     1      25.129  43.404  48.704  1.00  0.00    -0.177 NA
HETATM    5  C   UNL     1      25.617  42.170  48.718  1.00  0.00     0.160 A 
ENDROOT
BRANCH   2   6
HETATM    6  N   UNL     1      27.625  43.576  51.294  1.00  0.00    -0.306 N 
HETATM    7  C   UNL     1      27.089  43.761  52.610  1.00  0.00     0.258 C 
HETATM    8  O   UNL     1      25.906  43.554  52.836  1.00  0.00    -0.267 OA
HETATM    9  H   UNL     1      28.633  43.556  51.162  1.00  0.00     0.170 HD
BRANCH   7  10
HETATM   10  C   UNL     1      28.108  43.938  53.664  1.00  0.00     0.049 A 
HETATM   11  C   UNL     1      28.213  45.106  54.427  1.00  0.00     0.026 A 
HETATM   12 BR   UNL     1      26.952  46.519  54.323  1.00  0.00    -0.050 Br
HETATM   13  C   UNL     1      29.278  45.255  55.321  1.00  0.00     0.020 A 
HETATM   14  C   UNL     1      30.235  44.245  55.447  1.00  0.00     0.001 A 
HETATM   15  C   UNL     1      30.122  43.075  54.696  1.00  0.00     0.001 A 
HETATM   16  C   UNL     1      29.057  42.915  53.810  1.00  0.00     0.018 A 
ENDBRANCH   7  10
ENDBRANCH   2   6
BRANCH   1  17
HETATM   17  C   UNL     1      27.447  40.792  49.880  1.00  0.00     0.259 C 
HETATM   18  N   UNL     1      27.060  39.612  49.231  1.00  0.00    -0.345 N 
HETATM   19  C   UNL     1      27.639  38.348  49.708  1.00  0.00     0.154 C 
HETATM   20  C   UNL     1      26.505  39.554  47.869  1.00  0.00     0.154 C 
HETATM   21  C   UNL     1      28.717  37.827  48.745  1.00  0.00     0.254 C 
HETATM   22  N   UNL     1      28.115  37.688  47.345  1.00  0.00    -0.072 N 
HETATM   23  C   UNL     1      29.097  37.110  46.365  1.00  0.00     0.269 C 
HETATM   24  H   UNL     1      27.338  37.015  47.412  1.00  0.00     0.279 HD
HETATM   25  C   UNL     1      27.540  39.013  46.859  1.00  0.00     0.254 C 
HETATM   26  O   UNL     1      28.349  40.783  50.716  1.00  0.00    -0.267 OA
ENDBRANCH   1  17
BRANCH   3  27
HETATM   27  C   UNL     1      25.754  45.511  49.703  1.00  0.00     0.060 A 
HETATM   28  C   UNL     1      26.842  46.390  49.598  1.00  0.00     0.031 A 
HETATM   29  C   UNL     1      26.649  47.771  49.715  1.00  0.00     0.002 A 
HETATM   30  C   UNL     1      25.373  48.286  49.916  1.00  0.00     0.000 A 
HETATM   31  C   UNL     1      24.282  47.424  49.995  1.00  0.00     0.002 A 
HETATM   32  C   UNL     1      24.468  46.044  49.889  1.00  0.00     0.031 A 
ENDBRANCH   3  27
TORSDOF 4
ENDMDL
MODEL 3
REMARK VINA RESULT:      -8.7      2.892      4.042
REMARK  4 active torsions:
REMARK  status: ('A' for Active; 'I' for Inactive)
REMARK       I    between atoms: N_6  and  C_7 
REMARK    1  A    between atoms: C_7  and  C_8 
REMARK    2  A    between atoms: C_9  and  N_10 
REMARK       I    between atoms: N_10  and  C_11 
REMARK    3  A    between atoms: C_11  and  C_12 
REMARK    4  A    between atoms: N_20  and  C_21 
ROOT
HETATM    1  C   UNL     1      27.494  41.262  51.580  1.00  0.00     0.097 A 
HETATM    2  C   UNL     1      27.614  42.588  51.976  1.00  0.00     0.149 A 
HETATM    3  N   UNL     1      28.497  42.610  53.059  1.00  0.00    -0.217 N 
HETATM    4  N   UNL     1      29.051  41.387  53.255  1.00  0.00    -0.177 NA
HETATM    5  C   UNL     1      28.460  40.598  52.366  1.00  0.00     0.160 A 
ENDROOT
BRANCH   2   6
HETATM    6  N   UNL     1      27.041  43.701  51.366  1.00  0.00    -0.306 N 
HETATM    7  C   UNL     1      25.685  44.098  51.603  1.00  0.00     0.258 C 
HETATM    8  O   UNL     1      24.998  43.511  52.425  1.00  0.00    -0.267 OA
HETATM    9  H   UNL     1      27.656  44.313  50.836  1.00  0.00     0.170 HD
BRANCH   7  10
HETATM   10  C   UNL     1      25.313  45.393  50.997  1.00  0.00     0.049 A 
HETATM   11  C   UNL     1      24.225  45.538  50.129  1.00  0.00     0.026 A 
HETATM   12 BR   UNL     1      22.998  44.136  49.775  1.00  0.00    -0.050 Br
HETATM   13  C   UNL     1      24.006  46.764  49.494  1.00  0.00     0.020 A 
HETATM   14  C   UNL     1      24.872  47.837  49.722  1.00  0.00     0.001 A 
HETATM   15  C   UNL     1      25.948  47.696  50.597  1.00  0.00     0.001 A 
HETATM   16  C   UNL     1      26.167  46.478  51.242  1.00  0.00     0.018 A 
ENDBRANCH   7  10
ENDBRANCH   2   6
BRANCH   1  17
HETATM   17  C   UNL     1      26.726  40.720  50.475  1.00  0.00     0.259 C 
HETATM   18  N   UNL     1      27.348  40.604  49.225  1.00  0.00    -0.345 N 
HETATM   19  C   UNL     1      26.504  40.268  48.070  1.00  0.00     0.154 C 
HETATM   20  C   UNL     1      28.782  40.341  49.030  1.00  0.00     0.154 C 
HETATM   21  C   UNL     1      26.696  38.804  47.643  1.00  0.00     0.254 C 
HETATM   22  N   UNL     1      28.179  38.554  47.360  1.00  0.00    -0.072 N 
HETATM   23  C   UNL     1      28.429  37.158  46.864  1.00  0.00     0.269 C 
HETATM   24  H   UNL     1      28.456  39.189  46.598  1.00  0.00     0.279 HD
HETATM   25  C   UNL     1      29.036  38.888  48.575  1.00  0.00     0.254 C 
HETATM   26  O   UNL     1      25.546  40.405  50.622  1.00  0.00    -0.267 OA
ENDBRANCH   1  17
BRANCH   3  27
HETATM   27  C   UNL     1      28.796  43.683  53.954  1.00  0.00     0.060 A 
HETATM   28  C   UNL     1      27.975  44.815  54.065  1.00  0.00     0.031 A 
HETATM   29  C   UNL     1      28.299  45.838  54.963  1.00  0.00     0.002 A 
HETATM   30  C   UNL     1      29.427  45.732  55.769  1.00  0.00     0.000 A 
HETATM   31  C   UNL     1      30.235  44.601  55.686  1.00  0.00     0.002 A 
HETATM   32  C   UNL     1      29.924  43.581  54.785  1.00  0.00     0.031 A 
ENDBRANCH   3  27
TORSDOF 4
ENDMDL
MODEL 4
REMARK VINA RESULT:      -8.5      3.057      6.059
REMARK  4 active torsions:
REMARK  status: ('A' for Active; 'I' for Inactive)
REMARK       I    between atoms: N_6  and  C_7 
REMARK    1  A    between atoms: C_7  and  C_8 
REMARK    2  A    between atoms: C_9  and  N_10 
REMARK       I    between atoms: N_10  and  C_11 
REMARK    3  A    between atoms: C_11  and  C_12 
REMARK    4  A    between atoms: N_20  and  C_21 
ROOT
HETATM    1  C   UNL     1      23.925  45.979  49.205  1.00  0.00     0.097 A 
HETATM    2  C   UNL     1      24.906  45.245  49.858  1.00  0.00     0.149 A 
HETATM    3  N   UNL     1      24.970  43.999  49.226  1.00  0.00    -0.217 N 
HETATM    4  N   UNL     1      24.188  43.981  48.117  1.00  0.00    -0.177 NA
HETATM    5  C   UNL     1      23.582  45.162  48.106  1.00  0.00     0.160 A 
ENDROOT
BRANCH   2   6
HETATM    6  N   UNL     1      25.736  45.681  50.888  1.00  0.00    -0.306 N 
HETATM    7  C   UNL     1      25.461  45.411  52.268  1.00  0.00     0.258 C 
HETATM    8  O   UNL     1      24.516  44.706  52.589  1.00  0.00    -0.267 OA
HETATM    9  H   UNL     1      26.627  46.095  50.627  1.00  0.00     0.170 HD
BRANCH   7  10
HETATM   10  C   UNL     1      26.539  45.810  53.195  1.00  0.00     0.049 A 
HETATM   11  C   UNL     1      27.476  44.902  53.703  1.00  0.00     0.026 A 
HETATM   12 BR   UNL     1      27.582  43.101  53.120  1.00  0.00    -0.050 Br
HETATM   13  C   UNL     1      28.391  45.324  54.672  1.00  0.00     0.020 A 
HETATM   14  C   UNL     1      28.366  46.642  55.135  1.00  0.00     0.001 A 
HETATM   15  C   UNL     1      27.441  47.549  54.619  1.00  0.00     0.001 A 
HETATM   16  C   UNL     1      26.532  47.139  53.645  1.00  0.00     0.018 A 
ENDBRANCH   7  10
ENDBRANCH   2   6
BRANCH   1  17
HETATM   17  C   UNL     1      23.509  47.345  49.458  1.00  0.00     0.259 C 
HETATM   18  N   UNL     1      22.468  47.878  48.684  1.00  0.00    -0.345 N 
HETATM   19  C   UNL     1      22.206  49.320  48.792  1.00  0.00     0.154 C 
HETATM   20  C   UNL     1      21.350  47.093  48.139  1.00  0.00     0.154 C 
HETATM   21  C   UNL     1      20.941  49.599  49.620  1.00  0.00     0.254 C 
HETATM   22  N   UNL     1      19.761  48.847  49.002  1.00  0.00    -0.072 N 
HETATM   23  C   UNL     1      18.472  49.135  49.720  1.00  0.00     0.269 C 
HETATM   24  H   UNL     1      19.645  49.197  48.040  1.00  0.00     0.279 HD
HETATM   25  C   UNL     1      20.043  47.351  48.918  1.00  0.00     0.254 C 
HETATM   26  O   UNL     1      24.078  48.033  50.304  1.00  0.00    -0.267 OA
ENDBRANCH   1  17
BRANCH   3  27
HETATM   27  C   UNL     1      25.659  42.817  49.636  1.00  0.00     0.060 A 
HETATM   28  C   UNL     1      25.039  41.816  50.399  1.00  0.00     0.031 A 
HETATM   29  C   UNL     1      25.748  40.668  50.769  1.00  0.00     0.002 A 
HETATM   30  C   UNL     1      27.068  40.498  50.365  1.00  0.00     0.000 A 
HETATM   31  C   UNL     1      27.685  41.473  49.585  1.00  0.00     0.002 A 
HETATM   32  C   UNL     1      26.987  42.626  49.220  1.00  0.00     0.031 A 
ENDBRANCH   3  27
TORSDOF 4
ENDMDL
MODEL 5
REMARK VINA RESULT:      -8.4      4.217      7.273
REMARK  4 active torsions:
REMARK  status: ('A' for Active; 'I' for Inactive)
REMARK       I    between atoms: N_6  and  C_7 
REMARK    1  A    between atoms: C_7  and  C_8 
REMARK    2  A    between atoms: C_9  and  N_10 
REMARK       I    between atoms: N_10  and  C_11 
REMARK    3  A    between atoms: C_11  and  C_12 
REMARK    4  A    between atoms: N_20  and  C_21 
ROOT
HETATM    1  C   UNL     1      20.738  49.123  49.285  1.00  0.00     0.097 A 
HETATM    2  C   UNL     1      21.930  48.420  49.173  1.00  0.00     0.149 A 
HETATM    3  N   UNL     1      22.965  49.339  49.375  1.00  0.00    -0.217 N 
HETATM    4  N   UNL     1      22.472  50.543  49.760  1.00  0.00    -0.177 NA
HETATM    5  C   UNL     1      21.152  50.402  49.715  1.00  0.00     0.160 A 
ENDROOT
BRANCH   2   6
HETATM    6  N   UNL     1      22.082  47.048  48.985  1.00  0.00    -0.306 N 
HETATM    7  C   UNL     1      22.103  46.446  47.685  1.00  0.00     0.258 C 
HETATM    8  O   UNL     1      22.070  47.136  46.677  1.00  0.00    -0.267 OA
HETATM    9  H   UNL     1      22.309  46.487  49.801  1.00  0.00     0.170 HD
BRANCH   7  10
HETATM   10  C   UNL     1      22.438  45.007  47.685  1.00  0.00     0.049 A 
HETATM   11  C   UNL     1      21.606  44.036  47.115  1.00  0.00     0.026 A 
HETATM   12 BR   UNL     1      20.050  44.471  46.121  1.00  0.00    -0.050 Br
HETATM   13  C   UNL     1      21.923  42.683  47.261  1.00  0.00     0.020 A 
HETATM   14  C   UNL     1      23.061  42.301  47.976  1.00  0.00     0.001 A 
HETATM   15  C   UNL     1      23.897  43.269  48.532  1.00  0.00     0.001 A 
HETATM   16  C   UNL     1      23.592  44.622  48.383  1.00  0.00     0.018 A 
ENDBRANCH   7  10
ENDBRANCH   2   6
BRANCH   1  17
HETATM   17  C   UNL     1      19.383  48.614  49.197  1.00  0.00     0.259 C 
HETATM   18  N   UNL     1      18.597  48.997  48.101  1.00  0.00    -0.345 N 
HETATM   19  C   UNL     1      17.167  48.662  48.136  1.00  0.00     0.154 C 
HETATM   20  C   UNL     1      19.125  49.288  46.759  1.00  0.00     0.154 C 
HETATM   21  C   UNL     1      16.846  47.484  47.201  1.00  0.00     0.254 C 
HETATM   22  N   UNL     1      17.321  47.822  45.786  1.00  0.00    -0.072 N 
HETATM   23  C   UNL     1      16.971  46.742  44.802  1.00  0.00     0.269 C 
HETATM   24  H   UNL     1      16.814  48.666  45.487  1.00  0.00     0.279 HD
HETATM   25  C   UNL     1      18.811  48.147  45.768  1.00  0.00     0.254 C 
HETATM   26  O   UNL     1      18.921  47.893  50.079  1.00  0.00    -0.267 OA
ENDBRANCH   1  17
BRANCH   3  27
HETATM   27  C   UNL     1      24.368  49.174  49.163  1.00  0.00     0.060 A 
HETATM   28  C   UNL     1      25.107  50.039  48.344  1.00  0.00     0.031 A 
HETATM   29  C   UNL     1      26.483  49.849  48.173  1.00  0.00     0.002 A 
HETATM   30  C   UNL     1      27.134  48.811  48.832  1.00  0.00     0.000 A 
HETATM   31  C   UNL     1      26.415  47.962  49.669  1.00  0.00     0.002 A 
HETATM   32  C   UNL     1      25.040  48.140  49.837  1.00  0.00     0.031 A 
ENDBRANCH   3  27
TORSDOF 4
ENDMDL
MODEL 6
REMARK VINA RESULT:      -8.3      1.917      3.095
REMARK  4 active torsions:
REMARK  status: ('A' for Active; 'I' for Inactive)
REMARK       I    between atoms: N_6  and  C_7 
REMARK    1  A    between atoms: C_7  and  C_8 
REMARK    2  A    between atoms: C_9  and  N_10 
REMARK       I    between atoms: N_10  and  C_11 
REMARK    3  A    between atoms: C_11  and  C_12 
REMARK    4  A    between atoms: N_20  and  C_21 
ROOT
HETATM    1  C   UNL     1      23.745  43.564  48.829  1.00  0.00     0.097 A 
HETATM    2  C   UNL     1      24.690  44.305  49.527  1.00  0.00     0.149 A 
HETATM    3  N   UNL     1      25.106  43.519  50.606  1.00  0.00    -0.217 N 
HETATM    4  N   UNL     1      24.581  42.270  50.524  1.00  0.00    -0.177 NA
HETATM    5  C   UNL     1      23.786  42.303  49.462  1.00  0.00     0.160 A 
ENDROOT
BRANCH   2   6
HETATM    6  N   UNL     1      25.202  45.553  49.181  1.00  0.00    -0.306 N 
HETATM    7  C   UNL     1      24.837  46.754  49.872  1.00  0.00     0.258 C 
HETATM    8  O   UNL     1      24.117  46.712  50.859  1.00  0.00    -0.267 OA
HETATM    9  H   UNL     1      25.951  45.578  48.495  1.00  0.00     0.170 HD
BRANCH   7  10
HETATM   10  C   UNL     1      25.607  47.948  49.469  1.00  0.00     0.049 A 
HETATM   11  C   UNL     1      25.039  49.010  48.756  1.00  0.00     0.026 A 
HETATM   12 BR   UNL     1      23.182  49.124  48.389  1.00  0.00    -0.050 Br
HETATM   13  C   UNL     1      25.854  50.050  48.298  1.00  0.00     0.020 A 
HETATM   14  C   UNL     1      27.229  50.025  48.546  1.00  0.00     0.001 A 
HETATM   15  C   UNL     1      27.793  48.973  49.267  1.00  0.00     0.001 A 
HETATM   16  C   UNL     1      26.984  47.937  49.736  1.00  0.00     0.018 A 
ENDBRANCH   7  10
ENDBRANCH   2   6
BRANCH   1  17
HETATM   17  C   UNL     1      23.044  43.922  47.611  1.00  0.00     0.259 C 
HETATM   18  N   UNL     1      21.686  44.258  47.698  1.00  0.00    -0.345 N 
HETATM   19  C   UNL     1      20.936  44.400  46.442  1.00  0.00     0.154 C 
HETATM   20  C   UNL     1      21.063  44.912  48.859  1.00  0.00     0.154 C 
HETATM   21  C   UNL     1      20.675  45.878  46.110  1.00  0.00     0.254 C 
HETATM   22  N   UNL     1      19.951  46.536  47.286  1.00  0.00    -0.072 N 
HETATM   23  C   UNL     1      19.596  47.968  46.999  1.00  0.00     0.269 C 
HETATM   24  H   UNL     1      19.061  46.035  47.418  1.00  0.00     0.279 HD
HETATM   25  C   UNL     1      20.754  46.398  48.574  1.00  0.00     0.254 C 
HETATM   26  O   UNL     1      23.617  43.896  46.523  1.00  0.00    -0.267 OA
ENDBRANCH   1  17
BRANCH   3  27
HETATM   27  C   UNL     1      25.901  43.889  51.734  1.00  0.00     0.060 A 
HETATM   28  C   UNL     1      25.332  44.280  52.955  1.00  0.00     0.031 A 
HETATM   29  C   UNL     1      26.148  44.623  54.038  1.00  0.00     0.002 A 
HETATM   30  C   UNL     1      27.533  44.559  53.921  1.00  0.00     0.000 A 
HETATM   31  C   UNL     1      28.109  44.147  52.721  1.00  0.00     0.002 A 
HETATM   32  C   UNL     1      27.300  43.812  51.633  1.00  0.00     0.031 A 
ENDBRANCH   3  27
TORSDOF 4
ENDMDL
MODEL 7
REMARK VINA RESULT:      -8.2      2.011      6.477
REMARK  4 active torsions:
REMARK  status: ('A' for Active; 'I' for Inactive)
REMARK       I    between atoms: N_6  and  C_7 
REMARK    1  A    between atoms: C_7  and  C_8 
REMARK    2  A    between atoms: C_9  and  N_10 
REMARK       I    between atoms: N_10  and  C_11 
REMARK    3  A    between atoms: C_11  and  C_12 
REMARK    4  A    between atoms: N_20  and  C_21 
ROOT
HETATM    1  C   UNL     1      25.326  45.300  52.146  1.00  0.00     0.097 A 
HETATM    2  C   UNL     1      24.503  45.457  51.039  1.00  0.00     0.149 A 
HETATM    3  N   UNL     1      24.161  44.174  50.601  1.00  0.00    -0.217 N 
HETATM    4  N   UNL     1      24.605  43.233  51.473  1.00  0.00    -0.177 NA
HETATM    5  C   UNL     1      25.283  43.911  52.391  1.00  0.00     0.160 A 
ENDROOT
BRANCH   2   6
HETATM    6  N   UNL     1      24.027  46.654  50.509  1.00  0.00    -0.306 N 
HETATM    7  C   UNL     1      24.745  47.398  49.518  1.00  0.00     0.258 C 
HETATM    8  O   UNL     1      25.778  46.958  49.035  1.00  0.00    -0.267 OA
HETATM    9  H   UNL     1      23.079  46.930  50.753  1.00  0.00     0.170 HD
BRANCH   7  10
HETATM   10  C   UNL     1      24.004  48.549  48.962  1.00  0.00     0.049 A 
HETATM   11  C   UNL     1      24.640  49.708  48.503  1.00  0.00     0.026 A 
HETATM   12 BR   UNL     1      26.525  49.863  48.371  1.00  0.00    -0.050 Br
HETATM   13  C   UNL     1      23.871  50.806  48.106  1.00  0.00     0.020 A 
HETATM   14  C   UNL     1      22.477  50.748  48.173  1.00  0.00     0.001 A 
HETATM   15  C   UNL     1      21.844  49.588  48.619  1.00  0.00     0.001 A 
HETATM   16  C   UNL     1      22.604  48.485  49.006  1.00  0.00     0.018 A 
ENDBRANCH   7  10
ENDBRANCH   2   6
BRANCH   1  17
HETATM   17  C   UNL     1      25.912  46.329  52.983  1.00  0.00     0.259 C 
HETATM   18  N   UNL     1      26.291  45.990  54.289  1.00  0.00    -0.345 N 
HETATM   19  C   UNL     1      26.672  47.082  55.195  1.00  0.00     0.154 C 
HETATM   20  C   UNL     1      26.773  44.661  54.697  1.00  0.00     0.154 C 
HETATM   21  C   UNL     1      28.195  47.136  55.397  1.00  0.00     0.254 C 
HETATM   22  N   UNL     1      28.683  45.777  55.902  1.00  0.00    -0.072 N 
HETATM   23  C   UNL     1      30.157  45.781  56.194  1.00  0.00     0.269 C 
HETATM   24  H   UNL     1      28.209  45.594  56.798  1.00  0.00     0.279 HD
HETATM   25  C   UNL     1      28.297  44.660  54.939  1.00  0.00     0.254 C 
HETATM   26  O   UNL     1      26.039  47.481  52.571  1.00  0.00    -0.267 OA
ENDBRANCH   1  17
BRANCH   3  27
HETATM   27  C   UNL     1      23.512  43.779  49.391  1.00  0.00     0.060 A 
HETATM   28  C   UNL     1      22.304  44.355  48.969  1.00  0.00     0.031 A 
HETATM   29  C   UNL     1      21.708  43.948  47.770  1.00  0.00     0.002 A 
HETATM   30  C   UNL     1      22.318  42.983  46.976  1.00  0.00     0.000 A 
HETATM   31  C   UNL     1      23.530  42.423  47.373  1.00  0.00     0.002 A 
HETATM   32  C   UNL     1      24.126  42.818  48.572  1.00  0.00     0.031 A 
ENDBRANCH   3  27
TORSDOF 4
ENDMDL
MODEL 8
REMARK VINA RESULT:      -8.2      2.931      6.499
REMARK  4 active torsions:
REMARK  status: ('A' for Active; 'I' for Inactive)
REMARK       I    between atoms: N_6  and  C_7 
REMARK    1  A    between atoms: C_7  and  C_8 
REMARK    2  A    between atoms: C_9  and  N_10 
REMARK       I    between atoms: N_10  and  C_11 
REMARK    3  A    between atoms: C_11  and  C_12 
REMARK    4  A    between atoms: N_20  and  C_21 
ROOT
HETATM    1  C   UNL     1      24.584  45.289  50.748  1.00  0.00     0.097 A 
HETATM    2  C   UNL     1      23.982  45.858  49.633  1.00  0.00     0.149 A 
HETATM    3  N   UNL     1      23.976  47.241  49.836  1.00  0.00    -0.217 N 
HETATM    4  N   UNL     1      24.682  47.569  50.948  1.00  0.00    -0.177 NA
HETATM    5  C   UNL     1      25.048  46.406  51.474  1.00  0.00     0.160 A 
ENDROOT
BRANCH   2   6
HETATM    6  N   UNL     1      23.546  45.199  48.486  1.00  0.00    -0.306 N 
HETATM    7  C   UNL     1      22.336  44.432  48.450  1.00  0.00     0.258 C 
HETATM    8  O   UNL     1      21.591  44.397  49.418  1.00  0.00    -0.267 OA
HETATM    9  H   UNL     1      24.049  45.381  47.622  1.00  0.00     0.170 HD
BRANCH   7  10
HETATM   10  C   UNL     1      21.959  43.949  47.107  1.00  0.00     0.049 A 
HETATM   11  C   UNL     1      22.203  42.639  46.677  1.00  0.00     0.026 A 
HETATM   12 BR   UNL     1      22.877  41.289  47.826  1.00  0.00    -0.050 Br
HETATM   13  C   UNL     1      21.935  42.286  45.351  1.00  0.00     0.020 A 
HETATM   14  C   UNL     1      21.430  43.236  44.460  1.00  0.00     0.001 A 
HETATM   15  C   UNL     1      21.174  44.537  44.892  1.00  0.00     0.001 A 
HETATM   16  C   UNL     1      21.430  44.894  46.216  1.00  0.00     0.018 A 
ENDBRANCH   7  10
ENDBRANCH   2   6
BRANCH   1  17
HETATM   17  C   UNL     1      24.865  43.889  51.001  1.00  0.00     0.259 C 
HETATM   18  N   UNL     1      26.123  43.386  50.642  1.00  0.00    -0.345 N 
HETATM   19  C   UNL     1      26.318  41.931  50.694  1.00  0.00     0.154 C 
HETATM   20  C   UNL     1      27.368  44.171  50.659  1.00  0.00     0.154 C 
HETATM   21  C   UNL     1      27.157  41.522  51.916  1.00  0.00     0.254 C 
HETATM   22  N   UNL     1      28.488  42.277  51.886  1.00  0.00    -0.072 N 
HETATM   23  C   UNL     1      29.392  41.868  53.015  1.00  0.00     0.269 C 
HETATM   24  H   UNL     1      28.970  42.013  51.015  1.00  0.00     0.279 HD
HETATM   25  C   UNL     1      28.265  43.785  51.854  1.00  0.00     0.254 C 
HETATM   26  O   UNL     1      24.008  43.150  51.483  1.00  0.00    -0.267 OA
ENDBRANCH   1  17
BRANCH   3  27
HETATM   27  C   UNL     1      23.295  48.256  49.095  1.00  0.00     0.060 A 
HETATM   28  C   UNL     1      21.901  48.262  48.941  1.00  0.00     0.031 A 
HETATM   29  C   UNL     1      21.274  49.281  48.217  1.00  0.00     0.002 A 
HETATM   30  C   UNL     1      22.026  50.310  47.660  1.00  0.00     0.000 A 
HETATM   31  C   UNL     1      23.409  50.328  47.828  1.00  0.00     0.002 A 
HETATM   32  C   UNL     1      24.042  49.309  48.541  1.00  0.00     0.031 A 
ENDBRANCH   3  27
TORSDOF 4
ENDMDL
MODEL 9
REMARK VINA RESULT:      -8.2      2.088      3.355
REMARK  4 active torsions:
REMARK  status: ('A' for Active; 'I' for Inactive)
REMARK       I    between atoms: N_6  and  C_7 
REMARK    1  A    between atoms: C_7  and  C_8 
REMARK    2  A    between atoms: C_9  and  N_10 
REMARK       I    between atoms: N_10  and  C_11 
REMARK    3  A    between atoms: C_11  and  C_12 
REMARK    4  A    between atoms: N_20  and  C_21 
ROOT
HETATM    1  C   UNL     1      23.041  43.840  49.461  1.00  0.00     0.097 A 
HETATM    2  C   UNL     1      24.233  44.433  49.855  1.00  0.00     0.149 A 
HETATM    3  N   UNL     1      24.874  43.530  50.708  1.00  0.00    -0.217 N 
HETATM    4  N   UNL     1      24.214  42.344  50.740  1.00  0.00    -0.177 NA
HETATM    5  C   UNL     1      23.136  42.534  49.989  1.00  0.00     0.160 A 
ENDROOT
BRANCH   2   6
HETATM    6  N   UNL     1      24.747  45.653  49.422  1.00  0.00    -0.306 N 
HETATM    7  C   UNL     1      24.783  46.815  50.259  1.00  0.00     0.258 C 
HETATM    8  O   UNL     1      24.433  46.753  51.429  1.00  0.00    -0.267 OA
HETATM    9  H   UNL     1      25.223  45.668  48.524  1.00  0.00     0.170 HD
BRANCH   7  10
HETATM   10  C   UNL     1      25.513  47.962  49.681  1.00  0.00     0.049 A 
HETATM   11  C   UNL     1      24.882  48.959  48.929  1.00  0.00     0.026 A 
HETATM   12 BR   UNL     1      23.000  49.054  48.720  1.00  0.00    -0.050 Br
HETATM   13  C   UNL     1      25.653  49.946  48.307  1.00  0.00     0.020 A 
HETATM   14  C   UNL     1      27.044  49.933  48.431  1.00  0.00     0.001 A 
HETATM   15  C   UNL     1      27.671  48.947  49.192  1.00  0.00     0.001 A 
HETATM   16  C   UNL     1      26.909  47.964  49.824  1.00  0.00     0.018 A 
ENDBRANCH   7  10
ENDBRANCH   2   6
BRANCH   1  17
HETATM   17  C   UNL     1      22.040  44.355  48.547  1.00  0.00     0.259 C 
HETATM   18  N   UNL     1      22.367  44.454  47.188  1.00  0.00    -0.345 N 
HETATM   19  C   UNL     1      21.437  45.180  46.312  1.00  0.00     0.154 C 
HETATM   20  C   UNL     1      23.285  43.545  46.484  1.00  0.00     0.154 C 
HETATM   21  C   UNL     1      20.620  44.214  45.439  1.00  0.00     0.254 C 
HETATM   22  N   UNL     1      21.579  43.324  44.644  1.00  0.00    -0.072 N 
HETATM   23  C   UNL     1      20.846  42.403  43.710  1.00  0.00     0.269 C 
HETATM   24  H   UNL     1      22.152  43.943  44.054  1.00  0.00     0.279 HD
HETATM   25  C   UNL     1      22.521  42.564  45.570  1.00  0.00     0.254 C 
HETATM   26  O   UNL     1      20.944  44.732  48.958  1.00  0.00    -0.267 OA
ENDBRANCH   1  17
BRANCH   3  27
HETATM   27  C   UNL     1      26.018  43.735  51.540  1.00  0.00     0.060 A 
HETATM   28  C   UNL     1      27.328  43.605  51.055  1.00  0.00     0.031 A 
HETATM   29  C   UNL     1      28.420  43.827  51.901  1.00  0.00     0.002 A 
HETATM   30  C   UNL     1      28.217  44.198  53.226  1.00  0.00     0.000 A 
HETATM   31  C   UNL     1      26.921  44.355  53.711  1.00  0.00     0.002 A 
HETATM   32  C   UNL     1      25.826  44.127  52.875  1.00  0.00     0.031 A 
ENDBRANCH   3  27
TORSDOF 4
ENDMDL
MODEL 10
REMARK VINA RESULT:      -8.1      3.207      6.318
REMARK  4 active torsions:
REMARK  status: ('A' for Active; 'I' for Inactive)
REMARK       I    between atoms: N_6  and  C_7 
REMARK    1  A    between atoms: C_7  and  C_8 
REMARK    2  A    between atoms: C_9  and  N_10 
REMARK       I    between atoms: N_10  and  C_11 
REMARK    3  A    between atoms: C_11  and  C_12 
REMARK    4  A    between atoms: N_20  and  C_21 
ROOT
HETATM    1  C   UNL     1      24.193  41.723  49.034  1.00  0.00     0.097 A 
HETATM    2  C   UNL     1      25.395  41.324  49.603  1.00  0.00     0.149 A 
HETATM    3  N   UNL     1      25.900  40.293  48.805  1.00  0.00    -0.217 N 
HETATM    4  N   UNL     1      25.150  40.139  47.684  1.00  0.00    -0.177 NA
HETATM    5  C   UNL     1      24.148  40.999  47.823  1.00  0.00     0.160 A 
ENDROOT
BRANCH   2   6
HETATM    6  N   UNL     1      26.032  41.890  50.705  1.00  0.00    -0.306 N 
HETATM    7  C   UNL     1      26.944  42.988  50.587  1.00  0.00     0.258 C 
HETATM    8  O   UNL     1      27.135  43.529  49.508  1.00  0.00    -0.267 OA
HETATM    9  H   UNL     1      25.733  41.583  51.627  1.00  0.00     0.170 HD
BRANCH   7  10
HETATM   10  C   UNL     1      27.388  43.554  51.878  1.00  0.00     0.049 A 
HETATM   11  C   UNL     1      26.722  44.610  52.510  1.00  0.00     0.026 A 
HETATM   12 BR   UNL     1      25.077  45.313  51.880  1.00  0.00    -0.050 Br
HETATM   13  C   UNL     1      27.268  45.179  53.665  1.00  0.00     0.020 A 
HETATM   14  C   UNL     1      28.474  44.698  54.181  1.00  0.00     0.001 A 
HETATM   15  C   UNL     1      29.130  43.637  53.558  1.00  0.00     0.001 A 
HETATM   16  C   UNL     1      28.587  43.058  52.411  1.00  0.00     0.018 A 
ENDBRANCH   7  10
ENDBRANCH   2   6
BRANCH   1  17
HETATM   17  C   UNL     1      23.305  42.786  49.464  1.00  0.00     0.259 C 
HETATM   18  N   UNL     1      23.022  43.823  48.564  1.00  0.00    -0.345 N 
HETATM   19  C   UNL     1      22.308  44.999  49.080  1.00  0.00     0.154 C 
HETATM   20  C   UNL     1      22.962  43.664  47.103  1.00  0.00     0.154 C 
HETATM   21  C   UNL     1      20.838  45.003  48.631  1.00  0.00     0.254 C 
HETATM   22  N   UNL     1      20.779  44.922  47.104  1.00  0.00    -0.072 N 
HETATM   23  C   UNL     1      19.369  44.997  46.590  1.00  0.00     0.269 C 
HETATM   24  H   UNL     1      21.269  45.749  46.735  1.00  0.00     0.279 HD
HETATM   25  C   UNL     1      21.506  43.685  46.590  1.00  0.00     0.254 C 
HETATM   26  O   UNL     1      22.839  42.798  50.603  1.00  0.00    -0.267 OA
ENDBRANCH   1  17
BRANCH   3  27
HETATM   27  C   UNL     1      26.992  39.408  49.063  1.00  0.00     0.060 A 
HETATM   28  C   UNL     1      26.798  38.088  49.497  1.00  0.00     0.031 A 
HETATM   29  C   UNL     1      27.895  37.251  49.727  1.00  0.00     0.002 A 
HETATM   30  C   UNL     1      29.188  37.714  49.507  1.00  0.00     0.000 A 
HETATM   31  C   UNL     1      29.391  39.014  49.051  1.00  0.00     0.002 A 
HETATM   32  C   UNL     1      28.301  39.858  48.829  1.00  0.00     0.031 A 
ENDBRANCH   3  27
TORSDOF 4
ENDMDL
