MODEL 1
REMARK VINA RESULT:      -8.7      0.000      0.000
REMARK  3 active torsions:
REMARK  status: ('A' for Active; 'I' for Inactive)
REMARK    1  A    between atoms: C_9  and  C_10 
REMARK    2  A    between atoms: C_16  and  C_17 
REMARK       I    between atoms: C_17  and  N_18 
REMARK    3  A    between atoms: N_18  and  C_19 
ROOT
HETATM    1  C   UNL     1      25.021  46.894  51.707  1.00  0.00     0.070 C 
HETATM    2  C   UNL     1      24.637  45.594  51.045  1.00  0.00     0.037 C 
HETATM    3  N   UNL     1      23.790  45.707  49.946  1.00  0.00    -0.191 N 
HETATM    4  C   UNL     1      23.185  44.645  49.375  1.00  0.00     0.735 A 
HETATM    5  N   UNL     1      23.498  43.386  49.804  1.00  0.00    -0.092 N 
HETATM    6  N   UNL     1      22.743  42.477  49.167  1.00  0.00     0.012 NA
HETATM    7  N   UNL     1      22.007  43.191  48.321  1.00  0.00     0.033 NA
HETATM    8  N   UNL     1      22.272  44.543  48.440  1.00  0.00     0.030 NA
HETATM    9  C   UNL     1      24.475  43.081  50.845  1.00  0.00     0.199 C 
HETATM   10  C   UNL     1      25.004  44.364  51.484  1.00  0.00     0.062 C 
HETATM   11  H   UNL     1      23.470  46.640  49.692  1.00  0.00     0.184 HD
ENDROOT
BRANCH  10  12
HETATM   12  C   UNL     1      25.858  44.122  52.679  1.00  0.00     0.256 C 
HETATM   13  N   UNL     1      27.202  44.287  52.431  1.00  0.00    -0.323 N 
HETATM   14  H   UNL     1      27.473  44.550  51.492  1.00  0.00     0.169 HD
HETATM   15  O   UNL     1      25.319  43.753  53.713  1.00  0.00    -0.267 OA
BRANCH  13  16
HETATM   16  C   UNL     1      28.266  44.122  53.343  1.00  0.00     0.035 A 
HETATM   17  C   UNL     1      28.441  44.901  54.488  1.00  0.00     0.029 A 
HETATM   18  C   UNL     1      29.526  44.672  55.341  1.00  0.00     0.002 A 
HETATM   19  C   UNL     1      30.448  43.670  55.051  1.00  0.00     0.000 A 
HETATM   20  C   UNL     1      30.285  42.889  53.912  1.00  0.00     0.002 A 
HETATM   21  C   UNL     1      29.196  43.111  53.064  1.00  0.00     0.029 A 
ENDBRANCH  13  16
ENDBRANCH  10  12
BRANCH   9  22
HETATM   22  C   UNL     1      25.591  42.216  50.288  1.00  0.00    -0.011 A 
HETATM   23  C   UNL     1      26.336  42.661  49.197  1.00  0.00     0.125 A 
HETATM   24  N   UNL     1      27.338  41.957  48.624  1.00  0.00    -0.272 NA
HETATM   25  C   UNL     1      27.618  40.750  49.156  1.00  0.00     0.116 A 
HETATM   26  C   UNL     1      26.935  40.207  50.230  1.00  0.00     0.020 A 
HETATM   27  C   UNL     1      25.904  40.949  50.800  1.00  0.00     0.012 A 
ENDBRANCH   9  22
TORSDOF 3
ENDMDL
MODEL 2
REMARK VINA RESULT:      -7.9      2.593      5.566
REMARK  3 active torsions:
REMARK  status: ('A' for Active; 'I' for Inactive)
REMARK    1  A    between atoms: C_9  and  C_10 
REMARK    2  A    between atoms: C_16  and  C_17 
REMARK       I    between atoms: C_17  and  N_18 
REMARK    3  A    between atoms: N_18  and  C_19 
ROOT
HETATM    1  C   UNL     1      30.437  43.036  54.474  1.00  0.00     0.070 C 
HETATM    2  C   UNL     1      29.107  43.660  54.133  1.00  0.00     0.037 C 
HETATM    3  N   UNL     1      28.932  44.973  54.563  1.00  0.00    -0.191 N 
HETATM    4  C   UNL     1      27.740  45.603  54.529  1.00  0.00     0.735 A 
HETATM    5  N   UNL     1      26.673  44.983  53.942  1.00  0.00    -0.092 N 
HETATM    6  N   UNL     1      25.569  45.735  54.074  1.00  0.00     0.012 NA
HETATM    7  N   UNL     1      25.985  46.830  54.703  1.00  0.00     0.033 NA
HETATM    8  N   UNL     1      27.336  46.760  54.994  1.00  0.00     0.030 NA
HETATM    9  C   UNL     1      26.719  43.667  53.311  1.00  0.00     0.199 C 
HETATM   10  C   UNL     1      28.087  43.018  53.512  1.00  0.00     0.062 C 
HETATM   11  H   UNL     1      29.688  45.399  55.096  1.00  0.00     0.184 HD
ENDROOT
BRANCH  10  12
HETATM   12  C   UNL     1      28.142  41.601  53.060  1.00  0.00     0.256 C 
HETATM   13  N   UNL     1      28.630  41.454  51.782  1.00  0.00    -0.323 N 
HETATM   14  H   UNL     1      28.897  42.295  51.287  1.00  0.00     0.169 HD
HETATM   15  O   UNL     1      27.709  40.736  53.809  1.00  0.00    -0.267 OA
BRANCH  13  16
HETATM   16  C   UNL     1      28.795  40.251  51.063  1.00  0.00     0.035 A 
HETATM   17  C   UNL     1      29.579  39.182  51.500  1.00  0.00     0.029 A 
HETATM   18  C   UNL     1      29.693  38.023  50.724  1.00  0.00     0.002 A 
HETATM   19  C   UNL     1      29.031  37.928  49.504  1.00  0.00     0.000 A 
HETATM   20  C   UNL     1      28.247  38.988  49.057  1.00  0.00     0.002 A 
HETATM   21  C   UNL     1      28.127  40.143  49.836  1.00  0.00     0.029 A 
ENDBRANCH  13  16
ENDBRANCH  10  12
BRANCH   9  22
HETATM   22  C   UNL     1      26.343  43.770  51.843  1.00  0.00    -0.011 A 
HETATM   23  C   UNL     1      27.139  44.512  50.973  1.00  0.00     0.125 A 
HETATM   24  N   UNL     1      26.879  44.672  49.656  1.00  0.00    -0.272 NA
HETATM   25  C   UNL     1      25.773  44.067  49.174  1.00  0.00     0.116 A 
HETATM   26  C   UNL     1      24.908  43.317  49.951  1.00  0.00     0.020 A 
HETATM   27  C   UNL     1      25.196  43.171  51.305  1.00  0.00     0.012 A 
ENDBRANCH   9  22
TORSDOF 3
ENDMDL
MODEL 3
REMARK VINA RESULT:      -7.8      2.649      5.799
REMARK  3 active torsions:
REMARK  status: ('A' for Active; 'I' for Inactive)
REMARK    1  A    between atoms: C_9  and  C_10 
REMARK    2  A    between atoms: C_16  and  C_17 
REMARK       I    between atoms: C_17  and  N_18 
REMARK    3  A    between atoms: N_18  and  C_19 
ROOT
HETATM    1  C   UNL     1      26.862  46.142  54.513  1.00  0.00     0.070 C 
HETATM    2  C   UNL     1      26.877  45.077  53.444  1.00  0.00     0.037 C 
HETATM    3  N   UNL     1      27.380  43.840  53.836  1.00  0.00    -0.191 N 
HETATM    4  C   UNL     1      27.659  42.852  52.960  1.00  0.00     0.735 A 
HETATM    5  N   UNL     1      27.329  43.011  51.644  1.00  0.00    -0.092 N 
HETATM    6  N   UNL     1      27.751  41.958  50.928  1.00  0.00     0.012 NA
HETATM    7  N   UNL     1      28.296  41.142  51.827  1.00  0.00     0.033 NA
HETATM    8  N   UNL     1      28.246  41.688  53.097  1.00  0.00     0.030 NA
HETATM    9  C   UNL     1      26.662  44.187  51.090  1.00  0.00     0.199 C 
HETATM   10  C   UNL     1      26.502  45.270  52.154  1.00  0.00     0.062 C 
HETATM   11  H   UNL     1      27.726  43.752  54.789  1.00  0.00     0.184 HD
ENDROOT
BRANCH  10  12
HETATM   12  C   UNL     1      26.003  46.564  51.613  1.00  0.00     0.256 C 
HETATM   13  N   UNL     1      26.529  46.878  50.380  1.00  0.00    -0.323 N 
HETATM   14  H   UNL     1      27.181  46.221  49.972  1.00  0.00     0.169 HD
HETATM   15  O   UNL     1      25.253  47.234  52.309  1.00  0.00    -0.267 OA
BRANCH  13  16
HETATM   16  C   UNL     1      26.270  48.031  49.609  1.00  0.00     0.035 A 
HETATM   17  C   UNL     1      27.259  48.911  49.165  1.00  0.00     0.029 A 
HETATM   18  C   UNL     1      26.917  50.035  48.406  1.00  0.00     0.002 A 
HETATM   19  C   UNL     1      25.585  50.292  48.092  1.00  0.00     0.000 A 
HETATM   20  C   UNL     1      24.591  49.423  48.531  1.00  0.00     0.002 A 
HETATM   21  C   UNL     1      24.934  48.295  49.283  1.00  0.00     0.029 A 
ENDBRANCH  13  16
ENDBRANCH  10  12
BRANCH   9  22
HETATM   22  C   UNL     1      25.335  43.797  50.464  1.00  0.00    -0.011 A 
HETATM   23  C   UNL     1      24.331  43.241  51.255  1.00  0.00     0.125 A 
HETATM   24  N   UNL     1      23.125  42.850  50.787  1.00  0.00    -0.272 NA
HETATM   25  C   UNL     1      22.898  43.018  49.467  1.00  0.00     0.116 A 
HETATM   26  C   UNL     1      23.827  43.549  48.590  1.00  0.00     0.020 A 
HETATM   27  C   UNL     1      25.065  43.939  49.096  1.00  0.00     0.012 A 
ENDBRANCH   9  22
TORSDOF 3
ENDMDL
MODEL 4
REMARK VINA RESULT:      -7.7      5.345      7.965
REMARK  3 active torsions:
REMARK  status: ('A' for Active; 'I' for Inactive)
REMARK    1  A    between atoms: C_9  and  C_10 
REMARK    2  A    between atoms: C_16  and  C_17 
REMARK       I    between atoms: C_17  and  N_18 
REMARK    3  A    between atoms: N_18  and  C_19 
ROOT
HETATM    1  C   UNL     1      23.180  51.067  48.049  1.00  0.00     0.070 C 
HETATM    2  C   UNL     1      21.826  50.566  48.490  1.00  0.00     0.037 C 
HETATM    3  N   UNL     1      20.877  51.552  48.748  1.00  0.00    -0.191 N 
HETATM    4  C   UNL     1      19.697  51.293  49.348  1.00  0.00     0.735 A 
HETATM    5  N   UNL     1      19.351  49.999  49.613  1.00  0.00    -0.092 N 
HETATM    6  N   UNL     1      18.183  49.956  50.273  1.00  0.00     0.012 NA
HETATM    7  N   UNL     1      17.805  51.228  50.363  1.00  0.00     0.033 NA
HETATM    8  N   UNL     1      18.740  52.072  49.792  1.00  0.00     0.030 NA
HETATM    9  C   UNL     1      20.165  48.834  49.275  1.00  0.00     0.199 C 
HETATM   10  C   UNL     1      21.514  49.264  48.704  1.00  0.00     0.062 C 
HETATM   11  H   UNL     1      21.168  52.523  48.653  1.00  0.00     0.184 HD
ENDROOT
BRANCH  10  12
HETATM   12  C   UNL     1      22.465  48.134  48.516  1.00  0.00     0.256 C 
HETATM   13  N   UNL     1      23.214  47.859  49.638  1.00  0.00    -0.323 N 
HETATM   14  H   UNL     1      23.051  48.431  50.457  1.00  0.00     0.169 HD
HETATM   15  O   UNL     1      22.538  47.615  47.411  1.00  0.00    -0.267 OA
BRANCH  13  16
HETATM   16  C   UNL     1      24.205  46.865  49.781  1.00  0.00     0.035 A 
HETATM   17  C   UNL     1      23.932  45.501  49.894  1.00  0.00     0.029 A 
HETATM   18  C   UNL     1      24.975  44.579  50.036  1.00  0.00     0.002 A 
HETATM   19  C   UNL     1      26.296  45.014  50.074  1.00  0.00     0.000 A 
HETATM   20  C   UNL     1      26.580  46.372  49.964  1.00  0.00     0.002 A 
HETATM   21  C   UNL     1      25.539  47.293  49.814  1.00  0.00     0.029 A 
ENDBRANCH  13  16
ENDBRANCH  10  12
BRANCH   9  22
HETATM   22  C   UNL     1      19.409  47.916  48.331  1.00  0.00    -0.011 A 
HETATM   23  C   UNL     1      19.087  46.621  48.731  1.00  0.00     0.125 A 
HETATM   24  N   UNL     1      18.430  45.728  47.957  1.00  0.00    -0.272 NA
HETATM   25  C   UNL     1      18.072  46.137  46.723  1.00  0.00     0.116 A 
HETATM   26  C   UNL     1      18.350  47.396  46.220  1.00  0.00     0.020 A 
HETATM   27  C   UNL     1      19.033  48.295  47.035  1.00  0.00     0.012 A 
ENDBRANCH   9  22
TORSDOF 3
ENDMDL
MODEL 5
REMARK VINA RESULT:      -7.7      2.354      4.688
REMARK  3 active torsions:
REMARK  status: ('A' for Active; 'I' for Inactive)
REMARK    1  A    between atoms: C_9  and  C_10 
REMARK    2  A    between atoms: C_16  and  C_17 
REMARK       I    between atoms: C_17  and  N_18 
REMARK    3  A    between atoms: N_18  and  C_19 
ROOT
HETATM    1  C   UNL     1      28.673  40.058  52.958  1.00  0.00     0.070 C 
HETATM    2  C   UNL     1      27.904  41.139  52.239  1.00  0.00     0.037 C 
HETATM    3  N   UNL     1      26.868  40.695  51.421  1.00  0.00    -0.191 N 
HETATM    4  C   UNL     1      26.224  41.502  50.553  1.00  0.00     0.735 A 
HETATM    5  N   UNL     1      26.506  42.838  50.546  1.00  0.00    -0.092 N 
HETATM    6  N   UNL     1      25.821  43.453  49.569  1.00  0.00     0.012 NA
HETATM    7  N   UNL     1      25.091  42.487  49.017  1.00  0.00     0.033 NA
HETATM    8  N   UNL     1      25.333  41.267  49.620  1.00  0.00     0.030 NA
HETATM    9  C   UNL     1      27.459  43.492  51.438  1.00  0.00     0.199 C 
HETATM   10  C   UNL     1      28.196  42.462  52.292  1.00  0.00     0.062 C 
HETATM   11  H   UNL     1      26.726  39.690  51.344  1.00  0.00     0.184 HD
ENDROOT
BRANCH  10  12
HETATM   12  C   UNL     1      29.314  43.041  53.086  1.00  0.00     0.256 C 
HETATM   13  N   UNL     1      28.998  43.235  54.411  1.00  0.00    -0.323 N 
HETATM   14  H   UNL     1      28.068  42.972  54.711  1.00  0.00     0.169 HD
HETATM   15  O   UNL     1      30.347  43.340  52.502  1.00  0.00    -0.267 OA
BRANCH  13  16
HETATM   16  C   UNL     1      29.828  43.774  55.418  1.00  0.00     0.035 A 
HETATM   17  C   UNL     1      30.862  43.069  56.038  1.00  0.00     0.029 A 
HETATM   18  C   UNL     1      31.637  43.677  57.030  1.00  0.00     0.002 A 
HETATM   19  C   UNL     1      31.382  44.990  57.416  1.00  0.00     0.000 A 
HETATM   20  C   UNL     1      30.353  45.702  56.805  1.00  0.00     0.002 A 
HETATM   21  C   UNL     1      29.583  45.097  55.808  1.00  0.00     0.029 A 
ENDBRANCH  13  16
ENDBRANCH  10  12
BRANCH   9  22
HETATM   22  C   UNL     1      26.759  44.542  52.283  1.00  0.00    -0.011 A 
HETATM   23  C   UNL     1      25.938  44.149  53.338  1.00  0.00     0.125 A 
HETATM   24  N   UNL     1      25.264  45.007  54.136  1.00  0.00    -0.272 NA
HETATM   25  C   UNL     1      25.408  46.324  53.877  1.00  0.00     0.116 A 
HETATM   26  C   UNL     1      26.189  46.822  52.849  1.00  0.00     0.020 A 
HETATM   27  C   UNL     1      26.869  45.917  52.038  1.00  0.00     0.012 A 
ENDBRANCH   9  22
TORSDOF 3
ENDMDL
MODEL 6
REMARK VINA RESULT:      -7.6      2.590      5.955
REMARK  3 active torsions:
REMARK  status: ('A' for Active; 'I' for Inactive)
REMARK    1  A    between atoms: C_9  and  C_10 
REMARK    2  A    between atoms: C_16  and  C_17 
REMARK       I    between atoms: C_17  and  N_18 
REMARK    3  A    between atoms: N_18  and  C_19 
ROOT
HETATM    1  C   UNL     1      25.840  46.394  54.356  1.00  0.00     0.070 C 
HETATM    2  C   UNL     1      26.720  45.407  53.629  1.00  0.00     0.037 C 
HETATM    3  N   UNL     1      27.634  44.719  54.423  1.00  0.00    -0.191 N 
HETATM    4  C   UNL     1      28.628  43.965  53.910  1.00  0.00     0.735 A 
HETATM    5  N   UNL     1      28.685  43.761  52.561  1.00  0.00    -0.092 N 
HETATM    6  N   UNL     1      29.779  43.052  52.243  1.00  0.00     0.012 NA
HETATM    7  N   UNL     1      30.357  42.791  53.413  1.00  0.00     0.033 NA
HETATM    8  N   UNL     1      29.650  43.356  54.459  1.00  0.00     0.030 NA
HETATM    9  C   UNL     1      27.721  44.288  51.598  1.00  0.00     0.199 C 
HETATM   10  C   UNL     1      26.715  45.208  52.287  1.00  0.00     0.062 C 
HETATM   11  H   UNL     1      27.665  44.950  55.414  1.00  0.00     0.184 HD
ENDROOT
BRANCH  10  12
HETATM   12  C   UNL     1      25.823  45.928  51.338  1.00  0.00     0.256 C 
HETATM   13  N   UNL     1      26.390  47.068  50.815  1.00  0.00    -0.323 N 
HETATM   14  H   UNL     1      27.328  47.300  51.114  1.00  0.00     0.169 HD
HETATM   15  O   UNL     1      24.692  45.496  51.164  1.00  0.00    -0.267 OA
BRANCH  13  16
HETATM   16  C   UNL     1      25.804  47.973  49.904  1.00  0.00     0.035 A 
HETATM   17  C   UNL     1      24.430  48.078  49.682  1.00  0.00     0.029 A 
HETATM   18  C   UNL     1      23.930  49.001  48.757  1.00  0.00     0.002 A 
HETATM   19  C   UNL     1      24.800  49.819  48.042  1.00  0.00     0.000 A 
HETATM   20  C   UNL     1      26.171  49.722  48.254  1.00  0.00     0.002 A 
HETATM   21  C   UNL     1      26.671  48.805  49.184  1.00  0.00     0.029 A 
ENDBRANCH  13  16
ENDBRANCH  10  12
BRANCH   9  22
HETATM   22  C   UNL     1      27.042  43.153  50.853  1.00  0.00    -0.011 A 
HETATM   23  C   UNL     1      26.817  43.258  49.482  1.00  0.00     0.125 A 
HETATM   24  N   UNL     1      26.210  42.308  48.737  1.00  0.00    -0.272 NA
HETATM   25  C   UNL     1      25.803  41.194  49.380  1.00  0.00     0.116 A 
HETATM   26  C   UNL     1      25.965  40.991  50.739  1.00  0.00     0.020 A 
HETATM   27  C   UNL     1      26.589  41.987  51.486  1.00  0.00     0.012 A 
ENDBRANCH   9  22
TORSDOF 3
ENDMDL
MODEL 7
REMARK VINA RESULT:      -7.5      2.334      5.892
REMARK  3 active torsions:
REMARK  status: ('A' for Active; 'I' for Inactive)
REMARK    1  A    between atoms: C_9  and  C_10 
REMARK    2  A    between atoms: C_16  and  C_17 
REMARK       I    between atoms: C_17  and  N_18 
REMARK    3  A    between atoms: N_18  and  C_19 
ROOT
HETATM    1  C   UNL     1      29.928  44.042  54.797  1.00  0.00     0.070 C 
HETATM    2  C   UNL     1      28.696  44.874  54.541  1.00  0.00     0.037 C 
HETATM    3  N   UNL     1      28.745  46.182  55.016  1.00  0.00    -0.191 N 
HETATM    4  C   UNL     1      27.664  46.987  55.060  1.00  0.00     0.735 A 
HETATM    5  N   UNL     1      26.488  46.559  54.510  1.00  0.00    -0.092 N 
HETATM    6  N   UNL     1      25.521  47.465  54.719  1.00  0.00     0.012 NA
HETATM    7  N   UNL     1      26.129  48.461  55.356  1.00  0.00     0.033 NA
HETATM    8  N   UNL     1      27.465  48.175  55.576  1.00  0.00     0.030 NA
HETATM    9  C   UNL     1      26.302  45.274  53.841  1.00  0.00     0.199 C 
HETATM   10  C   UNL     1      27.561  44.417  53.954  1.00  0.00     0.062 C 
HETATM   11  H   UNL     1      29.581  46.469  55.521  1.00  0.00     0.184 HD
ENDROOT
BRANCH  10  12
HETATM   12  C   UNL     1      27.377  43.025  53.461  1.00  0.00     0.256 C 
HETATM   13  N   UNL     1      27.585  42.894  52.107  1.00  0.00    -0.323 N 
HETATM   14  H   UNL     1      27.836  43.728  51.593  1.00  0.00     0.169 HD
HETATM   15  O   UNL     1      27.011  42.171  54.257  1.00  0.00    -0.267 OA
BRANCH  13  16
HETATM   16  C   UNL     1      27.477  41.717  51.336  1.00  0.00     0.035 A 
HETATM   17  C   UNL     1      28.523  40.812  51.142  1.00  0.00     0.029 A 
HETATM   18  C   UNL     1      28.333  39.668  50.360  1.00  0.00     0.002 A 
HETATM   19  C   UNL     1      27.102  39.424  49.758  1.00  0.00     0.000 A 
HETATM   20  C   UNL     1      26.053  40.320  49.943  1.00  0.00     0.002 A 
HETATM   21  C   UNL     1      26.239  41.459  50.732  1.00  0.00     0.029 A 
ENDBRANCH  13  16
ENDBRANCH  10  12
BRANCH   9  22
HETATM   22  C   UNL     1      25.880  45.485  52.398  1.00  0.00    -0.011 A 
HETATM   23  C   UNL     1      24.709  44.897  51.923  1.00  0.00     0.125 A 
HETATM   24  N   UNL     1      24.260  45.016  50.654  1.00  0.00    -0.272 NA
HETATM   25  C   UNL     1      25.007  45.755  49.808  1.00  0.00     0.116 A 
HETATM   26  C   UNL     1      26.190  46.374  50.171  1.00  0.00     0.020 A 
HETATM   27  C   UNL     1      26.635  46.232  51.483  1.00  0.00     0.012 A 
ENDBRANCH   9  22
TORSDOF 3
ENDMDL
MODEL 8
REMARK VINA RESULT:      -7.3      2.416      6.406
REMARK  3 active torsions:
REMARK  status: ('A' for Active; 'I' for Inactive)
REMARK    1  A    between atoms: C_9  and  C_10 
REMARK    2  A    between atoms: C_16  and  C_17 
REMARK       I    between atoms: C_17  and  N_18 
REMARK    3  A    between atoms: N_18  and  C_19 
ROOT
HETATM    1  C   UNL     1      28.146  43.236  53.523  1.00  0.00     0.070 C 
HETATM    2  C   UNL     1      27.408  44.552  53.494  1.00  0.00     0.037 C 
HETATM    3  N   UNL     1      27.850  45.508  54.404  1.00  0.00    -0.191 N 
HETATM    4  C   UNL     1      27.174  46.648  54.655  1.00  0.00     0.735 A 
HETATM    5  N   UNL     1      26.069  46.949  53.910  1.00  0.00    -0.092 N 
HETATM    6  N   UNL     1      25.499  48.078  54.358  1.00  0.00     0.012 NA
HETATM    7  N   UNL     1      26.291  48.480  55.348  1.00  0.00     0.033 NA
HETATM    8  N   UNL     1      27.338  47.597  55.544  1.00  0.00     0.030 NA
HETATM    9  C   UNL     1      25.553  46.128  52.818  1.00  0.00     0.199 C 
HETATM   10  C   UNL     1      26.336  44.821  52.707  1.00  0.00     0.062 C 
HETATM   11  H   UNL     1      28.605  45.246  55.034  1.00  0.00     0.184 HD
ENDROOT
BRANCH  10  12
HETATM   12  C   UNL     1      25.744  43.856  51.741  1.00  0.00     0.256 C 
HETATM   13  N   UNL     1      26.539  43.628  50.640  1.00  0.00    -0.323 N 
HETATM   14  H   UNL     1      27.421  44.121  50.595  1.00  0.00     0.169 HD
HETATM   15  O   UNL     1      24.625  43.418  51.970  1.00  0.00    -0.267 OA
BRANCH  13  16
HETATM   16  C   UNL     1      26.260  42.783  49.545  1.00  0.00     0.035 A 
HETATM   17  C   UNL     1      27.160  41.846  49.034  1.00  0.00     0.029 A 
HETATM   18  C   UNL     1      26.805  41.047  47.941  1.00  0.00     0.002 A 
HETATM   19  C   UNL     1      25.554  41.184  47.348  1.00  0.00     0.000 A 
HETATM   20  C   UNL     1      24.650  42.116  47.849  1.00  0.00     0.002 A 
HETATM   21  C   UNL     1      25.000  42.909  48.945  1.00  0.00     0.029 A 
ENDBRANCH  13  16
ENDBRANCH  10  12
BRANCH   9  22
HETATM   22  C   UNL     1      25.558  46.911  51.518  1.00  0.00    -0.011 A 
HETATM   23  C   UNL     1      24.392  47.012  50.762  1.00  0.00     0.125 A 
HETATM   24  N   UNL     1      24.302  47.674  49.588  1.00  0.00    -0.272 NA
HETATM   25  C   UNL     1      25.425  48.270  49.135  1.00  0.00     0.116 A 
HETATM   26  C   UNL     1      26.638  48.225  49.799  1.00  0.00     0.020 A 
HETATM   27  C   UNL     1      26.706  47.531  51.004  1.00  0.00     0.012 A 
ENDBRANCH   9  22
TORSDOF 3
ENDMDL
MODEL 9
REMARK VINA RESULT:      -7.2      2.068      5.259
REMARK  3 active torsions:
REMARK  status: ('A' for Active; 'I' for Inactive)
REMARK    1  A    between atoms: C_9  and  C_10 
REMARK    2  A    between atoms: C_16  and  C_17 
REMARK       I    between atoms: C_17  and  N_18 
REMARK    3  A    between atoms: N_18  and  C_19 
ROOT
HETATM    1  C   UNL     1      22.994  43.280  48.209  1.00  0.00     0.070 C 
HETATM    2  C   UNL     1      23.882  44.183  49.028  1.00  0.00     0.037 C 
HETATM    3  N   UNL     1      23.497  45.521  49.075  1.00  0.00    -0.191 N 
HETATM    4  C   UNL     1      24.285  46.492  49.580  1.00  0.00     0.735 A 
HETATM    5  N   UNL     1      25.463  46.152  50.183  1.00  0.00    -0.092 N 
HETATM    6  N   UNL     1      26.132  47.256  50.552  1.00  0.00     0.012 NA
HETATM    7  N   UNL     1      25.330  48.260  50.210  1.00  0.00     0.033 NA
HETATM    8  N   UNL     1      24.177  47.798  49.602  1.00  0.00     0.030 NA
HETATM    9  C   UNL     1      25.948  44.785  50.351  1.00  0.00     0.199 C 
HETATM   10  C   UNL     1      25.026  43.793  49.644  1.00  0.00     0.062 C 
HETATM   11  H   UNL     1      22.678  45.795  48.537  1.00  0.00     0.184 HD
ENDROOT
BRANCH  10  12
HETATM   12  C   UNL     1      25.561  42.405  49.613  1.00  0.00     0.256 C 
HETATM   13  N   UNL     1      26.592  42.238  48.717  1.00  0.00    -0.323 N 
HETATM   14  H   UNL     1      26.881  43.049  48.184  1.00  0.00     0.169 HD
HETATM   15  O   UNL     1      25.018  41.558  50.308  1.00  0.00    -0.267 OA
BRANCH  13  16
HETATM   16  C   UNL     1      27.302  41.049  48.441  1.00  0.00     0.035 A 
HETATM   17  C   UNL     1      27.239  40.367  47.225  1.00  0.00     0.029 A 
HETATM   18  C   UNL     1      27.972  39.191  47.034  1.00  0.00     0.002 A 
HETATM   19  C   UNL     1      28.767  38.685  48.059  1.00  0.00     0.000 A 
HETATM   20  C   UNL     1      28.837  39.357  49.276  1.00  0.00     0.002 A 
HETATM   21  C   UNL     1      28.110  40.536  49.464  1.00  0.00     0.029 A 
ENDBRANCH  13  16
ENDBRANCH  10  12
BRANCH   9  22
HETATM   22  C   UNL     1      26.118  44.460  51.824  1.00  0.00    -0.011 A 
HETATM   23  C   UNL     1      25.018  44.511  52.678  1.00  0.00     0.125 A 
HETATM   24  N   UNL     1      25.073  44.252  54.003  1.00  0.00    -0.272 NA
HETATM   25  C   UNL     1      26.279  43.926  54.512  1.00  0.00     0.116 A 
HETATM   26  C   UNL     1      27.437  43.856  53.758  1.00  0.00     0.020 A 
HETATM   27  C   UNL     1      27.355  44.132  52.396  1.00  0.00     0.012 A 
ENDBRANCH   9  22
TORSDOF 3
ENDMDL
MODEL 10
REMARK VINA RESULT:      -7.2     11.464     13.366
REMARK  3 active torsions:
REMARK  status: ('A' for Active; 'I' for Inactive)
REMARK    1  A    between atoms: C_9  and  C_10 
REMARK    2  A    between atoms: C_16  and  C_17 
REMARK       I    between atoms: C_17  and  N_18 
REMARK    3  A    between atoms: N_18  and  C_19 
ROOT
HETATM    1  C   UNL     1      25.057  48.955  39.325  1.00  0.00     0.070 C 
HETATM    2  C   UNL     1      26.492  49.351  39.080  1.00  0.00     0.037 C 
HETATM    3  N   UNL     1      26.704  50.701  38.813  1.00  0.00    -0.191 N 
HETATM    4  C   UNL     1      27.883  51.183  38.368  1.00  0.00     0.735 A 
HETATM    5  N   UNL     1      28.959  50.345  38.282  1.00  0.00    -0.092 N 
HETATM    6  N   UNL     1      30.009  50.991  37.752  1.00  0.00     0.012 NA
HETATM    7  N   UNL     1      29.574  52.234  37.562  1.00  0.00     0.033 NA
HETATM    8  N   UNL     1      28.251  52.366  37.941  1.00  0.00     0.030 NA
HETATM    9  C   UNL     1      28.948  48.935  38.660  1.00  0.00     0.199 C 
HETATM   10  C   UNL     1      27.538  48.488  39.042  1.00  0.00     0.062 C 
HETATM   11  H   UNL     1      25.888  51.308  38.772  1.00  0.00     0.184 HD
ENDROOT
BRANCH  10  12
HETATM   12  C   UNL     1      27.419  47.020  39.254  1.00  0.00     0.256 C 
HETATM   13  N   UNL     1      27.170  46.677  40.564  1.00  0.00    -0.323 N 
HETATM   14  H   UNL     1      27.091  47.430  41.234  1.00  0.00     0.169 HD
HETATM   15  O   UNL     1      27.608  46.278  38.300  1.00  0.00    -0.267 OA
BRANCH  13  16
HETATM   16  C   UNL     1      27.017  45.377  41.092  1.00  0.00     0.035 A 
HETATM   17  C   UNL     1      27.672  44.250  40.595  1.00  0.00     0.029 A 
HETATM   18  C   UNL     1      27.463  42.995  41.176  1.00  0.00     0.002 A 
HETATM   19  C   UNL     1      26.592  42.856  42.253  1.00  0.00     0.000 A 
HETATM   20  C   UNL     1      25.932  43.973  42.756  1.00  0.00     0.002 A 
HETATM   21  C   UNL     1      26.147  45.228  42.181  1.00  0.00     0.029 A 
ENDBRANCH  13  16
ENDBRANCH  10  12
BRANCH   9  22
HETATM   22  C   UNL     1      29.951  48.677  39.771  1.00  0.00    -0.011 A 
HETATM   23  C   UNL     1      31.050  47.853  39.536  1.00  0.00     0.125 A 
HETATM   24  N   UNL     1      31.986  47.554  40.464  1.00  0.00    -0.272 NA
HETATM   25  C   UNL     1      31.829  48.098  41.688  1.00  0.00     0.116 A 
HETATM   26  C   UNL     1      30.770  48.920  42.032  1.00  0.00     0.020 A 
HETATM   27  C   UNL     1      29.816  49.209  41.060  1.00  0.00     0.012 A 
ENDBRANCH   9  22
TORSDOF 3
ENDMDL
