MODEL 1
REMARK VINA RESULT:      -8.6      0.000      0.000
REMARK  4 active torsions:
REMARK  status: ('A' for Active; 'I' for Inactive)
REMARK    1  A    between atoms: C_2  and  N_3 
REMARK    2  A    between atoms: N_7  and  C_8 
REMARK    3  A    between atoms: C_11  and  N_12 
REMARK    4  A    between atoms: C_13  and  C_14 
ROOT
HETATM    1  C   UNL     1      24.187  47.749  49.215  1.00  0.00     0.030 A 
HETATM    2  C   UNL     1      25.439  48.235  49.612  1.00  0.00     0.031 A 
HETATM    3  C   UNL     1      26.321  47.451  50.372  1.00  0.00     0.034 A 
HETATM    4  C   UNL     1      25.988  46.153  50.752  1.00  0.00     0.056 A 
HETATM    5  C   UNL     1      24.753  45.647  50.348  1.00  0.00     0.034 A 
HETATM    6  C   UNL     1      23.866  46.438  49.604  1.00  0.00     0.031 A 
ENDROOT
BRANCH   4   7
HETATM    7  N   UNL     1      26.954  45.393  51.422  1.00  0.00    -0.260 NA
HETATM    8  C   UNL     1      26.606  44.698  52.455  1.00  0.00     0.131 C 
BRANCH   8   9
HETATM    9  C   UNL     1      27.595  43.880  53.126  1.00  0.00     0.009 A 
HETATM   10  C   UNL     1      28.519  44.287  54.142  1.00  0.00     0.004 A 
HETATM   11  C   UNL     1      29.264  43.162  54.504  1.00  0.00     0.043 A 
HETATM   12  C   UNL     1      28.787  45.505  54.804  1.00  0.00     0.014 A 
HETATM   13  C   UNL     1      30.260  43.193  55.488  1.00  0.00     0.030 A 
HETATM   14  N   UNL     1      28.817  42.114  53.735  1.00  0.00    -0.364 N 
HETATM   15  C   UNL     1      30.501  44.411  56.127  1.00  0.00     0.002 A 
HETATM   16  C   UNL     1      29.777  45.553  55.791  1.00  0.00     0.001 A 
HETATM   17  H   UNL     1      29.176  41.170  53.785  1.00  0.00     0.165 HD
HETATM   18  C   UNL     1      27.813  42.532  52.906  1.00  0.00     0.102 A 
ENDBRANCH   8   9
ENDBRANCH   4   7
BRANCH   1  19
HETATM   19  N   UNL     1      23.303  48.474  48.423  1.00  0.00    -0.378 N 
HETATM   20  C   UNL     1      23.509  49.909  48.179  1.00  0.00     0.150 C 
HETATM   21  C   UNL     1      22.607  50.772  49.083  1.00  0.00     0.254 C 
HETATM   22  N   UNL     1      21.140  50.346  48.941  1.00  0.00    -0.068 N 
HETATM   23  H   UNL     1      20.886  50.455  47.951  1.00  0.00     0.280 HD
HETATM   24  C   UNL     1      20.998  48.849  49.263  1.00  0.00     0.254 C 
HETATM   25  C   UNL     1      21.908  48.007  48.342  1.00  0.00     0.150 C 
BRANCH  22  26
HETATM   26  C   UNL     1      20.189  51.179  49.765  1.00  0.00     0.230 C 
HETATM   27  C   UNL     1      19.363  52.090  48.878  1.00  0.00     0.034 C 
ENDBRANCH  22  26
ENDBRANCH   1  19
TORSDOF 4
ENDMDL
MODEL 2
REMARK VINA RESULT:      -8.3      2.358      2.944
REMARK  4 active torsions:
REMARK  status: ('A' for Active; 'I' for Inactive)
REMARK    1  A    between atoms: C_2  and  N_3 
REMARK    2  A    between atoms: N_7  and  C_8 
REMARK    3  A    between atoms: C_11  and  N_12 
REMARK    4  A    between atoms: C_13  and  C_14 
ROOT
HETATM    1  C   UNL     1      23.517  46.048  49.521  1.00  0.00     0.030 A 
HETATM    2  C   UNL     1      24.139  47.266  49.825  1.00  0.00     0.031 A 
HETATM    3  C   UNL     1      25.027  47.385  50.905  1.00  0.00     0.034 A 
HETATM    4  C   UNL     1      25.331  46.292  51.713  1.00  0.00     0.056 A 
HETATM    5  C   UNL     1      24.735  45.068  51.413  1.00  0.00     0.034 A 
HETATM    6  C   UNL     1      23.835  44.955  50.344  1.00  0.00     0.031 A 
ENDROOT
BRANCH   4   7
HETATM    7  N   UNL     1      26.299  46.457  52.710  1.00  0.00    -0.260 NA
HETATM    8  C   UNL     1      26.622  45.448  53.450  1.00  0.00     0.131 C 
BRANCH   8   9
HETATM    9  C   UNL     1      27.653  45.607  54.456  1.00  0.00     0.009 A 
HETATM   10  C   UNL     1      28.739  44.717  54.739  1.00  0.00     0.004 A 
HETATM   11  C   UNL     1      29.485  45.286  55.774  1.00  0.00     0.043 A 
HETATM   12  C   UNL     1      29.171  43.484  54.205  1.00  0.00     0.014 A 
HETATM   13  C   UNL     1      30.636  44.686  56.301  1.00  0.00     0.030 A 
HETATM   14  N   UNL     1      28.874  46.470  56.112  1.00  0.00    -0.364 N 
HETATM   15  C   UNL     1      31.041  43.468  55.751  1.00  0.00     0.002 A 
HETATM   16  C   UNL     1      30.321  42.873  54.718  1.00  0.00     0.001 A 
HETATM   17  H   UNL     1      29.201  47.099  56.833  1.00  0.00     0.165 HD
HETATM   18  C   UNL     1      27.775  46.675  55.325  1.00  0.00     0.102 A 
ENDBRANCH   8   9
ENDBRANCH   4   7
BRANCH   1  19
HETATM   19  N   UNL     1      22.668  45.875  48.433  1.00  0.00    -0.378 N 
HETATM   20  C   UNL     1      22.242  47.020  47.616  1.00  0.00     0.150 C 
HETATM   21  C   UNL     1      20.824  47.491  47.997  1.00  0.00     0.254 C 
HETATM   22  N   UNL     1      19.838  46.317  47.942  1.00  0.00    -0.068 N 
HETATM   23  H   UNL     1      19.861  45.945  46.984  1.00  0.00     0.280 HD
HETATM   24  C   UNL     1      20.324  45.183  48.859  1.00  0.00     0.254 C 
HETATM   25  C   UNL     1      21.743  44.728  48.456  1.00  0.00     0.150 C 
BRANCH  22  26
HETATM   26  C   UNL     1      18.416  46.710  48.260  1.00  0.00     0.230 C 
HETATM   27  C   UNL     1      18.380  47.777  49.338  1.00  0.00     0.034 C 
ENDBRANCH  22  26
ENDBRANCH   1  19
TORSDOF 4
ENDMDL
MODEL 3
REMARK VINA RESULT:      -8.2      5.538      7.923
REMARK  4 active torsions:
REMARK  status: ('A' for Active; 'I' for Inactive)
REMARK    1  A    between atoms: C_2  and  N_3 
REMARK    2  A    between atoms: N_7  and  C_8 
REMARK    3  A    between atoms: C_11  and  N_12 
REMARK    4  A    between atoms: C_13  and  C_14 
ROOT
HETATM    1  C   UNL     1      26.981  41.800  49.391  1.00  0.00     0.030 A 
HETATM    2  C   UNL     1      26.867  43.183  49.582  1.00  0.00     0.031 A 
HETATM    3  C   UNL     1      27.010  43.760  50.853  1.00  0.00     0.034 A 
HETATM    4  C   UNL     1      27.281  42.979  51.974  1.00  0.00     0.056 A 
HETATM    5  C   UNL     1      27.416  41.603  51.798  1.00  0.00     0.034 A 
HETATM    6  C   UNL     1      27.256  41.026  50.530  1.00  0.00     0.031 A 
ENDROOT
BRANCH   4   7
HETATM    7  N   UNL     1      27.510  43.630  53.192  1.00  0.00    -0.260 NA
HETATM    8  C   UNL     1      28.690  44.089  53.450  1.00  0.00     0.131 C 
BRANCH   8   9
HETATM    9  C   UNL     1      28.919  44.797  54.694  1.00  0.00     0.009 A 
HETATM   10  C   UNL     1      29.876  44.483  55.712  1.00  0.00     0.004 A 
HETATM   11  C   UNL     1      29.750  45.448  56.715  1.00  0.00     0.043 A 
HETATM   12  C   UNL     1      30.851  43.475  55.875  1.00  0.00     0.014 A 
HETATM   13  C   UNL     1      30.545  45.455  57.867  1.00  0.00     0.030 A 
HETATM   14  N   UNL     1      28.753  46.310  56.325  1.00  0.00    -0.364 N 
HETATM   15  C   UNL     1      31.503  44.447  58.001  1.00  0.00     0.002 A 
HETATM   16  C   UNL     1      31.656  43.470  57.020  1.00  0.00     0.001 A 
HETATM   17  H   UNL     1      28.447  47.113  56.860  1.00  0.00     0.165 HD
HETATM   18  C   UNL     1      28.249  45.932  55.112  1.00  0.00     0.102 A 
ENDBRANCH   8   9
ENDBRANCH   4   7
BRANCH   1  19
HETATM   19  N   UNL     1      26.893  41.191  48.143  1.00  0.00    -0.378 N 
HETATM   20  C   UNL     1      25.703  40.417  47.761  1.00  0.00     0.150 C 
HETATM   21  C   UNL     1      25.941  38.902  47.916  1.00  0.00     0.254 C 
HETATM   22  N   UNL     1      27.202  38.476  47.153  1.00  0.00    -0.068 N 
HETATM   23  H   UNL     1      27.061  38.731  46.166  1.00  0.00     0.280 HD
HETATM   24  C   UNL     1      28.409  39.292  47.643  1.00  0.00     0.254 C 
HETATM   25  C   UNL     1      28.148  40.804  47.475  1.00  0.00     0.150 C 
BRANCH  22  26
HETATM   26  C   UNL     1      27.475  36.994  47.220  1.00  0.00     0.230 C 
HETATM   27  C   UNL     1      26.316  36.262  47.871  1.00  0.00     0.034 C 
ENDBRANCH  22  26
ENDBRANCH   1  19
TORSDOF 4
ENDMDL
MODEL 4
REMARK VINA RESULT:      -8.1      6.214      8.493
REMARK  4 active torsions:
REMARK  status: ('A' for Active; 'I' for Inactive)
REMARK    1  A    between atoms: C_2  and  N_3 
REMARK    2  A    between atoms: N_7  and  C_8 
REMARK    3  A    between atoms: C_11  and  N_12 
REMARK    4  A    between atoms: C_13  and  C_14 
ROOT
HETATM    1  C   UNL     1      27.041  39.904  49.922  1.00  0.00     0.030 A 
HETATM    2  C   UNL     1      28.213  40.013  50.681  1.00  0.00     0.031 A 
HETATM    3  C   UNL     1      28.398  41.062  51.595  1.00  0.00     0.034 A 
HETATM    4  C   UNL     1      27.416  42.032  51.789  1.00  0.00     0.056 A 
HETATM    5  C   UNL     1      26.236  41.927  51.054  1.00  0.00     0.034 A 
HETATM    6  C   UNL     1      26.060  40.888  50.129  1.00  0.00     0.031 A 
ENDROOT
BRANCH   4   7
HETATM    7  N   UNL     1      27.624  42.991  52.786  1.00  0.00    -0.260 NA
HETATM    8  C   UNL     1      28.778  43.060  53.365  1.00  0.00     0.131 C 
BRANCH   8   9
HETATM    9  C   UNL     1      29.007  44.079  54.370  1.00  0.00     0.009 A 
HETATM   10  C   UNL     1      29.911  44.020  55.480  1.00  0.00     0.004 A 
HETATM   11  C   UNL     1      29.809  45.233  56.165  1.00  0.00     0.043 A 
HETATM   12  C   UNL     1      30.820  43.055  55.964  1.00  0.00     0.014 A 
HETATM   13  C   UNL     1      30.566  45.528  57.306  1.00  0.00     0.030 A 
HETATM   14  N   UNL     1      28.877  45.996  55.504  1.00  0.00    -0.364 N 
HETATM   15  C   UNL     1      31.459  44.555  57.761  1.00  0.00     0.002 A 
HETATM   16  C   UNL     1      31.586  43.335  57.102  1.00  0.00     0.001 A 
HETATM   17  H   UNL     1      28.601  46.930  55.777  1.00  0.00     0.165 HD
HETATM   18  C   UNL     1      28.391  45.315  54.422  1.00  0.00     0.102 A 
ENDBRANCH   8   9
ENDBRANCH   4   7
BRANCH   1  19
HETATM   19  N   UNL     1      26.797  38.856  49.040  1.00  0.00    -0.378 N 
HETATM   20  C   UNL     1      27.718  37.714  48.950  1.00  0.00     0.150 C 
HETATM   21  C   UNL     1      28.659  37.840  47.736  1.00  0.00     0.254 C 
HETATM   22  N   UNL     1      27.850  38.059  46.451  1.00  0.00    -0.068 N 
HETATM   23  H   UNL     1      27.219  37.255  46.349  1.00  0.00     0.280 HD
HETATM   24  C   UNL     1      26.953  39.298  46.604  1.00  0.00     0.254 C 
HETATM   25  C   UNL     1      26.018  39.146  47.823  1.00  0.00     0.150 C 
BRANCH  22  26
HETATM   26  C   UNL     1      28.704  38.148  45.210  1.00  0.00     0.230 C 
HETATM   27  C   UNL     1      27.970  38.879  44.102  1.00  0.00     0.034 C 
ENDBRANCH  22  26
ENDBRANCH   1  19
TORSDOF 4
ENDMDL
MODEL 5
REMARK VINA RESULT:      -7.9      1.389      1.940
REMARK  4 active torsions:
REMARK  status: ('A' for Active; 'I' for Inactive)
REMARK    1  A    between atoms: C_2  and  N_3 
REMARK    2  A    between atoms: N_7  and  C_8 
REMARK    3  A    between atoms: C_11  and  N_12 
REMARK    4  A    between atoms: C_13  and  C_14 
ROOT
HETATM    1  C   UNL     1      22.455  47.421  48.699  1.00  0.00     0.030 A 
HETATM    2  C   UNL     1      22.706  46.043  48.674  1.00  0.00     0.031 A 
HETATM    3  C   UNL     1      23.846  45.496  49.283  1.00  0.00     0.034 A 
HETATM    4  C   UNL     1      24.768  46.302  49.945  1.00  0.00     0.056 A 
HETATM    5  C   UNL     1      24.524  47.674  49.995  1.00  0.00     0.034 A 
HETATM    6  C   UNL     1      23.393  48.221  49.371  1.00  0.00     0.031 A 
ENDROOT
BRANCH   4   7
HETATM    7  N   UNL     1      25.828  45.681  50.615  1.00  0.00    -0.260 NA
HETATM    8  C   UNL     1      25.829  45.653  51.907  1.00  0.00     0.131 C 
BRANCH   8   9
HETATM    9  C   UNL     1      26.905  44.975  52.602  1.00  0.00     0.009 A 
HETATM   10  C   UNL     1      27.589  45.408  53.784  1.00  0.00     0.004 A 
HETATM   11  C   UNL     1      28.535  44.431  54.100  1.00  0.00     0.043 A 
HETATM   12  C   UNL     1      27.486  46.536  54.628  1.00  0.00     0.014 A 
HETATM   13  C   UNL     1      29.382  44.524  55.212  1.00  0.00     0.030 A 
HETATM   14  N   UNL     1      28.437  43.446  53.146  1.00  0.00    -0.364 N 
HETATM   15  C   UNL     1      29.256  45.648  56.030  1.00  0.00     0.002 A 
HETATM   16  C   UNL     1      28.323  46.641  55.745  1.00  0.00     0.001 A 
HETATM   17  H   UNL     1      29.003  42.608  53.126  1.00  0.00     0.165 HD
HETATM   18  C   UNL     1      27.459  43.760  52.243  1.00  0.00     0.102 A 
ENDBRANCH   8   9
ENDBRANCH   4   7
BRANCH   1  19
HETATM   19  N   UNL     1      21.316  48.000  48.149  1.00  0.00    -0.378 N 
HETATM   20  C   UNL     1      21.303  49.414  47.751  1.00  0.00     0.150 C 
HETATM   21  C   UNL     1      20.616  50.295  48.814  1.00  0.00     0.254 C 
HETATM   22  N   UNL     1      19.219  49.753  49.138  1.00  0.00    -0.068 N 
HETATM   23  H   UNL     1      18.684  49.745  48.259  1.00  0.00     0.280 HD
HETATM   24  C   UNL     1      19.320  48.288  49.595  1.00  0.00     0.254 C 
HETATM   25  C   UNL     1      20.008  47.427  48.514  1.00  0.00     0.150 C 
BRANCH  22  26
HETATM   26  C   UNL     1      18.465  50.592  50.140  1.00  0.00     0.230 C 
HETATM   27  C   UNL     1      18.514  52.059  49.760  1.00  0.00     0.034 C 
ENDBRANCH  22  26
ENDBRANCH   1  19
TORSDOF 4
ENDMDL
MODEL 6
REMARK VINA RESULT:      -7.9      1.393      9.837
REMARK  4 active torsions:
REMARK  status: ('A' for Active; 'I' for Inactive)
REMARK    1  A    between atoms: C_2  and  N_3 
REMARK    2  A    between atoms: N_7  and  C_8 
REMARK    3  A    between atoms: C_11  and  N_12 
REMARK    4  A    between atoms: C_13  and  C_14 
ROOT
HETATM    1  C   UNL     1      26.125  44.668  52.145  1.00  0.00     0.030 A 
HETATM    2  C   UNL     1      26.419  45.954  52.617  1.00  0.00     0.031 A 
HETATM    3  C   UNL     1      25.865  47.097  52.019  1.00  0.00     0.034 A 
HETATM    4  C   UNL     1      24.993  46.995  50.939  1.00  0.00     0.056 A 
HETATM    5  C   UNL     1      24.675  45.722  50.469  1.00  0.00     0.034 A 
HETATM    6  C   UNL     1      25.242  44.582  51.056  1.00  0.00     0.031 A 
ENDROOT
BRANCH   4   7
HETATM    7  N   UNL     1      24.400  48.168  50.456  1.00  0.00    -0.260 NA
HETATM    8  C   UNL     1      23.651  48.110  49.404  1.00  0.00     0.131 C 
BRANCH   8   9
HETATM    9  C   UNL     1      23.005  49.316  48.927  1.00  0.00     0.009 A 
HETATM   10  C   UNL     1      21.628  49.683  49.071  1.00  0.00     0.004 A 
HETATM   11  C   UNL     1      21.465  50.934  48.472  1.00  0.00     0.043 A 
HETATM   12  C   UNL     1      20.500  49.075  49.666  1.00  0.00     0.014 A 
HETATM   13  C   UNL     1      20.236  51.606  48.437  1.00  0.00     0.030 A 
HETATM   14  N   UNL     1      22.691  51.311  47.978  1.00  0.00    -0.364 N 
HETATM   15  C   UNL     1      19.139  50.983  49.036  1.00  0.00     0.002 A 
HETATM   16  C   UNL     1      19.267  49.736  49.642  1.00  0.00     0.001 A 
HETATM   17  H   UNL     1      22.872  52.181  47.494  1.00  0.00     0.165 HD
HETATM   18  C   UNL     1      23.624  50.350  48.248  1.00  0.00     0.102 A 
ENDBRANCH   8   9
ENDBRANCH   4   7
BRANCH   1  19
HETATM   19  N   UNL     1      26.614  43.508  52.736  1.00  0.00    -0.378 N 
HETATM   20  C   UNL     1      26.687  43.376  54.198  1.00  0.00     0.150 C 
HETATM   21  C   UNL     1      28.116  43.633  54.718  1.00  0.00     0.254 C 
HETATM   22  N   UNL     1      29.122  42.736  53.986  1.00  0.00    -0.068 N 
HETATM   23  H   UNL     1      28.837  41.762  54.150  1.00  0.00     0.280 HD
HETATM   24  C   UNL     1      29.021  42.968  52.470  1.00  0.00     0.254 C 
HETATM   25  C   UNL     1      27.583  42.701  51.973  1.00  0.00     0.150 C 
BRANCH  22  26
HETATM   26  C   UNL     1      30.541  42.900  54.474  1.00  0.00     0.230 C 
HETATM   27  C   UNL     1      30.596  43.836  55.666  1.00  0.00     0.034 C 
ENDBRANCH  22  26
ENDBRANCH   1  19
TORSDOF 4
ENDMDL
MODEL 7
REMARK VINA RESULT:      -7.5     12.694     14.242
REMARK  4 active torsions:
REMARK  status: ('A' for Active; 'I' for Inactive)
REMARK    1  A    between atoms: C_2  and  N_3 
REMARK    2  A    between atoms: N_7  and  C_8 
REMARK    3  A    between atoms: C_11  and  N_12 
REMARK    4  A    between atoms: C_13  and  C_14 
ROOT
HETATM    1  C   UNL     1      32.442  49.815  42.254  1.00  0.00     0.030 A 
HETATM    2  C   UNL     1      32.156  50.714  43.290  1.00  0.00     0.031 A 
HETATM    3  C   UNL     1      33.133  51.586  43.794  1.00  0.00     0.034 A 
HETATM    4  C   UNL     1      34.425  51.598  43.276  1.00  0.00     0.056 A 
HETATM    5  C   UNL     1      34.722  50.723  42.232  1.00  0.00     0.034 A 
HETATM    6  C   UNL     1      33.750  49.841  41.741  1.00  0.00     0.031 A 
ENDROOT
BRANCH   4   7
HETATM    7  N   UNL     1      35.320  52.561  43.756  1.00  0.00    -0.260 NA
HETATM    8  C   UNL     1      36.482  52.676  43.202  1.00  0.00     0.131 C 
BRANCH   8   9
HETATM    9  C   UNL     1      37.395  53.698  43.672  1.00  0.00     0.009 A 
HETATM   10  C   UNL     1      38.005  53.794  44.965  1.00  0.00     0.004 A 
HETATM   11  C   UNL     1      38.820  54.929  44.958  1.00  0.00     0.043 A 
HETATM   12  C   UNL     1      37.954  53.016  46.142  1.00  0.00     0.014 A 
HETATM   13  C   UNL     1      39.582  55.324  46.064  1.00  0.00     0.030 A 
HETATM   14  N   UNL     1      38.705  55.504  43.714  1.00  0.00    -0.364 N 
HETATM   15  C   UNL     1      39.514  54.534  47.214  1.00  0.00     0.002 A 
HETATM   16  C   UNL     1      38.712  53.396  47.255  1.00  0.00     0.001 A 
HETATM   17  H   UNL     1      39.190  56.342  43.423  1.00  0.00     0.165 HD
HETATM   18  C   UNL     1      37.855  54.772  42.933  1.00  0.00     0.102 A 
ENDBRANCH   8   9
ENDBRANCH   4   7
BRANCH   1  19
HETATM   19  N   UNL     1      31.493  48.968  41.694  1.00  0.00    -0.378 N 
HETATM   20  C   UNL     1      31.716  48.342  40.383  1.00  0.00     0.150 C 
HETATM   21  C   UNL     1      30.964  49.090  39.263  1.00  0.00     0.254 C 
HETATM   22  N   UNL     1      29.477  49.226  39.616  1.00  0.00    -0.068 N 
HETATM   23  H   UNL     1      29.106  48.275  39.741  1.00  0.00     0.280 HD
HETATM   24  C   UNL     1      29.324  49.933  40.972  1.00  0.00     0.254 C 
HETATM   25  C   UNL     1      30.083  49.165  42.075  1.00  0.00     0.150 C 
BRANCH  22  26
HETATM   26  C   UNL     1      28.665  49.909  38.543  1.00  0.00     0.230 C 
HETATM   27  C   UNL     1      28.319  51.329  38.952  1.00  0.00     0.034 C 
ENDBRANCH  22  26
ENDBRANCH   1  19
TORSDOF 4
ENDMDL
MODEL 8
REMARK VINA RESULT:      -7.4     17.914     20.986
REMARK  4 active torsions:
REMARK  status: ('A' for Active; 'I' for Inactive)
REMARK    1  A    between atoms: C_2  and  N_3 
REMARK    2  A    between atoms: N_7  and  C_8 
REMARK    3  A    between atoms: C_11  and  N_12 
REMARK    4  A    between atoms: C_13  and  C_14 
ROOT
HETATM    1  C   UNL     1      39.821  42.526  63.430  1.00  0.00     0.030 A 
HETATM    2  C   UNL     1      40.652  42.092  64.470  1.00  0.00     0.031 A 
HETATM    3  C   UNL     1      40.834  40.727  64.741  1.00  0.00     0.034 A 
HETATM    4  C   UNL     1      40.202  39.750  63.977  1.00  0.00     0.056 A 
HETATM    5  C   UNL     1      39.386  40.164  62.925  1.00  0.00     0.034 A 
HETATM    6  C   UNL     1      39.191  41.529  62.667  1.00  0.00     0.031 A 
ENDROOT
BRANCH   4   7
HETATM    7  N   UNL     1      40.506  38.408  64.237  1.00  0.00    -0.260 NA
HETATM    8  C   UNL     1      41.265  38.117  65.242  1.00  0.00     0.131 C 
BRANCH   8   9
HETATM    9  C   UNL     1      41.549  36.727  65.537  1.00  0.00     0.009 A 
HETATM   10  C   UNL     1      40.645  35.744  66.056  1.00  0.00     0.004 A 
HETATM   11  C   UNL     1      41.351  34.543  66.161  1.00  0.00     0.043 A 
HETATM   12  C   UNL     1      39.285  35.754  66.436  1.00  0.00     0.014 A 
HETATM   13  C   UNL     1      40.769  33.357  66.627  1.00  0.00     0.030 A 
HETATM   14  N   UNL     1      42.633  34.786  65.730  1.00  0.00    -0.364 N 
HETATM   15  C   UNL     1      39.422  33.397  66.993  1.00  0.00     0.002 A 
HETATM   16  C   UNL     1      38.688  34.577  66.901  1.00  0.00     0.001 A 
HETATM   17  H   UNL     1      43.368  34.092  65.694  1.00  0.00     0.165 HD
HETATM   18  C   UNL     1      42.763  36.093  65.349  1.00  0.00     0.102 A 
ENDBRANCH   8   9
ENDBRANCH   4   7
BRANCH   1  19
HETATM   19  N   UNL     1      39.649  43.866  63.098  1.00  0.00    -0.378 N 
HETATM   20  C   UNL     1      40.406  44.920  63.789  1.00  0.00     0.150 C 
HETATM   21  C   UNL     1      39.555  45.608  64.876  1.00  0.00     0.254 C 
HETATM   22  N   UNL     1      38.234  46.112  64.282  1.00  0.00    -0.068 N 
HETATM   23  H   UNL     1      38.470  46.767  63.526  1.00  0.00     0.280 HD
HETATM   24  C   UNL     1      37.478  44.946  63.625  1.00  0.00     0.254 C 
HETATM   25  C   UNL     1      38.348  44.276  62.540  1.00  0.00     0.150 C 
BRANCH  22  26
HETATM   26  C   UNL     1      37.365  46.839  65.279  1.00  0.00     0.230 C 
HETATM   27  C   UNL     1      36.938  48.190  64.737  1.00  0.00     0.034 C 
ENDBRANCH  22  26
ENDBRANCH   1  19
TORSDOF 4
ENDMDL
MODEL 9
REMARK VINA RESULT:      -7.3      4.870     12.692
REMARK  4 active torsions:
REMARK  status: ('A' for Active; 'I' for Inactive)
REMARK    1  A    between atoms: C_2  and  N_3 
REMARK    2  A    between atoms: N_7  and  C_8 
REMARK    3  A    between atoms: C_11  and  N_12 
REMARK    4  A    between atoms: C_13  and  C_14 
ROOT
HETATM    1  C   UNL     1      20.406  50.174  48.225  1.00  0.00     0.030 A 
HETATM    2  C   UNL     1      20.326  51.538  48.537  1.00  0.00     0.031 A 
HETATM    3  C   UNL     1      19.177  52.088  49.124  1.00  0.00     0.034 A 
HETATM    4  C   UNL     1      18.072  51.297  49.429  1.00  0.00     0.056 A 
HETATM    5  C   UNL     1      18.142  49.934  49.142  1.00  0.00     0.034 A 
HETATM    6  C   UNL     1      19.285  49.388  48.540  1.00  0.00     0.031 A 
ENDROOT
BRANCH   4   7
HETATM    7  N   UNL     1      16.999  51.891  50.104  1.00  0.00    -0.260 NA
HETATM    8  C   UNL     1      16.409  52.912  49.576  1.00  0.00     0.131 C 
BRANCH   8   9
HETATM    9  C   UNL     1      15.274  53.504  50.254  1.00  0.00     0.009 A 
HETATM   10  C   UNL     1      15.048  54.893  50.526  1.00  0.00     0.004 A 
HETATM   11  C   UNL     1      13.818  54.995  51.180  1.00  0.00     0.043 A 
HETATM   12  C   UNL     1      15.766  56.080  50.266  1.00  0.00     0.014 A 
HETATM   13  C   UNL     1      13.273  56.218  51.588  1.00  0.00     0.030 A 
HETATM   14  N   UNL     1      13.319  53.720  51.307  1.00  0.00    -0.364 N 
HETATM   15  C   UNL     1      14.004  57.377  51.316  1.00  0.00     0.002 A 
HETATM   16  C   UNL     1      15.234  57.312  50.665  1.00  0.00     0.001 A 
HETATM   17  H   UNL     1      12.435  53.491  51.742  1.00  0.00     0.165 HD
HETATM   18  C   UNL     1      14.182  52.818  50.752  1.00  0.00     0.102 A 
ENDBRANCH   8   9
ENDBRANCH   4   7
BRANCH   1  19
HETATM   19  N   UNL     1      21.542  49.579  47.687  1.00  0.00    -0.378 N 
HETATM   20  C   UNL     1      21.681  48.117  47.643  1.00  0.00     0.150 C 
HETATM   21  C   UNL     1      22.576  47.600  48.788  1.00  0.00     0.254 C 
HETATM   22  N   UNL     1      23.925  48.330  48.784  1.00  0.00    -0.068 N 
HETATM   23  H   UNL     1      24.360  48.161  47.868  1.00  0.00     0.280 HD
HETATM   24  C   UNL     1      23.698  49.847  48.884  1.00  0.00     0.254 C 
HETATM   25  C   UNL     1      22.803  50.340  47.727  1.00  0.00     0.150 C 
BRANCH  22  26
HETATM   26  C   UNL     1      24.875  47.844  49.852  1.00  0.00     0.230 C 
HETATM   27  C   UNL     1      26.294  48.289  49.554  1.00  0.00     0.034 C 
ENDBRANCH  22  26
ENDBRANCH   1  19
TORSDOF 4
ENDMDL
MODEL 10
REMARK VINA RESULT:      -7.2      2.662      3.784
REMARK  4 active torsions:
REMARK  status: ('A' for Active; 'I' for Inactive)
REMARK    1  A    between atoms: C_2  and  N_3 
REMARK    2  A    between atoms: N_7  and  C_8 
REMARK    3  A    between atoms: C_11  and  N_12 
REMARK    4  A    between atoms: C_13  and  C_14 
ROOT
HETATM    1  C   UNL     1      24.892  45.026  50.396  1.00  0.00     0.030 A 
HETATM    2  C   UNL     1      24.294  44.574  51.580  1.00  0.00     0.031 A 
HETATM    3  C   UNL     1      25.003  44.536  52.790  1.00  0.00     0.034 A 
HETATM    4  C   UNL     1      26.329  44.957  52.863  1.00  0.00     0.056 A 
HETATM    5  C   UNL     1      26.933  45.428  51.699  1.00  0.00     0.034 A 
HETATM    6  C   UNL     1      26.229  45.449  50.487  1.00  0.00     0.031 A 
ENDROOT
BRANCH   4   7
HETATM    7  N   UNL     1      26.944  44.987  54.121  1.00  0.00    -0.260 NA
HETATM    8  C   UNL     1      28.117  45.517  54.237  1.00  0.00     0.131 C 
BRANCH   8   9
HETATM    9  C   UNL     1      28.738  45.584  55.545  1.00  0.00     0.009 A 
HETATM   10  C   UNL     1      29.834  44.800  56.030  1.00  0.00     0.004 A 
HETATM   11  C   UNL     1      30.103  45.222  57.335  1.00  0.00     0.043 A 
HETATM   12  C   UNL     1      30.636  43.775  55.482  1.00  0.00     0.014 A 
HETATM   13  C   UNL     1      31.128  44.673  58.115  1.00  0.00     0.030 A 
HETATM   14  N   UNL     1      29.204  46.218  57.633  1.00  0.00    -0.364 N 
HETATM   15  C   UNL     1      31.907  43.664  57.545  1.00  0.00     0.002 A 
HETATM   16  C   UNL     1      31.666  43.219  56.248  1.00  0.00     0.001 A 
HETATM   17  H   UNL     1      29.167  46.713  58.514  1.00  0.00     0.165 HD
HETATM   18  C   UNL     1      28.381  46.447  56.565  1.00  0.00     0.102 A 
ENDBRANCH   8   9
ENDBRANCH   4   7
BRANCH   1  19
HETATM   19  N   UNL     1      24.213  45.124  49.187  1.00  0.00    -0.378 N 
HETATM   20  C   UNL     1      23.922  46.434  48.586  1.00  0.00     0.150 C 
HETATM   21  C   UNL     1      22.467  46.867  48.853  1.00  0.00     0.254 C 
HETATM   22  N   UNL     1      21.491  45.773  48.404  1.00  0.00    -0.068 N 
HETATM   23  H   UNL     1      21.653  45.614  47.401  1.00  0.00     0.280 HD
HETATM   24  C   UNL     1      21.826  44.450  49.112  1.00  0.00     0.254 C 
HETATM   25  C   UNL     1      23.286  44.036  48.827  1.00  0.00     0.150 C 
BRANCH  22  26
HETATM   26  C   UNL     1      20.040  46.145  48.592  1.00  0.00     0.230 C 
HETATM   27  C   UNL     1      19.402  46.515  47.267  1.00  0.00     0.034 C 
ENDBRANCH  22  26
ENDBRANCH   1  19
TORSDOF 4
ENDMDL
