MODEL 1
REMARK VINA RESULT:      -9.1      0.000      0.000
REMARK  8 active torsions:
REMARK  status: ('A' for Active; 'I' for Inactive)
REMARK    1  A    between atoms: C_4  and  C_5 
REMARK    2  A    between atoms: C_5  and  N_6 
REMARK       I    between atoms: N_6  and  C_7 
REMARK    3  A    between atoms: C_7  and  C_8 
REMARK    4  A    between atoms: C_11  and  C_12 
REMARK    5  A    between atoms: C_12  and  O_13 
REMARK    6  A    between atoms: O_13  and  C_14 
REMARK    7  A    between atoms: C_25  and  C_26 
REMARK    8  A    between atoms: C_26  and  O_27 
ROOT
HETATM    1  N   UNL     1      24.063  48.410  49.360  1.00  0.00    -0.351 N 
HETATM    2  C   UNL     1      25.405  48.163  49.510  1.00  0.00     0.251 C 
HETATM    3  O   UNL     1      26.268  48.831  48.949  1.00  0.00    -0.268 OA
HETATM    4  H   UNL     1      23.348  47.778  49.701  1.00  0.00     0.163 HD
ENDROOT
BRANCH   2   5
HETATM    5  C   UNL     1      25.790  47.001  50.359  1.00  0.00     0.032 A 
HETATM    6  C   UNL     1      25.440  47.034  51.715  1.00  0.00     0.017 A 
HETATM    7  C   UNL     1      25.795  45.983  52.562  1.00  0.00     0.010 A 
HETATM    8  C   UNL     1      26.505  44.881  52.068  1.00  0.00    -0.034 A 
HETATM    9  C   UNL     1      26.817  44.832  50.702  1.00  0.00     0.010 A 
HETATM   10  C   UNL     1      26.465  45.886  49.851  1.00  0.00     0.017 A 
BRANCH   8  11
HETATM   11  C   UNL     1      26.902  43.757  52.996  1.00  0.00     0.214 C 
BRANCH  11  12
HETATM   12  O   UNL     1      28.317  43.604  52.949  1.00  0.00    -0.347 OA
BRANCH  12  13
HETATM   13  C   UNL     1      29.016  43.988  54.060  1.00  0.00     0.069 A 
HETATM   14  C   UNL     1      28.795  45.142  54.816  1.00  0.00     0.037 A 
HETATM   15  C   UNL     1      29.587  45.412  55.936  1.00  0.00     0.003 A 
HETATM   16  C   UNL     1      30.603  44.533  56.306  1.00  0.00     0.000 A 
HETATM   17  C   UNL     1      30.831  43.383  55.556  1.00  0.00     0.003 A 
HETATM   18  C   UNL     1      30.038  43.113  54.438  1.00  0.00     0.037 A 
ENDBRANCH  12  13
ENDBRANCH  11  12
ENDBRANCH   8  11
ENDBRANCH   2   5
BRANCH   1  19
HETATM   19  C   UNL     1      23.598  49.442  48.458  1.00  0.00     0.182 C 
BRANCH  19  20
HETATM   20  C   UNL     1      22.156  49.828  48.711  1.00  0.00     0.052 A 
HETATM   21  N   UNL     1      21.303  48.876  49.180  1.00  0.00    -0.256 NA
HETATM   22  C   UNL     1      20.007  49.225  49.400  1.00  0.00     0.040 A 
HETATM   23  C   UNL     1      19.131  48.123  49.923  1.00  0.00     0.071 C 
HETATM   24  C   UNL     1      19.511  50.514  49.156  1.00  0.00    -0.006 A 
HETATM   25  C   UNL     1      20.419  51.467  48.676  1.00  0.00     0.014 A 
HETATM   26  C   UNL     1      21.748  51.128  48.449  1.00  0.00     0.029 A 
BRANCH  24  27
HETATM   27  C   UNL     1      18.077  50.903  49.436  1.00  0.00     0.149 C 
HETATM   28  C   UNL     1      17.958  52.384  49.777  1.00  0.00     0.044 C 
BRANCH  27  29
HETATM   29  O   UNL     1      17.269  50.628  48.289  1.00  0.00    -0.391 OA
HETATM   30  H   UNL     1      16.705  49.867  48.508  1.00  0.00     0.210 HD
ENDBRANCH  27  29
ENDBRANCH  24  27
ENDBRANCH  19  20
ENDBRANCH   1  19
TORSDOF 8
ENDMDL
MODEL 2
REMARK VINA RESULT:      -8.9      2.572     10.610
REMARK  8 active torsions:
REMARK  status: ('A' for Active; 'I' for Inactive)
REMARK    1  A    between atoms: C_4  and  C_5 
REMARK    2  A    between atoms: C_5  and  N_6 
REMARK       I    between atoms: N_6  and  C_7 
REMARK    3  A    between atoms: C_7  and  C_8 
REMARK    4  A    between atoms: C_11  and  C_12 
REMARK    5  A    between atoms: C_12  and  O_13 
REMARK    6  A    between atoms: O_13  and  C_14 
REMARK    7  A    between atoms: C_25  and  C_26 
REMARK    8  A    between atoms: C_26  and  O_27 
ROOT
HETATM    1  N   UNL     1      26.446  44.789  51.580  1.00  0.00    -0.351 N 
HETATM    2  C   UNL     1      26.453  45.089  50.240  1.00  0.00     0.251 C 
HETATM    3  O   UNL     1      26.932  44.339  49.395  1.00  0.00    -0.268 OA
HETATM    4  H   UNL     1      26.185  45.463  52.291  1.00  0.00     0.163 HD
ENDROOT
BRANCH   2   5
HETATM    5  C   UNL     1      25.886  46.407  49.837  1.00  0.00     0.032 A 
HETATM    6  C   UNL     1      24.498  46.506  49.683  1.00  0.00     0.017 A 
HETATM    7  C   UNL     1      23.914  47.710  49.286  1.00  0.00     0.010 A 
HETATM    8  C   UNL     1      24.710  48.836  49.035  1.00  0.00    -0.034 A 
HETATM    9  C   UNL     1      26.096  48.745  49.230  1.00  0.00     0.010 A 
HETATM   10  C   UNL     1      26.683  47.537  49.627  1.00  0.00     0.017 A 
BRANCH   8  11
HETATM   11  C   UNL     1      24.073  50.130  48.587  1.00  0.00     0.214 C 
BRANCH  11  12
HETATM   12  O   UNL     1      23.336  50.678  49.677  1.00  0.00    -0.347 OA
BRANCH  12  13
HETATM   13  C   UNL     1      21.998  50.882  49.476  1.00  0.00     0.069 A 
HETATM   14  C   UNL     1      21.028  51.027  50.471  1.00  0.00     0.037 A 
HETATM   15  C   UNL     1      19.690  51.235  50.122  1.00  0.00     0.003 A 
HETATM   16  C   UNL     1      19.314  51.296  48.782  1.00  0.00     0.000 A 
HETATM   17  C   UNL     1      20.276  51.149  47.786  1.00  0.00     0.003 A 
HETATM   18  C   UNL     1      21.613  50.943  48.135  1.00  0.00     0.037 A 
ENDBRANCH  12  13
ENDBRANCH  11  12
ENDBRANCH   8  11
ENDBRANCH   2   5
BRANCH   1  19
HETATM   19  C   UNL     1      27.083  43.586  52.070  1.00  0.00     0.182 C 
BRANCH  19  20
HETATM   20  C   UNL     1      28.005  43.853  53.241  1.00  0.00     0.052 A 
HETATM   21  N   UNL     1      27.722  44.901  54.063  1.00  0.00    -0.256 NA
HETATM   22  C   UNL     1      28.555  45.141  55.111  1.00  0.00     0.040 A 
HETATM   23  C   UNL     1      28.172  46.309  55.975  1.00  0.00     0.071 C 
HETATM   24  C   UNL     1      29.694  44.366  55.375  1.00  0.00    -0.006 A 
HETATM   25  C   UNL     1      29.952  43.296  54.508  1.00  0.00     0.014 A 
HETATM   26  C   UNL     1      29.108  43.035  53.435  1.00  0.00     0.029 A 
BRANCH  24  27
HETATM   27  C   UNL     1      30.596  44.619  56.561  1.00  0.00     0.149 C 
HETATM   28  C   UNL     1      31.510  43.429  56.830  1.00  0.00     0.044 C 
BRANCH  27  29
HETATM   29  O   UNL     1      31.403  45.774  56.318  1.00  0.00    -0.391 OA
HETATM   30  H   UNL     1      32.328  45.478  56.283  1.00  0.00     0.210 HD
ENDBRANCH  27  29
ENDBRANCH  24  27
ENDBRANCH  19  20
ENDBRANCH   1  19
TORSDOF 8
ENDMDL
MODEL 3
REMARK VINA RESULT:      -8.9      2.119      3.092
REMARK  8 active torsions:
REMARK  status: ('A' for Active; 'I' for Inactive)
REMARK    1  A    between atoms: C_4  and  C_5 
REMARK    2  A    between atoms: C_5  and  N_6 
REMARK       I    between atoms: N_6  and  C_7 
REMARK    3  A    between atoms: C_7  and  C_8 
REMARK    4  A    between atoms: C_11  and  C_12 
REMARK    5  A    between atoms: C_12  and  O_13 
REMARK    6  A    between atoms: O_13  and  C_14 
REMARK    7  A    between atoms: C_25  and  C_26 
REMARK    8  A    between atoms: C_26  and  O_27 
ROOT
HETATM    1  N   UNL     1      24.409  46.003  50.181  1.00  0.00    -0.351 N 
HETATM    2  C   UNL     1      24.463  45.104  51.218  1.00  0.00     0.251 C 
HETATM    3  O   UNL     1      23.817  44.062  51.225  1.00  0.00    -0.268 OA
HETATM    4  H   UNL     1      24.825  46.926  50.233  1.00  0.00     0.163 HD
ENDROOT
BRANCH   2   5
HETATM    5  C   UNL     1      25.317  45.466  52.384  1.00  0.00     0.032 A 
HETATM    6  C   UNL     1      25.642  46.815  52.568  1.00  0.00     0.017 A 
HETATM    7  C   UNL     1      26.456  47.209  53.630  1.00  0.00     0.010 A 
HETATM    8  C   UNL     1      26.960  46.259  54.528  1.00  0.00    -0.034 A 
HETATM    9  C   UNL     1      26.599  44.913  54.366  1.00  0.00     0.010 A 
HETATM   10  C   UNL     1      25.784  44.517  53.300  1.00  0.00     0.017 A 
BRANCH   8  11
HETATM   11  C   UNL     1      27.857  46.690  55.665  1.00  0.00     0.214 C 
BRANCH  11  12
HETATM   12  O   UNL     1      29.211  46.453  55.293  1.00  0.00    -0.347 OA
BRANCH  12  13
HETATM   13  C   UNL     1      29.917  45.570  56.064  1.00  0.00     0.069 A 
HETATM   14  C   UNL     1      30.295  45.756  57.396  1.00  0.00     0.037 A 
HETATM   15  C   UNL     1      31.016  44.763  58.067  1.00  0.00     0.003 A 
HETATM   16  C   UNL     1      31.364  43.584  57.413  1.00  0.00     0.000 A 
HETATM   17  C   UNL     1      30.993  43.393  56.085  1.00  0.00     0.003 A 
HETATM   18  C   UNL     1      30.272  44.384  55.415  1.00  0.00     0.037 A 
ENDBRANCH  12  13
ENDBRANCH  11  12
ENDBRANCH   8  11
ENDBRANCH   2   5
BRANCH   1  19
HETATM   19  C   UNL     1      23.514  45.789  49.064  1.00  0.00     0.182 C 
BRANCH  19  20
HETATM   20  C   UNL     1      22.515  46.914  48.897  1.00  0.00     0.052 A 
HETATM   21  N   UNL     1      22.904  48.179  49.216  1.00  0.00    -0.256 NA
HETATM   22  C   UNL     1      22.001  49.186  49.070  1.00  0.00     0.040 A 
HETATM   23  C   UNL     1      22.507  50.552  49.436  1.00  0.00     0.071 C 
HETATM   24  C   UNL     1      20.690  48.978  48.617  1.00  0.00    -0.006 A 
HETATM   25  C   UNL     1      20.327  47.662  48.297  1.00  0.00     0.014 A 
HETATM   26  C   UNL     1      21.239  46.623  48.438  1.00  0.00     0.029 A 
BRANCH  24  27
HETATM   27  C   UNL     1      19.704  50.107  48.425  1.00  0.00     0.149 C 
HETATM   28  C   UNL     1      19.595  50.508  46.958  1.00  0.00     0.044 C 
BRANCH  27  29
HETATM   29  O   UNL     1      18.413  49.707  48.891  1.00  0.00    -0.391 OA
HETATM   30  H   UNL     1      18.530  49.331  49.780  1.00  0.00     0.210 HD
ENDBRANCH  27  29
ENDBRANCH  24  27
ENDBRANCH  19  20
ENDBRANCH   1  19
TORSDOF 8
ENDMDL
MODEL 4
REMARK VINA RESULT:      -8.8      1.886      2.706
REMARK  8 active torsions:
REMARK  status: ('A' for Active; 'I' for Inactive)
REMARK    1  A    between atoms: C_4  and  C_5 
REMARK    2  A    between atoms: C_5  and  N_6 
REMARK       I    between atoms: N_6  and  C_7 
REMARK    3  A    between atoms: C_7  and  C_8 
REMARK    4  A    between atoms: C_11  and  C_12 
REMARK    5  A    between atoms: C_12  and  O_13 
REMARK    6  A    between atoms: O_13  and  C_14 
REMARK    7  A    between atoms: C_25  and  C_26 
REMARK    8  A    between atoms: C_26  and  O_27 
ROOT
HETATM    1  N   UNL     1      23.631  47.130  49.821  1.00  0.00    -0.351 N 
HETATM    2  C   UNL     1      24.876  47.513  50.255  1.00  0.00     0.251 C 
HETATM    3  O   UNL     1      25.452  48.506  49.823  1.00  0.00    -0.268 OA
HETATM    4  H   UNL     1      23.215  46.239  50.066  1.00  0.00     0.163 HD
ENDROOT
BRANCH   2   5
HETATM    5  C   UNL     1      25.542  46.637  51.259  1.00  0.00     0.032 A 
HETATM    6  C   UNL     1      25.672  47.119  52.568  1.00  0.00     0.017 A 
HETATM    7  C   UNL     1      26.308  46.350  53.545  1.00  0.00     0.010 A 
HETATM    8  C   UNL     1      26.824  45.087  53.230  1.00  0.00    -0.034 A 
HETATM    9  C   UNL     1      26.656  44.590  51.929  1.00  0.00     0.010 A 
HETATM   10  C   UNL     1      26.021  45.360  50.947  1.00  0.00     0.017 A 
BRANCH   8  11
HETATM   11  C   UNL     1      27.528  44.269  54.287  1.00  0.00     0.214 C 
BRANCH  11  12
HETATM   12  O   UNL     1      28.934  44.383  54.092  1.00  0.00    -0.347 OA
BRANCH  12  13
HETATM   13  C   UNL     1      29.719  44.327  55.211  1.00  0.00     0.069 A 
HETATM   14  C   UNL     1      30.661  43.341  55.510  1.00  0.00     0.037 A 
HETATM   15  C   UNL     1      31.400  43.410  56.695  1.00  0.00     0.003 A 
HETATM   16  C   UNL     1      31.201  44.461  57.587  1.00  0.00     0.000 A 
HETATM   17  C   UNL     1      30.261  45.446  57.297  1.00  0.00     0.003 A 
HETATM   18  C   UNL     1      29.524  45.378  56.112  1.00  0.00     0.037 A 
ENDBRANCH  12  13
ENDBRANCH  11  12
ENDBRANCH   8  11
ENDBRANCH   2   5
BRANCH   1  19
HETATM   19  C   UNL     1      22.964  47.855  48.761  1.00  0.00     0.182 C 
BRANCH  19  20
HETATM   20  C   UNL     1      21.474  47.589  48.724  1.00  0.00     0.052 A 
HETATM   21  N   UNL     1      20.640  48.489  49.315  1.00  0.00    -0.256 NA
HETATM   22  C   UNL     1      19.302  48.244  49.284  1.00  0.00     0.040 A 
HETATM   23  C   UNL     1      18.449  49.285  49.950  1.00  0.00     0.071 C 
HETATM   24  C   UNL     1      18.748  47.105  48.682  1.00  0.00    -0.006 A 
HETATM   25  C   UNL     1      19.637  46.203  48.083  1.00  0.00     0.014 A 
HETATM   26  C   UNL     1      21.006  46.440  48.103  1.00  0.00     0.029 A 
BRANCH  24  27
HETATM   27  C   UNL     1      17.258  46.857  48.623  1.00  0.00     0.149 C 
HETATM   28  C   UNL     1      16.645  47.446  47.357  1.00  0.00     0.044 C 
BRANCH  27  29
HETATM   29  O   UNL     1      16.999  45.452  48.649  1.00  0.00    -0.391 OA
HETATM   30  H   UNL     1      16.233  45.288  48.073  1.00  0.00     0.210 HD
ENDBRANCH  27  29
ENDBRANCH  24  27
ENDBRANCH  19  20
ENDBRANCH   1  19
TORSDOF 8
ENDMDL
MODEL 5
REMARK VINA RESULT:      -8.8      1.553      2.094
REMARK  8 active torsions:
REMARK  status: ('A' for Active; 'I' for Inactive)
REMARK    1  A    between atoms: C_4  and  C_5 
REMARK    2  A    between atoms: C_5  and  N_6 
REMARK       I    between atoms: N_6  and  C_7 
REMARK    3  A    between atoms: C_7  and  C_8 
REMARK    4  A    between atoms: C_11  and  C_12 
REMARK    5  A    between atoms: C_12  and  O_13 
REMARK    6  A    between atoms: O_13  and  C_14 
REMARK    7  A    between atoms: C_25  and  C_26 
REMARK    8  A    between atoms: C_26  and  O_27 
ROOT
HETATM    1  N   UNL     1      23.856  47.300  49.916  1.00  0.00    -0.351 N 
HETATM    2  C   UNL     1      24.546  46.123  50.071  1.00  0.00     0.251 C 
HETATM    3  O   UNL     1      24.473  45.201  49.265  1.00  0.00    -0.268 OA
HETATM    4  H   UNL     1      23.800  48.002  50.644  1.00  0.00     0.163 HD
ENDROOT
BRANCH   2   5
HETATM    5  C   UNL     1      25.371  45.978  51.303  1.00  0.00     0.032 A 
HETATM    6  C   UNL     1      25.578  47.115  52.093  1.00  0.00     0.017 A 
HETATM    7  C   UNL     1      26.361  47.043  53.246  1.00  0.00     0.010 A 
HETATM    8  C   UNL     1      26.951  45.832  53.629  1.00  0.00    -0.034 A 
HETATM    9  C   UNL     1      26.708  44.685  52.858  1.00  0.00     0.010 A 
HETATM   10  C   UNL     1      25.925  44.756  51.700  1.00  0.00     0.017 A 
BRANCH   8  11
HETATM   11  C   UNL     1      27.813  45.766  54.867  1.00  0.00     0.214 C 
BRANCH  11  12
HETATM   12  O   UNL     1      28.983  45.009  54.570  1.00  0.00    -0.347 OA
BRANCH  12  13
HETATM   13  C   UNL     1      29.805  44.706  55.620  1.00  0.00     0.069 A 
HETATM   14  C   UNL     1      30.675  43.616  55.699  1.00  0.00     0.037 A 
HETATM   15  C   UNL     1      31.465  43.428  56.838  1.00  0.00     0.003 A 
HETATM   16  C   UNL     1      31.388  44.323  57.902  1.00  0.00     0.000 A 
HETATM   17  C   UNL     1      30.521  45.410  57.832  1.00  0.00     0.003 A 
HETATM   18  C   UNL     1      29.733  45.599  56.693  1.00  0.00     0.037 A 
ENDBRANCH  12  13
ENDBRANCH  11  12
ENDBRANCH   8  11
ENDBRANCH   2   5
BRANCH   1  19
HETATM   19  C   UNL     1      22.938  47.478  48.811  1.00  0.00     0.182 C 
BRANCH  19  20
HETATM   20  C   UNL     1      21.953  48.602  49.050  1.00  0.00     0.052 A 
HETATM   21  N   UNL     1      20.638  48.381  48.777  1.00  0.00    -0.256 NA
HETATM   22  C   UNL     1      19.757  49.395  48.988  1.00  0.00     0.040 A 
HETATM   23  C   UNL     1      18.325  49.071  48.670  1.00  0.00     0.071 C 
HETATM   24  C   UNL     1      20.144  50.657  49.461  1.00  0.00    -0.006 A 
HETATM   25  C   UNL     1      21.505  50.847  49.732  1.00  0.00     0.014 A 
HETATM   26  C   UNL     1      22.418  49.820  49.525  1.00  0.00     0.029 A 
BRANCH  24  27
HETATM   27  C   UNL     1      19.153  51.769  49.724  1.00  0.00     0.149 C 
HETATM   28  C   UNL     1      18.781  52.500  48.438  1.00  0.00     0.044 C 
BRANCH  27  29
HETATM   29  O   UNL     1      17.965  51.230  50.307  1.00  0.00    -0.391 OA
HETATM   30  H   UNL     1      17.599  50.586  49.676  1.00  0.00     0.210 HD
ENDBRANCH  27  29
ENDBRANCH  24  27
ENDBRANCH  19  20
ENDBRANCH   1  19
TORSDOF 8
ENDMDL
MODEL 6
REMARK VINA RESULT:      -8.2      2.511     10.369
REMARK  8 active torsions:
REMARK  status: ('A' for Active; 'I' for Inactive)
REMARK    1  A    between atoms: C_4  and  C_5 
REMARK    2  A    between atoms: C_5  and  N_6 
REMARK       I    between atoms: N_6  and  C_7 
REMARK    3  A    between atoms: C_7  and  C_8 
REMARK    4  A    between atoms: C_11  and  C_12 
REMARK    5  A    between atoms: C_12  and  O_13 
REMARK    6  A    between atoms: O_13  and  C_14 
REMARK    7  A    between atoms: C_25  and  C_26 
REMARK    8  A    between atoms: C_26  and  O_27 
ROOT
HETATM    1  N   UNL     1      25.847  45.477  50.563  1.00  0.00    -0.351 N 
HETATM    2  C   UNL     1      24.506  45.456  50.266  1.00  0.00     0.251 C 
HETATM    3  O   UNL     1      23.785  44.499  50.526  1.00  0.00    -0.268 OA
HETATM    4  H   UNL     1      26.472  46.199  50.223  1.00  0.00     0.163 HD
ENDROOT
BRANCH   2   5
HETATM    5  C   UNL     1      23.950  46.644  49.560  1.00  0.00     0.032 A 
HETATM    6  C   UNL     1      24.612  47.869  49.713  1.00  0.00     0.017 A 
HETATM    7  C   UNL     1      24.122  49.020  49.093  1.00  0.00     0.010 A 
HETATM    8  C   UNL     1      22.963  48.965  48.308  1.00  0.00    -0.034 A 
HETATM    9  C   UNL     1      22.326  47.729  48.123  1.00  0.00     0.010 A 
HETATM   10  C   UNL     1      22.814  46.575  48.746  1.00  0.00     0.017 A 
BRANCH   8  11
HETATM   11  C   UNL     1      22.429  50.219  47.655  1.00  0.00     0.214 C 
BRANCH  11  12
HETATM   12  O   UNL     1      22.072  51.148  48.674  1.00  0.00    -0.347 OA
BRANCH  12  13
HETATM   13  C   UNL     1      20.766  51.144  49.082  1.00  0.00     0.069 A 
HETATM   14  C   UNL     1      20.202  50.294  50.036  1.00  0.00     0.037 A 
HETATM   15  C   UNL     1      18.846  50.403  50.361  1.00  0.00     0.003 A 
HETATM   16  C   UNL     1      18.048  51.357  49.734  1.00  0.00     0.000 A 
HETATM   17  C   UNL     1      18.603  52.206  48.779  1.00  0.00     0.003 A 
HETATM   18  C   UNL     1      19.958  52.098  48.457  1.00  0.00     0.037 A 
ENDBRANCH  12  13
ENDBRANCH  11  12
ENDBRANCH   8  11
ENDBRANCH   2   5
BRANCH   1  19
HETATM   19  C   UNL     1      26.493  44.318  51.138  1.00  0.00     0.182 C 
BRANCH  19  20
HETATM   20  C   UNL     1      27.153  44.620  52.467  1.00  0.00     0.052 A 
HETATM   21  N   UNL     1      28.146  43.796  52.901  1.00  0.00    -0.256 NA
HETATM   22  C   UNL     1      28.733  44.068  54.097  1.00  0.00     0.040 A 
HETATM   23  C   UNL     1      29.823  43.117  54.502  1.00  0.00     0.071 C 
HETATM   24  C   UNL     1      28.354  45.150  54.905  1.00  0.00    -0.006 A 
HETATM   25  C   UNL     1      27.330  45.977  54.425  1.00  0.00     0.014 A 
HETATM   26  C   UNL     1      26.723  45.715  53.203  1.00  0.00     0.029 A 
BRANCH  24  27
HETATM   27  C   UNL     1      29.035  45.465  56.218  1.00  0.00     0.149 C 
HETATM   28  C   UNL     1      30.450  45.990  56.000  1.00  0.00     0.044 C 
BRANCH  27  29
HETATM   29  O   UNL     1      28.282  46.451  56.928  1.00  0.00    -0.391 OA
HETATM   30  H   UNL     1      27.488  46.645  56.401  1.00  0.00     0.210 HD
ENDBRANCH  27  29
ENDBRANCH  24  27
ENDBRANCH  19  20
ENDBRANCH   1  19
TORSDOF 8
ENDMDL
MODEL 7
REMARK VINA RESULT:      -8.0      5.725      8.719
REMARK  8 active torsions:
REMARK  status: ('A' for Active; 'I' for Inactive)
REMARK    1  A    between atoms: C_4  and  C_5 
REMARK    2  A    between atoms: C_5  and  N_6 
REMARK       I    between atoms: N_6  and  C_7 
REMARK    3  A    between atoms: C_7  and  C_8 
REMARK    4  A    between atoms: C_11  and  C_12 
REMARK    5  A    between atoms: C_12  and  O_13 
REMARK    6  A    between atoms: O_13  and  C_14 
REMARK    7  A    between atoms: C_25  and  C_26 
REMARK    8  A    between atoms: C_26  and  O_27 
ROOT
HETATM    1  N   UNL     1      25.918  43.358  50.480  1.00  0.00    -0.351 N 
HETATM    2  C   UNL     1      25.136  43.853  51.495  1.00  0.00     0.251 C 
HETATM    3  O   UNL     1      23.911  43.793  51.476  1.00  0.00    -0.268 OA
HETATM    4  H   UNL     1      26.915  43.533  50.421  1.00  0.00     0.163 HD
ENDROOT
BRANCH   2   5
HETATM    5  C   UNL     1      25.837  44.522  52.626  1.00  0.00     0.032 A 
HETATM    6  C   UNL     1      26.147  45.881  52.495  1.00  0.00     0.017 A 
HETATM    7  C   UNL     1      26.824  46.554  53.514  1.00  0.00     0.010 A 
HETATM    8  C   UNL     1      27.201  45.879  54.682  1.00  0.00    -0.034 A 
HETATM    9  C   UNL     1      26.851  44.528  54.828  1.00  0.00     0.010 A 
HETATM   10  C   UNL     1      26.175  43.851  53.806  1.00  0.00     0.017 A 
BRANCH   8  11
HETATM   11  C   UNL     1      27.949  46.609  55.772  1.00  0.00     0.214 C 
BRANCH  11  12
HETATM   12  O   UNL     1      29.346  46.514  55.510  1.00  0.00    -0.347 OA
BRANCH  12  13
HETATM   13  C   UNL     1      30.043  45.572  56.215  1.00  0.00     0.069 A 
HETATM   14  C   UNL     1      30.426  45.661  57.556  1.00  0.00     0.037 A 
HETATM   15  C   UNL     1      31.137  44.617  58.155  1.00  0.00     0.003 A 
HETATM   16  C   UNL     1      31.471  43.482  57.419  1.00  0.00     0.000 A 
HETATM   17  C   UNL     1      31.095  43.388  56.082  1.00  0.00     0.003 A 
HETATM   18  C   UNL     1      30.383  44.431  55.485  1.00  0.00     0.037 A 
ENDBRANCH  12  13
ENDBRANCH  11  12
ENDBRANCH   8  11
ENDBRANCH   2   5
BRANCH   1  19
HETATM   19  C   UNL     1      25.316  42.801  49.288  1.00  0.00     0.182 C 
BRANCH  19  20
HETATM   20  C   UNL     1      25.882  41.443  48.932  1.00  0.00     0.052 A 
HETATM   21  N   UNL     1      26.035  41.130  47.615  1.00  0.00    -0.256 NA
HETATM   22  C   UNL     1      26.538  39.906  47.299  1.00  0.00     0.040 A 
HETATM   23  C   UNL     1      26.683  39.638  45.828  1.00  0.00     0.071 C 
HETATM   24  C   UNL     1      26.895  38.954  48.265  1.00  0.00    -0.006 A 
HETATM   25  C   UNL     1      26.725  39.313  49.609  1.00  0.00     0.014 A 
HETATM   26  C   UNL     1      26.215  40.561  49.949  1.00  0.00     0.029 A 
BRANCH  24  27
HETATM   27  C   UNL     1      27.486  37.610  47.906  1.00  0.00     0.149 C 
HETATM   28  C   UNL     1      28.999  37.694  47.733  1.00  0.00     0.044 C 
BRANCH  27  29
HETATM   29  O   UNL     1      27.192  36.662  48.934  1.00  0.00    -0.391 OA
HETATM   30  H   UNL     1      26.375  36.954  49.373  1.00  0.00     0.210 HD
ENDBRANCH  27  29
ENDBRANCH  24  27
ENDBRANCH  19  20
ENDBRANCH   1  19
TORSDOF 8
ENDMDL
MODEL 8
REMARK VINA RESULT:      -8.0      1.650      2.409
REMARK  8 active torsions:
REMARK  status: ('A' for Active; 'I' for Inactive)
REMARK    1  A    between atoms: C_4  and  C_5 
REMARK    2  A    between atoms: C_5  and  N_6 
REMARK       I    between atoms: N_6  and  C_7 
REMARK    3  A    between atoms: C_7  and  C_8 
REMARK    4  A    between atoms: C_11  and  C_12 
REMARK    5  A    between atoms: C_12  and  O_13 
REMARK    6  A    between atoms: O_13  and  C_14 
REMARK    7  A    between atoms: C_25  and  C_26 
REMARK    8  A    between atoms: C_26  and  O_27 
ROOT
HETATM    1  N   UNL     1      23.145  50.025  49.252  1.00  0.00    -0.351 N 
HETATM    2  C   UNL     1      24.213  49.404  48.652  1.00  0.00     0.251 C 
HETATM    3  O   UNL     1      24.709  49.804  47.604  1.00  0.00    -0.268 OA
HETATM    4  H   UNL     1      22.643  49.619  50.034  1.00  0.00     0.163 HD
ENDROOT
BRANCH   2   5
HETATM    5  C   UNL     1      24.734  48.171  49.306  1.00  0.00     0.032 A 
HETATM    6  C   UNL     1      23.846  47.106  49.503  1.00  0.00     0.017 A 
HETATM    7  C   UNL     1      24.274  45.935  50.130  1.00  0.00     0.010 A 
HETATM    8  C   UNL     1      25.598  45.808  50.571  1.00  0.00    -0.034 A 
HETATM    9  C   UNL     1      26.496  46.860  50.334  1.00  0.00     0.010 A 
HETATM   10  C   UNL     1      26.068  48.036  49.708  1.00  0.00     0.017 A 
BRANCH   8  11
HETATM   11  C   UNL     1      26.049  44.545  51.266  1.00  0.00     0.214 C 
BRANCH  11  12
HETATM   12  O   UNL     1      27.470  44.471  51.202  1.00  0.00    -0.347 OA
BRANCH  12  13
HETATM   13  C   UNL     1      28.123  44.135  52.356  1.00  0.00     0.069 A 
HETATM   14  C   UNL     1      27.806  44.579  53.642  1.00  0.00     0.037 A 
HETATM   15  C   UNL     1      28.560  44.151  54.740  1.00  0.00     0.003 A 
HETATM   16  C   UNL     1      29.633  43.280  54.558  1.00  0.00     0.000 A 
HETATM   17  C   UNL     1      29.956  42.837  53.279  1.00  0.00     0.003 A 
HETATM   18  C   UNL     1      29.201  43.263  52.183  1.00  0.00     0.037 A 
ENDBRANCH  12  13
ENDBRANCH  11  12
ENDBRANCH   8  11
ENDBRANCH   2   5
BRANCH   1  19
HETATM   19  C   UNL     1      22.501  51.157  48.623  1.00  0.00     0.182 C 
BRANCH  19  20
HETATM   20  C   UNL     1      21.018  50.937  48.409  1.00  0.00     0.052 A 
HETATM   21  N   UNL     1      20.141  51.714  49.102  1.00  0.00    -0.256 NA
HETATM   22  C   UNL     1      18.809  51.509  48.911  1.00  0.00     0.040 A 
HETATM   23  C   UNL     1      17.907  52.409  49.705  1.00  0.00     0.071 C 
HETATM   24  C   UNL     1      18.304  50.529  48.044  1.00  0.00    -0.006 A 
HETATM   25  C   UNL     1      19.237  49.750  47.347  1.00  0.00     0.014 A 
HETATM   26  C   UNL     1      20.601  49.949  47.528  1.00  0.00     0.029 A 
BRANCH  24  27
HETATM   27  C   UNL     1      16.823  50.331  47.813  1.00  0.00     0.149 C 
HETATM   28  C   UNL     1      16.464  50.482  46.338  1.00  0.00     0.044 C 
BRANCH  27  29
HETATM   29  O   UNL     1      16.435  49.027  48.250  1.00  0.00    -0.391 OA
HETATM   30  H   UNL     1      15.802  48.680  47.599  1.00  0.00     0.210 HD
ENDBRANCH  27  29
ENDBRANCH  24  27
ENDBRANCH  19  20
ENDBRANCH   1  19
TORSDOF 8
ENDMDL
MODEL 9
REMARK VINA RESULT:      -7.9      2.282      2.861
REMARK  8 active torsions:
REMARK  status: ('A' for Active; 'I' for Inactive)
REMARK    1  A    between atoms: C_4  and  C_5 
REMARK    2  A    between atoms: C_5  and  N_6 
REMARK       I    between atoms: N_6  and  C_7 
REMARK    3  A    between atoms: C_7  and  C_8 
REMARK    4  A    between atoms: C_11  and  C_12 
REMARK    5  A    between atoms: C_12  and  O_13 
REMARK    6  A    between atoms: O_13  and  C_14 
REMARK    7  A    between atoms: C_25  and  C_26 
REMARK    8  A    between atoms: C_26  and  O_27 
ROOT
HETATM    1  N   UNL     1      21.233  45.652  49.210  1.00  0.00    -0.351 N 
HETATM    2  C   UNL     1      22.321  45.118  48.564  1.00  0.00     0.251 C 
HETATM    3  O   UNL     1      22.416  45.087  47.341  1.00  0.00    -0.268 OA
HETATM    4  H   UNL     1      21.084  45.551  50.207  1.00  0.00     0.163 HD
ENDROOT
BRANCH   2   5
HETATM    5  C   UNL     1      23.389  44.521  49.414  1.00  0.00     0.032 A 
HETATM    6  C   UNL     1      24.291  45.388  50.043  1.00  0.00     0.017 A 
HETATM    7  C   UNL     1      25.324  44.883  50.833  1.00  0.00     0.010 A 
HETATM    8  C   UNL     1      25.474  43.502  51.009  1.00  0.00    -0.034 A 
HETATM    9  C   UNL     1      24.544  42.637  50.412  1.00  0.00     0.010 A 
HETATM   10  C   UNL     1      23.508  43.142  49.617  1.00  0.00     0.017 A 
BRANCH   8  11
HETATM   11  C   UNL     1      26.606  42.962  51.850  1.00  0.00     0.214 C 
BRANCH  11  12
HETATM   12  O   UNL     1      26.831  43.853  52.939  1.00  0.00    -0.347 OA
BRANCH  12  13
HETATM   13  C   UNL     1      28.042  43.763  53.569  1.00  0.00     0.069 A 
HETATM   14  C   UNL     1      28.425  44.454  54.721  1.00  0.00     0.037 A 
HETATM   15  C   UNL     1      29.701  44.265  55.262  1.00  0.00     0.003 A 
HETATM   16  C   UNL     1      30.598  43.388  54.657  1.00  0.00     0.000 A 
HETATM   17  C   UNL     1      30.223  42.698  53.507  1.00  0.00     0.003 A 
HETATM   18  C   UNL     1      28.949  42.887  52.967  1.00  0.00     0.037 A 
ENDBRANCH  12  13
ENDBRANCH  11  12
ENDBRANCH   8  11
ENDBRANCH   2   5
BRANCH   1  19
HETATM   19  C   UNL     1      20.098  46.143  48.460  1.00  0.00     0.182 C 
BRANCH  19  20
HETATM   20  C   UNL     1      19.768  47.585  48.784  1.00  0.00     0.052 A 
HETATM   21  N   UNL     1      20.789  48.427  49.104  1.00  0.00    -0.256 NA
HETATM   22  C   UNL     1      20.488  49.721  49.400  1.00  0.00     0.040 A 
HETATM   23  C   UNL     1      21.667  50.588  49.736  1.00  0.00     0.071 C 
HETATM   24  C   UNL     1      19.177  50.219  49.399  1.00  0.00    -0.006 A 
HETATM   25  C   UNL     1      18.153  49.323  49.063  1.00  0.00     0.014 A 
HETATM   26  C   UNL     1      18.444  48.000  48.755  1.00  0.00     0.029 A 
BRANCH  24  27
HETATM   27  C   UNL     1      18.855  51.666  49.696  1.00  0.00     0.149 C 
HETATM   28  C   UNL     1      18.915  52.520  48.434  1.00  0.00     0.044 C 
BRANCH  27  29
HETATM   29  O   UNL     1      17.543  51.765  50.256  1.00  0.00    -0.391 OA
HETATM   30  H   UNL     1      16.978  52.200  49.595  1.00  0.00     0.210 HD
ENDBRANCH  27  29
ENDBRANCH  24  27
ENDBRANCH  19  20
ENDBRANCH   1  19
TORSDOF 8
ENDMDL
MODEL 10
REMARK VINA RESULT:      -7.8      2.527      3.240
REMARK  8 active torsions:
REMARK  status: ('A' for Active; 'I' for Inactive)
REMARK    1  A    between atoms: C_4  and  C_5 
REMARK    2  A    between atoms: C_5  and  N_6 
REMARK       I    between atoms: N_6  and  C_7 
REMARK    3  A    between atoms: C_7  and  C_8 
REMARK    4  A    between atoms: C_11  and  C_12 
REMARK    5  A    between atoms: C_12  and  O_13 
REMARK    6  A    between atoms: O_13  and  C_14 
REMARK    7  A    between atoms: C_25  and  C_26 
REMARK    8  A    between atoms: C_26  and  O_27 
ROOT
HETATM    1  N   UNL     1      22.298  44.829  49.239  1.00  0.00    -0.351 N 
HETATM    2  C   UNL     1      22.850  43.578  49.368  1.00  0.00     0.251 C 
HETATM    3  O   UNL     1      22.381  42.586  48.818  1.00  0.00    -0.268 OA
HETATM    4  H   UNL     1      22.592  45.618  49.801  1.00  0.00     0.163 HD
ENDROOT
BRANCH   2   5
HETATM    5  C   UNL     1      24.039  43.450  50.257  1.00  0.00     0.032 A 
HETATM    6  C   UNL     1      24.887  42.353  50.067  1.00  0.00     0.017 A 
HETATM    7  C   UNL     1      26.003  42.171  50.885  1.00  0.00     0.010 A 
HETATM    8  C   UNL     1      26.290  43.084  51.908  1.00  0.00    -0.034 A 
HETATM    9  C   UNL     1      25.462  44.205  52.070  1.00  0.00     0.010 A 
HETATM   10  C   UNL     1      24.341  44.387  51.251  1.00  0.00     0.017 A 
BRANCH   8  11
HETATM   11  C   UNL     1      27.489  42.870  52.802  1.00  0.00     0.214 C 
BRANCH  11  12
HETATM   12  O   UNL     1      28.101  44.132  53.055  1.00  0.00    -0.347 OA
BRANCH  12  13
HETATM   13  C   UNL     1      28.973  44.195  54.107  1.00  0.00     0.069 A 
HETATM   14  C   UNL     1      29.958  43.255  54.418  1.00  0.00     0.037 A 
HETATM   15  C   UNL     1      30.787  43.448  55.528  1.00  0.00     0.003 A 
HETATM   16  C   UNL     1      30.635  44.576  56.332  1.00  0.00     0.000 A 
HETATM   17  C   UNL     1      29.653  45.515  56.028  1.00  0.00     0.003 A 
HETATM   18  C   UNL     1      28.826  45.323  54.919  1.00  0.00     0.037 A 
ENDBRANCH  12  13
ENDBRANCH  11  12
ENDBRANCH   8  11
ENDBRANCH   2   5
BRANCH   1  19
HETATM   19  C   UNL     1      21.073  45.021  48.493  1.00  0.00     0.182 C 
BRANCH  19  20
HETATM   20  C   UNL     1      20.669  46.477  48.406  1.00  0.00     0.052 A 
HETATM   21  N   UNL     1      19.425  46.831  48.832  1.00  0.00    -0.256 NA
HETATM   22  C   UNL     1      19.063  48.139  48.747  1.00  0.00     0.040 A 
HETATM   23  C   UNL     1      17.680  48.451  49.243  1.00  0.00     0.071 C 
HETATM   24  C   UNL     1      19.907  49.134  48.232  1.00  0.00    -0.006 A 
HETATM   25  C   UNL     1      21.180  48.732  47.804  1.00  0.00     0.014 A 
HETATM   26  C   UNL     1      21.566  47.399  47.888  1.00  0.00     0.029 A 
BRANCH  24  27
HETATM   27  C   UNL     1      19.510  50.591  48.172  1.00  0.00     0.149 C 
HETATM   28  C   UNL     1      20.689  51.504  48.492  1.00  0.00     0.044 C 
BRANCH  27  29
HETATM   29  O   UNL     1      19.023  50.907  46.866  1.00  0.00    -0.391 OA
HETATM   30  H   UNL     1      19.680  50.582  46.226  1.00  0.00     0.210 HD
ENDBRANCH  27  29
ENDBRANCH  24  27
ENDBRANCH  19  20
ENDBRANCH   1  19
TORSDOF 8
ENDMDL
