MODEL 1
REMARK VINA RESULT:     -10.2      0.000      0.000
REMARK  6 active torsions:
REMARK  status: ('A' for Active; 'I' for Inactive)
REMARK    1  A    between atoms: C_5  and  C_6 
REMARK    2  A    between atoms: C_12  and  C_13 
REMARK       I    between atoms: C_13  and  N_14 
REMARK    3  A    between atoms: N_14  and  C_15 
REMARK    4  A    between atoms: C_18  and  C_19 
REMARK    5  A    between atoms: C_19  and  O_20 
REMARK    6  A    between atoms: C_25  and  C_26 
ROOT
HETATM    1  C   UNL     1      28.187  43.823  53.473  1.00  0.00     0.097 C 
HETATM    2  N   UNL     1      27.530  44.886  52.677  1.00  0.00    -0.268 NA
HETATM    3  C   UNL     1      27.045  44.543  51.445  1.00  0.00     0.118 A 
HETATM    4  N   UNL     1      27.467  43.388  50.822  1.00  0.00    -0.245 N 
HETATM    5  N   UNL     1      26.988  43.229  49.582  1.00  0.00    -0.182 NA
HETATM    6  C   UNL     1      26.176  44.278  49.433  1.00  0.00     0.159 A 
HETATM    7  C   UNL     1      26.181  45.151  50.553  1.00  0.00     0.091 A 
HETATM    8  C   UNL     1      28.476  42.484  51.340  1.00  0.00     0.221 C 
HETATM    9  C   UNL     1      29.195  43.109  52.552  1.00  0.00     0.061 C 
HETATM   10  H   UNL     1      28.071  45.754  52.720  1.00  0.00     0.130 HD
ENDROOT
BRANCH   7  11
HETATM   11  C   UNL     1      25.423  46.391  50.637  1.00  0.00     0.261 C 
HETATM   12  N   UNL     1      25.065  46.930  49.416  1.00  0.00    -0.323 N 
HETATM   13  H   UNL     1      25.453  46.462  48.605  1.00  0.00     0.169 HD
HETATM   14  O   UNL     1      25.131  46.852  51.735  1.00  0.00    -0.267 OA
BRANCH  12  15
HETATM   15  C   UNL     1      24.163  47.991  49.186  1.00  0.00     0.035 A 
HETATM   16  C   UNL     1      24.553  49.318  48.999  1.00  0.00     0.030 A 
HETATM   17  C   UNL     1      23.603  50.337  48.855  1.00  0.00     0.012 A 
HETATM   18  C   UNL     1      22.234  50.054  48.902  1.00  0.00    -0.030 A 
HETATM   19  C   UNL     1      21.847  48.713  49.054  1.00  0.00     0.012 A 
HETATM   20  C   UNL     1      22.798  47.693  49.189  1.00  0.00     0.030 A 
BRANCH  18  21
HETATM   21  C   UNL     1      21.159  51.120  48.798  1.00  0.00     0.147 C 
HETATM   22  C   UNL     1      20.066  50.885  47.759  1.00  0.00     0.044 C 
BRANCH  21  23
HETATM   23  O   UNL     1      20.522  51.272  50.067  1.00  0.00    -0.391 OA
HETATM   24  H   UNL     1      20.749  50.492  50.602  1.00  0.00     0.210 HD
ENDBRANCH  21  23
ENDBRANCH  18  21
ENDBRANCH  12  15
ENDBRANCH   7  11
BRANCH   1  25
HETATM   25  C   UNL     1      28.748  44.394  54.769  1.00  0.00    -0.040 A 
HETATM   26  C   UNL     1      30.000  43.953  55.234  1.00  0.00     0.009 A 
HETATM   27  C   UNL     1      30.606  44.530  56.354  1.00  0.00     0.007 A 
HETATM   28  C   UNL     1      29.982  45.576  57.037  1.00  0.00    -0.062 A 
HETATM   29  C   UNL     1      30.668  46.253  58.186  1.00  0.00     0.048 C 
HETATM   30  C   UNL     1      28.745  46.035  56.578  1.00  0.00     0.007 A 
HETATM   31  C   UNL     1      28.135  45.450  55.464  1.00  0.00     0.009 A 
ENDBRANCH   1  25
BRANCH   8  32
HETATM   32  C   UNL     1      27.856  41.144  51.680  1.00  0.00     0.409 C 
HETATM   33  F   UNL     1      26.509  41.172  51.722  1.00  0.00    -0.169 F 
HETATM   34  F   UNL     1      28.188  40.235  50.724  1.00  0.00    -0.169 F 
HETATM   35  F   UNL     1      28.302  40.646  52.853  1.00  0.00    -0.169 F 
ENDBRANCH   8  32
TORSDOF 6
ENDMDL
MODEL 2
REMARK VINA RESULT:      -9.9      1.513      2.202
REMARK  6 active torsions:
REMARK  status: ('A' for Active; 'I' for Inactive)
REMARK    1  A    between atoms: C_5  and  C_6 
REMARK    2  A    between atoms: C_12  and  C_13 
REMARK       I    between atoms: C_13  and  N_14 
REMARK    3  A    between atoms: N_14  and  C_15 
REMARK    4  A    between atoms: C_18  and  C_19 
REMARK    5  A    between atoms: C_19  and  O_20 
REMARK    6  A    between atoms: C_25  and  C_26 
ROOT
HETATM    1  C   UNL     1      26.940  44.212  52.315  1.00  0.00     0.097 C 
HETATM    2  N   UNL     1      26.302  45.353  51.622  1.00  0.00    -0.268 NA
HETATM    3  C   UNL     1      25.581  45.082  50.491  1.00  0.00     0.118 A 
HETATM    4  N   UNL     1      25.745  43.886  49.825  1.00  0.00    -0.245 N 
HETATM    5  N   UNL     1      25.051  43.796  48.684  1.00  0.00    -0.182 NA
HETATM    6  C   UNL     1      24.366  44.941  48.654  1.00  0.00     0.159 A 
HETATM    7  C   UNL     1      24.665  45.800  49.743  1.00  0.00     0.091 A 
HETATM    8  C   UNL     1      26.702  42.858  50.186  1.00  0.00     0.221 C 
HETATM    9  C   UNL     1      27.684  43.379  51.253  1.00  0.00     0.061 C 
HETATM   10  H   UNL     1      26.948  46.145  51.561  1.00  0.00     0.130 HD
ENDROOT
BRANCH   7  11
HETATM   11  C   UNL     1      24.095  47.127  49.931  1.00  0.00     0.261 C 
HETATM   12  N   UNL     1      23.042  47.424  49.088  1.00  0.00    -0.323 N 
HETATM   13  H   UNL     1      22.851  46.732  48.372  1.00  0.00     0.169 HD
HETATM   14  O   UNL     1      24.540  47.861  50.806  1.00  0.00    -0.267 OA
BRANCH  12  15
HETATM   15  C   UNL     1      22.167  48.528  49.176  1.00  0.00     0.035 A 
HETATM   16  C   UNL     1      22.591  49.844  49.359  1.00  0.00     0.030 A 
HETATM   17  C   UNL     1      21.668  50.885  49.519  1.00  0.00     0.012 A 
HETATM   18  C   UNL     1      20.292  50.634  49.507  1.00  0.00    -0.030 A 
HETATM   19  C   UNL     1      19.870  49.312  49.286  1.00  0.00     0.012 A 
HETATM   20  C   UNL     1      20.794  48.273  49.118  1.00  0.00     0.030 A 
BRANCH  18  21
HETATM   21  C   UNL     1      19.246  51.711  49.720  1.00  0.00     0.147 C 
HETATM   22  C   UNL     1      18.821  52.501  48.485  1.00  0.00     0.044 C 
BRANCH  21  23
HETATM   23  O   UNL     1      18.071  51.124  50.281  1.00  0.00    -0.391 OA
HETATM   24  H   UNL     1      17.458  51.848  50.494  1.00  0.00     0.210 HD
ENDBRANCH  21  23
ENDBRANCH  18  21
ENDBRANCH  12  15
ENDBRANCH   7  11
BRANCH   1  25
HETATM   25  C   UNL     1      27.775  44.699  53.493  1.00  0.00    -0.040 A 
HETATM   26  C   UNL     1      27.350  45.826  54.222  1.00  0.00     0.009 A 
HETATM   27  C   UNL     1      28.020  46.240  55.377  1.00  0.00     0.007 A 
HETATM   28  C   UNL     1      29.128  45.532  55.847  1.00  0.00    -0.062 A 
HETATM   29  C   UNL     1      29.795  45.925  57.131  1.00  0.00     0.048 C 
HETATM   30  C   UNL     1      29.552  44.403  55.142  1.00  0.00     0.007 A 
HETATM   31  C   UNL     1      28.888  43.995  53.980  1.00  0.00     0.009 A 
ENDBRANCH   1  25
BRANCH   8  32
HETATM   32  C   UNL     1      25.982  41.606  50.644  1.00  0.00     0.409 C 
HETATM   33  F   UNL     1      25.812  40.696  49.663  1.00  0.00    -0.169 F 
HETATM   34  F   UNL     1      26.713  40.991  51.612  1.00  0.00    -0.169 F 
HETATM   35  F   UNL     1      24.773  41.868  51.186  1.00  0.00    -0.169 F 
ENDBRANCH   8  32
TORSDOF 6
ENDMDL
MODEL 3
REMARK VINA RESULT:      -9.4      4.591      8.131
REMARK  6 active torsions:
REMARK  status: ('A' for Active; 'I' for Inactive)
REMARK    1  A    between atoms: C_5  and  C_6 
REMARK    2  A    between atoms: C_12  and  C_13 
REMARK       I    between atoms: C_13  and  N_14 
REMARK    3  A    between atoms: N_14  and  C_15 
REMARK    4  A    between atoms: C_18  and  C_19 
REMARK    5  A    between atoms: C_19  and  O_20 
REMARK    6  A    between atoms: C_25  and  C_26 
ROOT
HETATM    1  C   UNL     1      27.763  44.501  53.295  1.00  0.00     0.097 C 
HETATM    2  N   UNL     1      27.454  43.206  52.646  1.00  0.00    -0.268 NA
HETATM    3  C   UNL     1      26.393  43.170  51.783  1.00  0.00     0.118 A 
HETATM    4  N   UNL     1      25.442  44.167  51.799  1.00  0.00    -0.245 N 
HETATM    5  N   UNL     1      24.411  43.952  50.972  1.00  0.00    -0.182 NA
HETATM    6  C   UNL     1      24.748  42.818  50.354  1.00  0.00     0.159 A 
HETATM    7  C   UNL     1      25.966  42.264  50.829  1.00  0.00     0.091 A 
HETATM    8  C   UNL     1      25.416  45.278  52.731  1.00  0.00     0.221 C 
HETATM    9  C   UNL     1      26.444  45.063  53.860  1.00  0.00     0.061 C 
HETATM   10  H   UNL     1      27.505  42.441  53.325  1.00  0.00     0.130 HD
ENDROOT
BRANCH   7  11
HETATM   11  C   UNL     1      26.541  41.011  50.361  1.00  0.00     0.261 C 
HETATM   12  N   UNL     1      25.930  40.481  49.241  1.00  0.00    -0.323 N 
HETATM   13  H   UNL     1      25.095  40.965  48.933  1.00  0.00     0.169 HD
HETATM   14  O   UNL     1      27.509  40.533  50.942  1.00  0.00    -0.267 OA
BRANCH  12  15
HETATM   15  C   UNL     1      26.392  39.409  48.448  1.00  0.00     0.035 A 
HETATM   16  C   UNL     1      26.583  38.112  48.926  1.00  0.00     0.030 A 
HETATM   17  C   UNL     1      27.120  37.112  48.107  1.00  0.00     0.012 A 
HETATM   18  C   UNL     1      27.488  37.385  46.785  1.00  0.00    -0.030 A 
HETATM   19  C   UNL     1      27.260  38.683  46.298  1.00  0.00     0.012 A 
HETATM   20  C   UNL     1      26.715  39.680  47.116  1.00  0.00     0.030 A 
BRANCH  18  21
HETATM   21  C   UNL     1      28.116  36.356  45.865  1.00  0.00     0.147 C 
HETATM   22  C   UNL     1      29.545  36.636  45.406  1.00  0.00     0.044 C 
BRANCH  21  23
HETATM   23  O   UNL     1      28.112  35.082  46.509  1.00  0.00    -0.391 OA
HETATM   24  H   UNL     1      28.690  34.494  45.994  1.00  0.00     0.210 HD
ENDBRANCH  21  23
ENDBRANCH  18  21
ENDBRANCH  12  15
ENDBRANCH   7  11
BRANCH   1  25
HETATM   25  C   UNL     1      28.907  44.343  54.289  1.00  0.00    -0.040 A 
HETATM   26  C   UNL     1      29.106  45.325  55.276  1.00  0.00     0.009 A 
HETATM   27  C   UNL     1      30.068  45.167  56.278  1.00  0.00     0.007 A 
HETATM   28  C   UNL     1      30.853  44.013  56.330  1.00  0.00    -0.062 A 
HETATM   29  C   UNL     1      31.826  43.803  57.452  1.00  0.00     0.048 C 
HETATM   30  C   UNL     1      30.656  43.022  55.366  1.00  0.00     0.007 A 
HETATM   31  C   UNL     1      29.701  43.186  54.357  1.00  0.00     0.009 A 
ENDBRANCH   1  25
BRANCH   8  32
HETATM   32  C   UNL     1      25.645  46.584  52.000  1.00  0.00     0.409 C 
HETATM   33  F   UNL     1      24.512  47.134  51.519  1.00  0.00    -0.169 F 
HETATM   34  F   UNL     1      26.178  47.496  52.856  1.00  0.00    -0.169 F 
HETATM   35  F   UNL     1      26.519  46.463  50.977  1.00  0.00    -0.169 F 
ENDBRANCH   8  32
TORSDOF 6
ENDMDL
MODEL 4
REMARK VINA RESULT:      -9.2      2.337      5.103
REMARK  6 active torsions:
REMARK  status: ('A' for Active; 'I' for Inactive)
REMARK    1  A    between atoms: C_5  and  C_6 
REMARK    2  A    between atoms: C_12  and  C_13 
REMARK       I    between atoms: C_13  and  N_14 
REMARK    3  A    between atoms: N_14  and  C_15 
REMARK    4  A    between atoms: C_18  and  C_19 
REMARK    5  A    between atoms: C_19  and  O_20 
REMARK    6  A    between atoms: C_25  and  C_26 
ROOT
HETATM    1  C   UNL     1      28.207  42.846  52.296  1.00  0.00     0.097 C 
HETATM    2  N   UNL     1      27.301  44.017  52.359  1.00  0.00    -0.268 NA
HETATM    3  C   UNL     1      27.427  44.854  53.433  1.00  0.00     0.118 A 
HETATM    4  N   UNL     1      28.087  44.441  54.571  1.00  0.00    -0.245 N 
HETATM    5  N   UNL     1      28.048  45.324  55.577  1.00  0.00    -0.182 NA
HETATM    6  C   UNL     1      27.405  46.365  55.043  1.00  0.00     0.159 A 
HETATM    7  C   UNL     1      26.970  46.130  53.712  1.00  0.00     0.091 A 
HETATM    8  C   UNL     1      28.636  43.115  54.779  1.00  0.00     0.221 C 
HETATM    9  C   UNL     1      28.167  42.152  53.670  1.00  0.00     0.061 C 
HETATM   10  H   UNL     1      26.345  43.746  52.112  1.00  0.00     0.130 HD
ENDROOT
BRANCH   7  11
HETATM   11  C   UNL     1      26.208  47.078  52.912  1.00  0.00     0.261 C 
HETATM   12  N   UNL     1      26.405  46.968  51.549  1.00  0.00    -0.323 N 
HETATM   13  H   UNL     1      27.126  46.315  51.266  1.00  0.00     0.169 HD
HETATM   14  O   UNL     1      25.446  47.864  53.463  1.00  0.00    -0.267 OA
BRANCH  12  15
HETATM   15  C   UNL     1      25.658  47.594  50.528  1.00  0.00     0.035 A 
HETATM   16  C   UNL     1      26.169  48.580  49.683  1.00  0.00     0.030 A 
HETATM   17  C   UNL     1      25.351  49.220  48.743  1.00  0.00     0.012 A 
HETATM   18  C   UNL     1      23.996  48.894  48.628  1.00  0.00    -0.030 A 
HETATM   19  C   UNL     1      23.495  47.876  49.457  1.00  0.00     0.012 A 
HETATM   20  C   UNL     1      24.316  47.230  50.391  1.00  0.00     0.030 A 
BRANCH  18  21
HETATM   21  C   UNL     1      23.052  49.583  47.662  1.00  0.00     0.147 C 
HETATM   22  C   UNL     1      21.626  49.817  48.154  1.00  0.00     0.044 C 
BRANCH  21  23
HETATM   23  O   UNL     1      23.595  50.852  47.295  1.00  0.00    -0.391 OA
HETATM   24  H   UNL     1      23.403  50.989  46.352  1.00  0.00     0.210 HD
ENDBRANCH  21  23
ENDBRANCH  18  21
ENDBRANCH  12  15
ENDBRANCH   7  11
BRANCH   1  25
HETATM   25  C   UNL     1      27.871  41.974  51.092  1.00  0.00    -0.040 A 
HETATM   26  C   UNL     1      27.170  42.533  50.008  1.00  0.00     0.009 A 
HETATM   27  C   UNL     1      26.940  41.805  48.836  1.00  0.00     0.007 A 
HETATM   28  C   UNL     1      27.417  40.498  48.708  1.00  0.00    -0.062 A 
HETATM   29  C   UNL     1      27.247  39.747  47.422  1.00  0.00     0.048 C 
HETATM   30  C   UNL     1      28.129  39.936  49.771  1.00  0.00     0.007 A 
HETATM   31  C   UNL     1      28.348  40.661  50.947  1.00  0.00     0.009 A 
ENDBRANCH   1  25
BRANCH   8  32
HETATM   32  C   UNL     1      30.146  43.180  54.870  1.00  0.00     0.409 C 
HETATM   33  F   UNL     1      30.640  42.624  55.995  1.00  0.00    -0.169 F 
HETATM   34  F   UNL     1      30.693  42.489  53.833  1.00  0.00    -0.169 F 
HETATM   35  F   UNL     1      30.621  44.440  54.782  1.00  0.00    -0.169 F 
ENDBRANCH   8  32
TORSDOF 6
ENDMDL
MODEL 5
REMARK VINA RESULT:      -9.1      3.164      9.199
REMARK  6 active torsions:
REMARK  status: ('A' for Active; 'I' for Inactive)
REMARK    1  A    between atoms: C_5  and  C_6 
REMARK    2  A    between atoms: C_12  and  C_13 
REMARK       I    between atoms: C_13  and  N_14 
REMARK    3  A    between atoms: N_14  and  C_15 
REMARK    4  A    between atoms: C_18  and  C_19 
REMARK    5  A    between atoms: C_19  and  O_20 
REMARK    6  A    between atoms: C_25  and  C_26 
ROOT
HETATM    1  C   UNL     1      22.392  46.621  48.428  1.00  0.00     0.097 C 
HETATM    2  N   UNL     1      23.252  46.433  49.619  1.00  0.00    -0.268 NA
HETATM    3  C   UNL     1      23.739  45.177  49.853  1.00  0.00     0.118 A 
HETATM    4  N   UNL     1      23.170  44.079  49.244  1.00  0.00    -0.245 N 
HETATM    5  N   UNL     1      23.682  42.907  49.641  1.00  0.00    -0.182 NA
HETATM    6  C   UNL     1      24.659  43.269  50.475  1.00  0.00     0.159 A 
HETATM    7  C   UNL     1      24.736  44.673  50.670  1.00  0.00     0.091 A 
HETATM    8  C   UNL     1      22.004  44.117  48.384  1.00  0.00     0.221 C 
HETATM    9  C   UNL     1      21.332  45.503  48.439  1.00  0.00     0.061 C 
HETATM   10  H   UNL     1      22.856  46.918  50.430  1.00  0.00     0.130 HD
ENDROOT
BRANCH   7  11
HETATM   11  C   UNL     1      25.679  45.333  51.562  1.00  0.00     0.261 C 
HETATM   12  N   UNL     1      25.909  44.666  52.749  1.00  0.00    -0.323 N 
HETATM   13  H   UNL     1      25.327  43.853  52.910  1.00  0.00     0.169 HD
HETATM   14  O   UNL     1      26.213  46.380  51.214  1.00  0.00    -0.267 OA
BRANCH  12  15
HETATM   15  C   UNL     1      26.913  44.947  53.701  1.00  0.00     0.035 A 
HETATM   16  C   UNL     1      26.961  46.116  54.461  1.00  0.00     0.030 A 
HETATM   17  C   UNL     1      28.029  46.369  55.331  1.00  0.00     0.012 A 
HETATM   18  C   UNL     1      29.083  45.459  55.459  1.00  0.00    -0.030 A 
HETATM   19  C   UNL     1      29.012  44.267  54.718  1.00  0.00     0.012 A 
HETATM   20  C   UNL     1      27.939  44.011  53.855  1.00  0.00     0.030 A 
BRANCH  18  21
HETATM   21  C   UNL     1      30.288  45.698  56.349  1.00  0.00     0.147 C 
HETATM   22  C   UNL     1      30.002  45.957  57.825  1.00  0.00     0.044 C 
BRANCH  21  23
HETATM   23  O   UNL     1      31.163  44.572  56.270  1.00  0.00    -0.391 OA
HETATM   24  H   UNL     1      31.404  44.328  57.180  1.00  0.00     0.210 HD
ENDBRANCH  21  23
ENDBRANCH  18  21
ENDBRANCH  12  15
ENDBRANCH   7  11
BRANCH   1  25
HETATM   25  C   UNL     1      21.863  48.049  48.370  1.00  0.00    -0.040 A 
HETATM   26  C   UNL     1      20.677  48.318  47.662  1.00  0.00     0.009 A 
HETATM   27  C   UNL     1      20.093  49.588  47.676  1.00  0.00     0.007 A 
HETATM   28  C   UNL     1      20.671  50.626  48.410  1.00  0.00    -0.062 A 
HETATM   29  C   UNL     1      20.001  51.965  48.496  1.00  0.00     0.048 C 
HETATM   30  C   UNL     1      21.840  50.370  49.130  1.00  0.00     0.007 A 
HETATM   31  C   UNL     1      22.430  49.102  49.106  1.00  0.00     0.009 A 
ENDBRANCH   1  25
BRANCH   8  32
HETATM   32  C   UNL     1      22.381  43.728  46.970  1.00  0.00     0.409 C 
HETATM   33  F   UNL     1      23.678  43.955  46.679  1.00  0.00    -0.169 F 
HETATM   34  F   UNL     1      22.180  42.394  46.797  1.00  0.00    -0.169 F 
HETATM   35  F   UNL     1      21.627  44.351  46.038  1.00  0.00    -0.169 F 
ENDBRANCH   8  32
TORSDOF 6
ENDMDL
MODEL 6
REMARK VINA RESULT:      -9.0      3.099      8.943
REMARK  6 active torsions:
REMARK  status: ('A' for Active; 'I' for Inactive)
REMARK    1  A    between atoms: C_5  and  C_6 
REMARK    2  A    between atoms: C_12  and  C_13 
REMARK       I    between atoms: C_13  and  N_14 
REMARK    3  A    between atoms: N_14  and  C_15 
REMARK    4  A    between atoms: C_18  and  C_19 
REMARK    5  A    between atoms: C_19  and  O_20 
REMARK    6  A    between atoms: C_25  and  C_26 
ROOT
HETATM    1  C   UNL     1      23.566  45.213  48.943  1.00  0.00     0.097 C 
HETATM    2  N   UNL     1      24.573  44.984  50.004  1.00  0.00    -0.268 NA
HETATM    3  C   UNL     1      24.975  43.696  50.226  1.00  0.00     0.118 A 
HETATM    4  N   UNL     1      24.225  42.637  49.760  1.00  0.00    -0.245 N 
HETATM    5  N   UNL     1      24.683  41.436  50.134  1.00  0.00    -0.182 NA
HETATM    6  C   UNL     1      25.802  41.731  50.799  1.00  0.00     0.159 A 
HETATM    7  C   UNL     1      26.033  43.127  50.912  1.00  0.00     0.091 A 
HETATM    8  C   UNL     1      22.951  42.757  49.076  1.00  0.00     0.221 C 
HETATM    9  C   UNL     1      22.423  44.203  49.161  1.00  0.00     0.061 C 
HETATM   10  H   UNL     1      24.348  45.533  50.839  1.00  0.00     0.130 HD
ENDROOT
BRANCH   7  11
HETATM   11  C   UNL     1      27.153  43.724  51.625  1.00  0.00     0.261 C 
HETATM   12  N   UNL     1      27.198  43.431  52.974  1.00  0.00    -0.323 N 
HETATM   13  H   UNL     1      26.399  42.921  53.333  1.00  0.00     0.169 HD
HETATM   14  O   UNL     1      27.973  44.399  51.012  1.00  0.00    -0.267 OA
BRANCH  12  15
HETATM   15  C   UNL     1      28.261  43.686  53.865  1.00  0.00     0.035 A 
HETATM   16  C   UNL     1      29.355  42.836  54.037  1.00  0.00     0.030 A 
HETATM   17  C   UNL     1      30.337  43.108  54.998  1.00  0.00     0.012 A 
HETATM   18  C   UNL     1      30.247  44.237  55.819  1.00  0.00    -0.030 A 
HETATM   19  C   UNL     1      29.163  45.108  55.618  1.00  0.00     0.012 A 
HETATM   20  C   UNL     1      28.186  44.840  54.651  1.00  0.00     0.030 A 
BRANCH  18  21
HETATM   21  C   UNL     1      31.254  44.559  56.906  1.00  0.00     0.147 C 
HETATM   22  C   UNL     1      30.727  45.326  58.116  1.00  0.00     0.044 C 
BRANCH  21  23
HETATM   23  O   UNL     1      31.836  43.346  57.385  1.00  0.00    -0.391 OA
HETATM   24  H   UNL     1      31.840  43.390  58.356  1.00  0.00     0.210 HD
ENDBRANCH  21  23
ENDBRANCH  18  21
ENDBRANCH  12  15
ENDBRANCH   7  11
BRANCH   1  25
HETATM   25  C   UNL     1      23.164  46.682  48.892  1.00  0.00    -0.040 A 
HETATM   26  C   UNL     1      23.968  47.640  49.537  1.00  0.00     0.009 A 
HETATM   27  C   UNL     1      23.704  49.008  49.422  1.00  0.00     0.007 A 
HETATM   28  C   UNL     1      22.634  49.461  48.647  1.00  0.00    -0.062 A 
HETATM   29  C   UNL     1      22.400  50.930  48.453  1.00  0.00     0.048 C 
HETATM   30  C   UNL     1      21.837  48.522  47.988  1.00  0.00     0.007 A 
HETATM   31  C   UNL     1      22.095  47.152  48.113  1.00  0.00     0.009 A 
ENDBRANCH   1  25
BRANCH   8  32
HETATM   32  C   UNL     1      23.077  42.285  47.643  1.00  0.00     0.409 C 
HETATM   33  F   UNL     1      22.787  40.978  47.482  1.00  0.00    -0.169 F 
HETATM   34  F   UNL     1      22.198  42.969  46.861  1.00  0.00    -0.169 F 
HETATM   35  F   UNL     1      24.304  42.509  47.125  1.00  0.00    -0.169 F 
ENDBRANCH   8  32
TORSDOF 6
ENDMDL
MODEL 7
REMARK VINA RESULT:      -8.9      2.529      4.083
REMARK  6 active torsions:
REMARK  status: ('A' for Active; 'I' for Inactive)
REMARK    1  A    between atoms: C_5  and  C_6 
REMARK    2  A    between atoms: C_12  and  C_13 
REMARK       I    between atoms: C_13  and  N_14 
REMARK    3  A    between atoms: N_14  and  C_15 
REMARK    4  A    between atoms: C_18  and  C_19 
REMARK    5  A    between atoms: C_19  and  O_20 
REMARK    6  A    between atoms: C_25  and  C_26 
ROOT
HETATM    1  C   UNL     1      25.310  44.990  51.331  1.00  0.00     0.097 C 
HETATM    2  N   UNL     1      24.661  46.132  50.648  1.00  0.00    -0.268 NA
HETATM    3  C   UNL     1      23.914  45.859  49.535  1.00  0.00     0.118 A 
HETATM    4  N   UNL     1      24.057  44.660  48.871  1.00  0.00    -0.245 N 
HETATM    5  N   UNL     1      23.337  44.569  47.745  1.00  0.00    -0.182 NA
HETATM    6  C   UNL     1      22.656  45.717  47.726  1.00  0.00     0.159 A 
HETATM    7  C   UNL     1      22.984  46.579  48.805  1.00  0.00     0.091 A 
HETATM    8  C   UNL     1      25.017  43.629  49.213  1.00  0.00     0.221 C 
HETATM    9  C   UNL     1      26.026  44.150  50.256  1.00  0.00     0.061 C 
HETATM   10  H   UNL     1      25.309  46.921  50.569  1.00  0.00     0.130 HD
ENDROOT
BRANCH   7  11
HETATM   11  C   UNL     1      22.424  47.908  49.001  1.00  0.00     0.261 C 
HETATM   12  N   UNL     1      21.117  48.049  48.578  1.00  0.00    -0.323 N 
HETATM   13  H   UNL     1      20.730  47.248  48.092  1.00  0.00     0.169 HD
HETATM   14  O   UNL     1      23.102  48.781  49.532  1.00  0.00    -0.267 OA
BRANCH  12  15
HETATM   15  C   UNL     1      20.254  49.138  48.827  1.00  0.00     0.035 A 
HETATM   16  C   UNL     1      19.299  49.158  49.844  1.00  0.00     0.030 A 
HETATM   17  C   UNL     1      18.419  50.238  49.987  1.00  0.00     0.012 A 
HETATM   18  C   UNL     1      18.467  51.326  49.109  1.00  0.00    -0.030 A 
HETATM   19  C   UNL     1      19.454  51.317  48.109  1.00  0.00     0.012 A 
HETATM   20  C   UNL     1      20.340  50.240  47.973  1.00  0.00     0.030 A 
BRANCH  18  21
HETATM   21  C   UNL     1      17.512  52.502  49.185  1.00  0.00     0.147 C 
HETATM   22  C   UNL     1      16.245  52.405  48.339  1.00  0.00     0.044 C 
BRANCH  21  23
HETATM   23  O   UNL     1      17.111  52.697  50.542  1.00  0.00    -0.391 OA
HETATM   24  H   UNL     1      16.145  52.812  50.545  1.00  0.00     0.210 HD
ENDBRANCH  21  23
ENDBRANCH  18  21
ENDBRANCH  12  15
ENDBRANCH   7  11
BRANCH   1  25
HETATM   25  C   UNL     1      26.173  45.478  52.488  1.00  0.00    -0.040 A 
HETATM   26  C   UNL     1      25.905  46.731  53.069  1.00  0.00     0.009 A 
HETATM   27  C   UNL     1      26.595  47.171  54.203  1.00  0.00     0.007 A 
HETATM   28  C   UNL     1      27.566  46.363  54.800  1.00  0.00    -0.062 A 
HETATM   29  C   UNL     1      28.246  46.795  56.065  1.00  0.00     0.048 C 
HETATM   30  C   UNL     1      27.832  45.110  54.243  1.00  0.00     0.007 A 
HETATM   31  C   UNL     1      27.149  44.676  53.101  1.00  0.00     0.009 A 
ENDBRANCH   1  25
BRANCH   8  32
HETATM   32  C   UNL     1      24.303  42.383  49.692  1.00  0.00     0.409 C 
HETATM   33  F   UNL     1      23.103  42.635  50.254  1.00  0.00    -0.169 F 
HETATM   34  F   UNL     1      24.062  41.562  48.634  1.00  0.00    -0.169 F 
HETATM   35  F   UNL     1      25.035  41.667  50.572  1.00  0.00    -0.169 F 
ENDBRANCH   8  32
TORSDOF 6
ENDMDL
MODEL 8
REMARK VINA RESULT:      -8.8      3.606      8.549
REMARK  6 active torsions:
REMARK  status: ('A' for Active; 'I' for Inactive)
REMARK    1  A    between atoms: C_5  and  C_6 
REMARK    2  A    between atoms: C_12  and  C_13 
REMARK       I    between atoms: C_13  and  N_14 
REMARK    3  A    between atoms: N_14  and  C_15 
REMARK    4  A    between atoms: C_18  and  C_19 
REMARK    5  A    between atoms: C_19  and  O_20 
REMARK    6  A    between atoms: C_25  and  C_26 
ROOT
HETATM    1  C   UNL     1      25.694  42.149  49.807  1.00  0.00     0.097 C 
HETATM    2  N   UNL     1      26.335  43.172  50.664  1.00  0.00    -0.268 NA
HETATM    3  C   UNL     1      25.654  44.341  50.869  1.00  0.00     0.118 A 
HETATM    4  N   UNL     1      24.616  44.702  50.038  1.00  0.00    -0.245 N 
HETATM    5  N   UNL     1      24.107  45.914  50.294  1.00  0.00    -0.182 NA
HETATM    6  C   UNL     1      24.791  46.310  51.369  1.00  0.00     0.159 A 
HETATM    7  C   UNL     1      25.789  45.383  51.769  1.00  0.00     0.091 A 
HETATM    8  C   UNL     1      24.191  43.961  48.866  1.00  0.00     0.221 C 
HETATM    9  C   UNL     1      25.208  42.853  48.526  1.00  0.00     0.061 C 
HETATM   10  H   UNL     1      27.328  43.268  50.430  1.00  0.00     0.130 HD
ENDROOT
BRANCH   7  11
HETATM   11  C   UNL     1      26.708  45.585  52.880  1.00  0.00     0.261 C 
HETATM   12  N   UNL     1      27.413  44.458  53.255  1.00  0.00    -0.323 N 
HETATM   13  H   UNL     1      27.141  43.601  52.787  1.00  0.00     0.169 HD
HETATM   14  O   UNL     1      26.822  46.699  53.379  1.00  0.00    -0.267 OA
BRANCH  12  15
HETATM   15  C   UNL     1      28.509  44.395  54.142  1.00  0.00     0.035 A 
HETATM   16  C   UNL     1      29.479  43.393  54.111  1.00  0.00     0.030 A 
HETATM   17  C   UNL     1      30.498  43.344  55.071  1.00  0.00     0.012 A 
HETATM   18  C   UNL     1      30.568  44.295  56.094  1.00  0.00    -0.030 A 
HETATM   19  C   UNL     1      29.610  45.323  56.099  1.00  0.00     0.012 A 
HETATM   20  C   UNL     1      28.597  45.376  55.133  1.00  0.00     0.030 A 
BRANCH  18  21
HETATM   21  C   UNL     1      31.619  44.268  57.187  1.00  0.00     0.147 C 
HETATM   22  C   UNL     1      31.270  44.990  58.485  1.00  0.00     0.044 C 
BRANCH  21  23
HETATM   23  O   UNL     1      31.922  42.911  57.516  1.00  0.00    -0.391 OA
HETATM   24  H   UNL     1      32.594  42.602  56.884  1.00  0.00     0.210 HD
ENDBRANCH  21  23
ENDBRANCH  18  21
ENDBRANCH  12  15
ENDBRANCH   7  11
BRANCH   1  25
HETATM   25  C   UNL     1      26.622  40.957  49.609  1.00  0.00    -0.040 A 
HETATM   26  C   UNL     1      26.628  40.284  48.374  1.00  0.00     0.009 A 
HETATM   27  C   UNL     1      27.542  39.260  48.107  1.00  0.00     0.007 A 
HETATM   28  C   UNL     1      28.489  38.887  49.064  1.00  0.00    -0.062 A 
HETATM   29  C   UNL     1      29.524  37.849  48.749  1.00  0.00     0.048 C 
HETATM   30  C   UNL     1      28.505  39.558  50.290  1.00  0.00     0.007 A 
HETATM   31  C   UNL     1      27.583  40.575  50.560  1.00  0.00     0.009 A 
ENDBRANCH   1  25
BRANCH   8  32
HETATM   32  C   UNL     1      22.798  43.404  49.072  1.00  0.00     0.409 C 
HETATM   33  F   UNL     1      21.823  44.224  48.631  1.00  0.00    -0.169 F 
HETATM   34  F   UNL     1      22.665  42.244  48.375  1.00  0.00    -0.169 F 
HETATM   35  F   UNL     1      22.542  43.105  50.364  1.00  0.00    -0.169 F 
ENDBRANCH   8  32
TORSDOF 6
ENDMDL
MODEL 9
REMARK VINA RESULT:      -8.7     16.757     19.397
REMARK  6 active torsions:
REMARK  status: ('A' for Active; 'I' for Inactive)
REMARK    1  A    between atoms: C_5  and  C_6 
REMARK    2  A    between atoms: C_12  and  C_13 
REMARK       I    between atoms: C_13  and  N_14 
REMARK    3  A    between atoms: N_14  and  C_15 
REMARK    4  A    between atoms: C_18  and  C_19 
REMARK    5  A    between atoms: C_19  and  O_20 
REMARK    6  A    between atoms: C_25  and  C_26 
ROOT
HETATM    1  C   UNL     1      40.716  45.290  64.620  1.00  0.00     0.097 C 
HETATM    2  N   UNL     1      39.657  46.290  64.887  1.00  0.00    -0.268 NA
HETATM    3  C   UNL     1      38.366  45.930  64.616  1.00  0.00     0.118 A 
HETATM    4  N   UNL     1      38.094  44.853  63.800  1.00  0.00    -0.245 N 
HETATM    5  N   UNL     1      36.792  44.676  63.542  1.00  0.00    -0.182 NA
HETATM    6  C   UNL     1      36.206  45.625  64.275  1.00  0.00     0.159 A 
HETATM    7  C   UNL     1      37.133  46.458  64.955  1.00  0.00     0.091 A 
HETATM    8  C   UNL     1      39.093  44.060  63.110  1.00  0.00     0.221 C 
HETATM    9  C   UNL     1      40.479  44.728  63.205  1.00  0.00     0.061 C 
HETATM   10  H   UNL     1      39.943  47.215  64.552  1.00  0.00     0.130 HD
ENDROOT
BRANCH   7  11
HETATM   11  C   UNL     1      36.766  47.597  65.786  1.00  0.00     0.261 C 
HETATM   12  N   UNL     1      37.817  48.433  66.110  1.00  0.00    -0.323 N 
HETATM   13  H   UNL     1      38.733  48.110  65.821  1.00  0.00     0.169 HD
HETATM   14  O   UNL     1      35.596  47.759  66.112  1.00  0.00    -0.267 OA
BRANCH  12  15
HETATM   15  C   UNL     1      37.736  49.707  66.712  1.00  0.00     0.035 A 
HETATM   16  C   UNL     1      37.416  49.915  68.054  1.00  0.00     0.030 A 
HETATM   17  C   UNL     1      37.273  51.209  68.570  1.00  0.00     0.012 A 
HETATM   18  C   UNL     1      37.439  52.332  67.752  1.00  0.00    -0.030 A 
HETATM   19  C   UNL     1      37.796  52.117  66.411  1.00  0.00     0.012 A 
HETATM   20  C   UNL     1      37.948  50.823  65.897  1.00  0.00     0.030 A 
BRANCH  18  21
HETATM   21  C   UNL     1      37.252  53.755  68.242  1.00  0.00     0.147 C 
HETATM   22  C   UNL     1      37.186  54.840  67.171  1.00  0.00     0.044 C 
BRANCH  21  23
HETATM   23  O   UNL     1      36.052  53.835  69.012  1.00  0.00    -0.391 OA
HETATM   24  H   UNL     1      35.527  53.040  68.815  1.00  0.00     0.210 HD
ENDBRANCH  21  23
ENDBRANCH  18  21
ENDBRANCH  12  15
ENDBRANCH   7  11
BRANCH   1  25
HETATM   25  C   UNL     1      42.093  45.883  64.886  1.00  0.00    -0.040 A 
HETATM   26  C   UNL     1      43.155  45.585  64.012  1.00  0.00     0.009 A 
HETATM   27  C   UNL     1      44.405  46.196  64.150  1.00  0.00     0.007 A 
HETATM   28  C   UNL     1      44.628  47.135  65.159  1.00  0.00    -0.062 A 
HETATM   29  C   UNL     1      45.941  47.854  65.256  1.00  0.00     0.048 C 
HETATM   30  C   UNL     1      43.578  47.453  66.025  1.00  0.00     0.007 A 
HETATM   31  C   UNL     1      42.331  46.833  65.893  1.00  0.00     0.009 A 
ENDBRANCH   1  25
BRANCH   8  32
HETATM   32  C   UNL     1      39.110  42.646  63.654  1.00  0.00     0.409 C 
HETATM   33  F   UNL     1      38.273  41.812  63.004  1.00  0.00    -0.169 F 
HETATM   34  F   UNL     1      40.356  42.121  63.514  1.00  0.00    -0.169 F 
HETATM   35  F   UNL     1      38.817  42.590  64.971  1.00  0.00    -0.169 F 
ENDBRANCH   8  32
TORSDOF 6
ENDMDL
MODEL 10
REMARK VINA RESULT:      -8.6      7.056      9.960
REMARK  6 active torsions:
REMARK  status: ('A' for Active; 'I' for Inactive)
REMARK    1  A    between atoms: C_5  and  C_6 
REMARK    2  A    between atoms: C_12  and  C_13 
REMARK       I    between atoms: C_13  and  N_14 
REMARK    3  A    between atoms: N_14  and  C_15 
REMARK    4  A    between atoms: C_18  and  C_19 
REMARK    5  A    between atoms: C_19  and  O_20 
REMARK    6  A    between atoms: C_25  and  C_26 
ROOT
HETATM    1  C   UNL     1      21.939  49.370  48.633  1.00  0.00     0.097 C 
HETATM    2  N   UNL     1      21.355  48.010  48.652  1.00  0.00    -0.268 NA
HETATM    3  C   UNL     1      19.992  47.907  48.586  1.00  0.00     0.118 A 
HETATM    4  N   UNL     1      19.193  48.995  48.863  1.00  0.00    -0.245 N 
HETATM    5  N   UNL     1      17.881  48.726  48.856  1.00  0.00    -0.182 NA
HETATM    6  C   UNL     1      17.836  47.442  48.493  1.00  0.00     0.159 A 
HETATM    7  C   UNL     1      19.122  46.863  48.328  1.00  0.00     0.091 A 
HETATM    8  C   UNL     1      19.674  50.291  49.303  1.00  0.00     0.221 C 
HETATM    9  C   UNL     1      21.171  50.221  49.663  1.00  0.00     0.061 C 
HETATM   10  H   UNL     1      21.813  47.431  49.361  1.00  0.00     0.130 HD
ENDROOT
BRANCH   7  11
HETATM   11  C   UNL     1      19.362  45.470  47.980  1.00  0.00     0.261 C 
HETATM   12  N   UNL     1      20.540  45.245  47.295  1.00  0.00    -0.323 N 
HETATM   13  H   UNL     1      21.051  46.077  47.025  1.00  0.00     0.169 HD
HETATM   14  O   UNL     1      18.559  44.610  48.323  1.00  0.00    -0.267 OA
BRANCH  12  15
HETATM   15  C   UNL     1      21.136  43.996  47.015  1.00  0.00     0.035 A 
HETATM   16  C   UNL     1      20.649  43.095  46.068  1.00  0.00     0.030 A 
HETATM   17  C   UNL     1      21.241  41.837  45.896  1.00  0.00     0.012 A 
HETATM   18  C   UNL     1      22.334  41.444  46.675  1.00  0.00    -0.030 A 
HETATM   19  C   UNL     1      22.842  42.368  47.603  1.00  0.00     0.012 A 
HETATM   20  C   UNL     1      22.256  43.630  47.768  1.00  0.00     0.030 A 
BRANCH  18  21
HETATM   21  C   UNL     1      22.987  40.080  46.567  1.00  0.00     0.147 C 
HETATM   22  C   UNL     1      24.420  39.969  47.080  1.00  0.00     0.044 C 
BRANCH  21  23
HETATM   23  O   UNL     1      22.199  39.122  47.276  1.00  0.00    -0.391 OA
HETATM   24  H   UNL     1      22.225  38.293  46.769  1.00  0.00     0.210 HD
ENDBRANCH  21  23
ENDBRANCH  18  21
ENDBRANCH  12  15
ENDBRANCH   7  11
BRANCH   1  25
HETATM   25  C   UNL     1      23.451  49.306  48.807  1.00  0.00    -0.040 A 
HETATM   26  C   UNL     1      24.014  48.280  49.588  1.00  0.00     0.009 A 
HETATM   27  C   UNL     1      25.399  48.113  49.683  1.00  0.00     0.007 A 
HETATM   28  C   UNL     1      26.264  48.961  48.988  1.00  0.00    -0.062 A 
HETATM   29  C   UNL     1      27.746  48.732  49.020  1.00  0.00     0.048 C 
HETATM   30  C   UNL     1      25.719  49.975  48.196  1.00  0.00     0.007 A 
HETATM   31  C   UNL     1      24.334  50.148  48.111  1.00  0.00     0.009 A 
ENDBRANCH   1  25
BRANCH   8  32
HETATM   32  C   UNL     1      19.396  51.341  48.248  1.00  0.00     0.409 C 
HETATM   33  F   UNL     1      18.185  51.920  48.375  1.00  0.00    -0.169 F 
HETATM   34  F   UNL     1      20.310  52.343  48.353  1.00  0.00    -0.169 F 
HETATM   35  F   UNL     1      19.500  50.859  46.991  1.00  0.00    -0.169 F 
ENDBRANCH   8  32
TORSDOF 6
ENDMDL
