MODEL 1
REMARK VINA RESULT:      -9.3      0.000      0.000
REMARK  4 active torsions:
REMARK  status: ('A' for Active; 'I' for Inactive)
REMARK    1  A    between atoms: C_6  and  N_7 
REMARK       I    between atoms: N_7  and  C_8 
REMARK    2  A    between atoms: C_8  and  C_9 
REMARK    3  A    between atoms: C_10  and  C_11 
REMARK    4  A    between atoms: C_14  and  O_15 
ROOT
HETATM    1  C   UNL     1      26.777  44.783  52.019  1.00  0.00     0.131 C 
HETATM    2  C   UNL     1      28.021  43.887  51.773  1.00  0.00     0.177 C 
HETATM    3  N   UNL     1      27.603  42.595  51.217  1.00  0.00    -0.088 N 
HETATM    4  C   UNL     1      26.322  42.104  51.233  1.00  0.00     0.721 A 
HETATM    5  N   UNL     1      25.289  42.834  51.710  1.00  0.00    -0.218 N 
HETATM    6  C   UNL     1      25.596  43.963  52.589  1.00  0.00     0.111 C 
HETATM    7  C   UNL     1      24.340  44.798  52.823  1.00  0.00     0.034 C 
HETATM    8  N   UNL     1      28.418  41.784  50.511  1.00  0.00    -0.149 NA
HETATM    9  C   UNL     1      27.583  40.785  50.209  1.00  0.00     0.275 A 
HETATM   10  N   UNL     1      26.291  40.945  50.631  1.00  0.00    -0.055 NA
HETATM   11  H   UNL     1      24.463  42.287  51.960  1.00  0.00     0.178 HD
ENDROOT
BRANCH   1  12
HETATM   12  C   UNL     1      26.484  45.567  50.731  1.00  0.00     0.230 C 
HETATM   13  N   UNL     1      25.907  46.801  50.910  1.00  0.00    -0.326 N 
HETATM   14  H   UNL     1      25.757  47.055  51.887  1.00  0.00     0.169 HD
HETATM   15  O   UNL     1      26.707  45.000  49.666  1.00  0.00    -0.273 OA
BRANCH  13  16
HETATM   16  C   UNL     1      25.461  47.801  50.013  1.00  0.00     0.040 A 
HETATM   17  C   UNL     1      26.220  48.696  49.240  1.00  0.00    -0.035 A 
HETATM   18  C   UNL     1      25.544  49.608  48.391  1.00  0.00     0.015 A 
HETATM   19  C   UNL     1      27.717  48.792  49.235  1.00  0.00     0.050 C 
HETATM   20  C   UNL     1      24.148  49.665  48.311  1.00  0.00    -0.061 A 
HETATM   21  C   UNL     1      23.459  50.647  47.411  1.00  0.00     0.048 C 
HETATM   22  C   UNL     1      23.405  48.794  49.096  1.00  0.00     0.009 A 
HETATM   23  C   UNL     1      24.053  47.881  49.930  1.00  0.00     0.030 A 
ENDBRANCH  13  16
ENDBRANCH   1  12
BRANCH   2  24
HETATM   24  C   UNL     1      28.943  43.669  52.983  1.00  0.00    -0.032 A 
HETATM   25  C   UNL     1      29.973  42.719  53.027  1.00  0.00     0.012 A 
HETATM   26  C   UNL     1      30.781  42.582  54.162  1.00  0.00     0.037 A 
HETATM   27  C   UNL     1      30.590  43.391  55.281  1.00  0.00     0.068 A 
HETATM   28  C   UNL     1      29.558  44.321  55.269  1.00  0.00     0.037 A 
HETATM   29  C   UNL     1      28.743  44.453  54.137  1.00  0.00     0.012 A 
BRANCH  27  30
HETATM   30  O   UNL     1      31.460  43.162  56.311  1.00  0.00    -0.356 OA
HETATM   31  C   UNL     1      31.353  44.026  57.436  1.00  0.00     0.210 C 
ENDBRANCH  27  30
ENDBRANCH   2  24
TORSDOF 4
ENDMDL
MODEL 2
REMARK VINA RESULT:      -8.8      6.355      9.628
REMARK  4 active torsions:
REMARK  status: ('A' for Active; 'I' for Inactive)
REMARK    1  A    between atoms: C_6  and  N_7 
REMARK       I    between atoms: N_7  and  C_8 
REMARK    2  A    between atoms: C_8  and  C_9 
REMARK    3  A    between atoms: C_10  and  C_11 
REMARK    4  A    between atoms: C_14  and  O_15 
ROOT
HETATM    1  C   UNL     1      19.826  49.271  48.750  1.00  0.00     0.131 C 
HETATM    2  C   UNL     1      20.867  48.619  47.800  1.00  0.00     0.177 C 
HETATM    3  N   UNL     1      20.652  47.169  47.746  1.00  0.00    -0.088 N 
HETATM    4  C   UNL     1      19.901  46.446  48.637  1.00  0.00     0.721 A 
HETATM    5  N   UNL     1      19.207  47.047  49.630  1.00  0.00    -0.218 N 
HETATM    6  C   UNL     1      19.593  48.405  50.010  1.00  0.00     0.111 C 
HETATM    7  C   UNL     1      18.556  48.995  50.963  1.00  0.00     0.034 C 
HETATM    8  N   UNL     1      21.076  46.387  46.731  1.00  0.00    -0.149 NA
HETATM    9  C   UNL     1      20.619  45.194  47.123  1.00  0.00     0.275 A 
HETATM   10  N   UNL     1      19.893  45.188  48.283  1.00  0.00    -0.055 NA
HETATM   11  H   UNL     1      18.945  46.427  50.398  1.00  0.00     0.178 HD
ENDROOT
BRANCH   1  12
HETATM   12  C   UNL     1      18.571  49.609  47.932  1.00  0.00     0.230 C 
HETATM   13  N   UNL     1      18.315  50.949  47.770  1.00  0.00    -0.326 N 
HETATM   14  H   UNL     1      19.005  51.562  48.205  1.00  0.00     0.169 HD
HETATM   15  O   UNL     1      17.867  48.671  47.570  1.00  0.00    -0.273 OA
BRANCH  13  16
HETATM   16  C   UNL     1      17.275  51.667  47.132  1.00  0.00     0.040 A 
HETATM   17  C   UNL     1      16.022  52.047  47.644  1.00  0.00    -0.035 A 
HETATM   18  C   UNL     1      15.141  52.785  46.813  1.00  0.00     0.015 A 
HETATM   19  C   UNL     1      15.507  51.731  49.017  1.00  0.00     0.050 C 
HETATM   20  C   UNL     1      15.463  53.127  45.495  1.00  0.00    -0.061 A 
HETATM   21  C   UNL     1      14.508  53.899  44.635  1.00  0.00     0.048 C 
HETATM   22  C   UNL     1      16.693  52.726  44.989  1.00  0.00     0.009 A 
HETATM   23  C   UNL     1      17.578  52.009  45.796  1.00  0.00     0.030 A 
ENDBRANCH  13  16
ENDBRANCH   1  12
BRANCH   2  24
HETATM   24  C   UNL     1      22.342  48.924  48.108  1.00  0.00    -0.032 A 
HETATM   25  C   UNL     1      23.174  48.097  48.876  1.00  0.00     0.012 A 
HETATM   26  C   UNL     1      24.513  48.434  49.107  1.00  0.00     0.037 A 
HETATM   27  C   UNL     1      25.062  49.600  48.575  1.00  0.00     0.068 A 
HETATM   28  C   UNL     1      24.249  50.447  47.832  1.00  0.00     0.037 A 
HETATM   29  C   UNL     1      22.906  50.115  47.608  1.00  0.00     0.012 A 
BRANCH  27  30
HETATM   30  O   UNL     1      26.383  49.797  48.865  1.00  0.00    -0.356 OA
HETATM   31  C   UNL     1      27.150  48.635  49.160  1.00  0.00     0.210 C 
ENDBRANCH  27  30
ENDBRANCH   2  24
TORSDOF 4
ENDMDL
MODEL 3
REMARK VINA RESULT:      -8.7      2.421      8.109
REMARK  4 active torsions:
REMARK  status: ('A' for Active; 'I' for Inactive)
REMARK    1  A    between atoms: C_6  and  N_7 
REMARK       I    between atoms: N_7  and  C_8 
REMARK    2  A    between atoms: C_8  and  C_9 
REMARK    3  A    between atoms: C_10  and  C_11 
REMARK    4  A    between atoms: C_14  and  O_15 
ROOT
HETATM    1  C   UNL     1      26.075  44.770  50.583  1.00  0.00     0.131 C 
HETATM    2  C   UNL     1      26.536  46.203  50.962  1.00  0.00     0.177 C 
HETATM    3  N   UNL     1      26.265  46.456  52.381  1.00  0.00    -0.088 N 
HETATM    4  C   UNL     1      25.430  45.708  53.173  1.00  0.00     0.721 A 
HETATM    5  N   UNL     1      24.830  44.588  52.710  1.00  0.00    -0.218 N 
HETATM    6  C   UNL     1      24.731  44.413  51.261  1.00  0.00     0.111 C 
HETATM    7  C   UNL     1      24.250  43.001  50.939  1.00  0.00     0.034 C 
HETATM    8  N   UNL     1      26.905  47.393  53.111  1.00  0.00    -0.149 NA
HETATM    9  C   UNL     1      26.343  47.209  54.309  1.00  0.00     0.275 A 
HETATM   10  N   UNL     1      25.438  46.186  54.389  1.00  0.00    -0.055 NA
HETATM   11  H   UNL     1      24.017  44.290  53.251  1.00  0.00     0.178 HD
ENDROOT
BRANCH   1  12
HETATM   12  C   UNL     1      27.236  43.802  50.854  1.00  0.00     0.230 C 
HETATM   13  N   UNL     1      27.014  42.496  50.488  1.00  0.00    -0.326 N 
HETATM   14  H   UNL     1      26.102  42.331  50.063  1.00  0.00     0.169 HD
HETATM   15  O   UNL     1      28.215  44.250  51.443  1.00  0.00    -0.273 OA
BRANCH  13  16
HETATM   16  C   UNL     1      27.789  41.316  50.590  1.00  0.00     0.040 A 
HETATM   17  C   UNL     1      28.353  40.728  51.736  1.00  0.00    -0.035 A 
HETATM   18  C   UNL     1      29.085  39.521  51.593  1.00  0.00     0.015 A 
HETATM   19  C   UNL     1      28.265  41.273  53.131  1.00  0.00     0.050 C 
HETATM   20  C   UNL     1      29.284  38.908  50.352  1.00  0.00    -0.061 A 
HETATM   21  C   UNL     1      30.071  37.637  50.229  1.00  0.00     0.048 C 
HETATM   22  C   UNL     1      28.745  39.508  49.222  1.00  0.00     0.009 A 
HETATM   23  C   UNL     1      28.012  40.690  49.344  1.00  0.00     0.030 A 
ENDBRANCH  13  16
ENDBRANCH   1  12
BRANCH   2  24
HETATM   24  C   UNL     1      25.964  47.343  50.103  1.00  0.00    -0.032 A 
HETATM   25  C   UNL     1      24.595  47.560  49.894  1.00  0.00     0.012 A 
HETATM   26  C   UNL     1      24.145  48.626  49.105  1.00  0.00     0.037 A 
HETATM   27  C   UNL     1      25.045  49.508  48.509  1.00  0.00     0.068 A 
HETATM   28  C   UNL     1      26.407  49.296  48.682  1.00  0.00     0.037 A 
HETATM   29  C   UNL     1      26.858  48.224  49.463  1.00  0.00     0.012 A 
BRANCH  27  30
HETATM   30  O   UNL     1      24.469  50.512  47.781  1.00  0.00    -0.356 OA
HETATM   31  C   UNL     1      23.165  50.918  48.178  1.00  0.00     0.210 C 
ENDBRANCH  27  30
ENDBRANCH   2  24
TORSDOF 4
ENDMDL
MODEL 4
REMARK VINA RESULT:      -8.4      3.838      5.700
REMARK  4 active torsions:
REMARK  status: ('A' for Active; 'I' for Inactive)
REMARK    1  A    between atoms: C_6  and  N_7 
REMARK       I    between atoms: N_7  and  C_8 
REMARK    2  A    between atoms: C_8  and  C_9 
REMARK    3  A    between atoms: C_10  and  C_11 
REMARK    4  A    between atoms: C_14  and  O_15 
ROOT
HETATM    1  C   UNL     1      25.212  46.617  49.405  1.00  0.00     0.131 C 
HETATM    2  C   UNL     1      24.764  45.321  50.134  1.00  0.00     0.177 C 
HETATM    3  N   UNL     1      25.123  45.399  51.555  1.00  0.00    -0.088 N 
HETATM    4  C   UNL     1      26.011  46.292  52.099  1.00  0.00     0.721 A 
HETATM    5  N   UNL     1      26.590  47.260  51.353  1.00  0.00    -0.218 N 
HETATM    6  C   UNL     1      26.598  47.092  49.900  1.00  0.00     0.111 C 
HETATM    7  C   UNL     1      27.069  48.380  49.229  1.00  0.00     0.034 C 
HETATM    8  N   UNL     1      24.522  44.672  52.519  1.00  0.00    -0.149 NA
HETATM    9  C   UNL     1      25.160  45.116  53.606  1.00  0.00     0.275 A 
HETATM   10  N   UNL     1      26.077  46.110  53.391  1.00  0.00    -0.055 NA
HETATM   11  H   UNL     1      27.438  47.657  51.760  1.00  0.00     0.178 HD
ENDROOT
BRANCH   1  12
HETATM   12  C   UNL     1      24.077  47.647  49.511  1.00  0.00     0.230 C 
HETATM   13  N   UNL     1      23.266  47.747  48.407  1.00  0.00    -0.326 N 
HETATM   14  H   UNL     1      23.509  47.108  47.650  1.00  0.00     0.169 HD
HETATM   15  O   UNL     1      24.043  48.343  50.522  1.00  0.00    -0.273 OA
BRANCH  13  16
HETATM   16  C   UNL     1      22.158  48.571  48.090  1.00  0.00     0.040 A 
HETATM   17  C   UNL     1      22.115  49.966  47.925  1.00  0.00    -0.035 A 
HETATM   18  C   UNL     1      20.879  50.575  47.589  1.00  0.00     0.015 A 
HETATM   19  C   UNL     1      23.277  50.901  48.087  1.00  0.00     0.050 C 
HETATM   20  C   UNL     1      19.698  49.841  47.437  1.00  0.00    -0.061 A 
HETATM   21  C   UNL     1      18.403  50.512  47.090  1.00  0.00     0.048 C 
HETATM   22  C   UNL     1      19.745  48.466  47.625  1.00  0.00     0.009 A 
HETATM   23  C   UNL     1      20.954  47.847  47.946  1.00  0.00     0.030 A 
ENDBRANCH  13  16
ENDBRANCH   1  12
BRANCH   2  24
HETATM   24  C   UNL     1      25.272  44.001  49.532  1.00  0.00    -0.032 A 
HETATM   25  C   UNL     1      26.571  43.504  49.707  1.00  0.00     0.012 A 
HETATM   26  C   UNL     1      26.961  42.287  49.136  1.00  0.00     0.037 A 
HETATM   27  C   UNL     1      26.069  41.529  48.380  1.00  0.00     0.068 A 
HETATM   28  C   UNL     1      24.784  42.016  48.171  1.00  0.00     0.037 A 
HETATM   29  C   UNL     1      24.395  43.238  48.735  1.00  0.00     0.012 A 
BRANCH  27  30
HETATM   30  O   UNL     1      26.577  40.356  47.896  1.00  0.00    -0.356 OA
HETATM   31  C   UNL     1      27.990  40.202  47.956  1.00  0.00     0.210 C 
ENDBRANCH  27  30
ENDBRANCH   2  24
TORSDOF 4
ENDMDL
MODEL 5
REMARK VINA RESULT:      -8.3      2.898      4.564
REMARK  4 active torsions:
REMARK  status: ('A' for Active; 'I' for Inactive)
REMARK    1  A    between atoms: C_6  and  N_7 
REMARK       I    between atoms: N_7  and  C_8 
REMARK    2  A    between atoms: C_8  and  C_9 
REMARK    3  A    between atoms: C_10  and  C_11 
REMARK    4  A    between atoms: C_14  and  O_15 
ROOT
HETATM    1  C   UNL     1      25.343  44.564  51.353  1.00  0.00     0.131 C 
HETATM    2  C   UNL     1      25.605  46.022  51.816  1.00  0.00     0.177 C 
HETATM    3  N   UNL     1      26.305  46.763  50.761  1.00  0.00    -0.088 N 
HETATM    4  C   UNL     1      26.942  46.196  49.686  1.00  0.00     0.721 A 
HETATM    5  N   UNL     1      26.907  44.864  49.463  1.00  0.00    -0.218 N 
HETATM    6  C   UNL     1      26.557  43.991  50.583  1.00  0.00     0.111 C 
HETATM    7  C   UNL     1      26.335  42.565  50.084  1.00  0.00     0.034 C 
HETATM    8  N   UNL     1      26.299  48.108  50.661  1.00  0.00    -0.149 NA
HETATM    9  C   UNL     1      27.024  48.283  49.552  1.00  0.00     0.275 A 
HETATM   10  N   UNL     1      27.434  47.137  48.925  1.00  0.00    -0.055 NA
HETATM   11  H   UNL     1      27.642  44.519  48.843  1.00  0.00     0.178 HD
ENDROOT
BRANCH   1  12
HETATM   12  C   UNL     1      24.002  44.528  50.606  1.00  0.00     0.230 C 
HETATM   13  N   UNL     1      23.872  45.437  49.583  1.00  0.00    -0.326 N 
HETATM   14  H   UNL     1      24.696  46.019  49.434  1.00  0.00     0.169 HD
HETATM   15  O   UNL     1      23.142  43.763  51.032  1.00  0.00    -0.273 OA
BRANCH  13  16
HETATM   16  C   UNL     1      22.816  45.747  48.692  1.00  0.00     0.040 A 
HETATM   17  C   UNL     1      22.124  44.896  47.813  1.00  0.00    -0.035 A 
HETATM   18  C   UNL     1      21.080  45.436  47.021  1.00  0.00     0.015 A 
HETATM   19  C   UNL     1      22.398  43.434  47.618  1.00  0.00     0.050 C 
HETATM   20  C   UNL     1      20.729  46.790  47.064  1.00  0.00    -0.061 A 
HETATM   21  C   UNL     1      19.627  47.337  46.207  1.00  0.00     0.048 C 
HETATM   22  C   UNL     1      21.434  47.629  47.917  1.00  0.00     0.009 A 
HETATM   23  C   UNL     1      22.458  47.113  48.714  1.00  0.00     0.030 A 
ENDBRANCH  13  16
ENDBRANCH   1  12
BRANCH   2  24
HETATM   24  C   UNL     1      26.346  46.180  53.154  1.00  0.00    -0.032 A 
HETATM   25  C   UNL     1      26.230  47.298  53.992  1.00  0.00     0.012 A 
HETATM   26  C   UNL     1      26.929  47.369  55.202  1.00  0.00     0.037 A 
HETATM   27  C   UNL     1      27.758  46.328  55.615  1.00  0.00     0.068 A 
HETATM   28  C   UNL     1      27.909  45.221  54.788  1.00  0.00     0.037 A 
HETATM   29  C   UNL     1      27.217  45.153  53.572  1.00  0.00     0.012 A 
BRANCH  27  30
HETATM   30  O   UNL     1      28.366  46.522  56.824  1.00  0.00    -0.356 OA
HETATM   31  C   UNL     1      29.588  45.826  57.040  1.00  0.00     0.210 C 
ENDBRANCH  27  30
ENDBRANCH   2  24
TORSDOF 4
ENDMDL
MODEL 6
REMARK VINA RESULT:      -8.1     11.949     15.086
REMARK  4 active torsions:
REMARK  status: ('A' for Active; 'I' for Inactive)
REMARK    1  A    between atoms: C_6  and  N_7 
REMARK       I    between atoms: N_7  and  C_8 
REMARK    2  A    between atoms: C_8  and  C_9 
REMARK    3  A    between atoms: C_10  and  C_11 
REMARK    4  A    between atoms: C_14  and  O_15 
ROOT
HETATM    1  C   UNL     1      32.247  50.614  41.411  1.00  0.00     0.131 C 
HETATM    2  C   UNL     1      31.292  50.393  40.207  1.00  0.00     0.177 C 
HETATM    3  N   UNL     1      30.399  51.548  40.061  1.00  0.00    -0.088 N 
HETATM    4  C   UNL     1      30.183  52.508  41.017  1.00  0.00     0.721 A 
HETATM    5  N   UNL     1      30.864  52.510  42.185  1.00  0.00    -0.218 N 
HETATM    6  C   UNL     1      31.509  51.266  42.604  1.00  0.00     0.111 C 
HETATM    7  C   UNL     1      32.416  51.527  43.804  1.00  0.00     0.034 C 
HETATM    8  N   UNL     1      29.770  51.867  38.911  1.00  0.00    -0.149 NA
HETATM    9  C   UNL     1      29.127  52.981  39.274  1.00  0.00     0.275 A 
HETATM   10  N   UNL     1      29.356  53.407  40.555  1.00  0.00    -0.055 NA
HETATM   11  H   UNL     1      30.426  53.056  42.929  1.00  0.00     0.178 HD
ENDROOT
BRANCH   1  12
HETATM   12  C   UNL     1      33.492  51.361  40.909  1.00  0.00     0.230 C 
HETATM   13  N   UNL     1      34.639  50.609  40.826  1.00  0.00    -0.326 N 
HETATM   14  H   UNL     1      34.519  49.633  41.097  1.00  0.00     0.169 HD
HETATM   15  O   UNL     1      33.380  52.568  40.709  1.00  0.00    -0.273 OA
BRANCH  13  16
HETATM   16  C   UNL     1      35.971  50.912  40.453  1.00  0.00     0.040 A 
HETATM   17  C   UNL     1      37.125  50.943  41.254  1.00  0.00    -0.035 A 
HETATM   18  C   UNL     1      38.368  51.260  40.648  1.00  0.00     0.015 A 
HETATM   19  C   UNL     1      37.172  50.679  42.730  1.00  0.00     0.050 C 
HETATM   20  C   UNL     1      38.482  51.564  39.287  1.00  0.00    -0.061 A 
HETATM   21  C   UNL     1      39.807  51.906  38.675  1.00  0.00     0.048 C 
HETATM   22  C   UNL     1      37.333  51.555  38.508  1.00  0.00     0.009 A 
HETATM   23  C   UNL     1      36.102  51.234  39.085  1.00  0.00     0.030 A 
ENDBRANCH  13  16
ENDBRANCH   1  12
BRANCH   2  24
HETATM   24  C   UNL     1      30.475  49.091  40.228  1.00  0.00    -0.032 A 
HETATM   25  C   UNL     1      29.322  48.897  41.001  1.00  0.00     0.012 A 
HETATM   26  C   UNL     1      28.622  47.685  40.961  1.00  0.00     0.037 A 
HETATM   27  C   UNL     1      29.046  46.636  40.148  1.00  0.00     0.068 A 
HETATM   28  C   UNL     1      30.202  46.798  39.393  1.00  0.00     0.037 A 
HETATM   29  C   UNL     1      30.909  48.007  39.439  1.00  0.00     0.012 A 
BRANCH  27  30
HETATM   30  O   UNL     1      28.261  45.518  40.194  1.00  0.00    -0.356 OA
HETATM   31  C   UNL     1      27.023  45.639  40.884  1.00  0.00     0.210 C 
ENDBRANCH  27  30
ENDBRANCH   2  24
TORSDOF 4
ENDMDL
MODEL 7
REMARK VINA RESULT:      -8.0      1.735      2.052
REMARK  4 active torsions:
REMARK  status: ('A' for Active; 'I' for Inactive)
REMARK    1  A    between atoms: C_6  and  N_7 
REMARK       I    between atoms: N_7  and  C_8 
REMARK    2  A    between atoms: C_8  and  C_9 
REMARK    3  A    between atoms: C_10  and  C_11 
REMARK    4  A    between atoms: C_14  and  O_15 
ROOT
HETATM    1  C   UNL     1      25.192  43.938  50.599  1.00  0.00     0.131 C 
HETATM    2  C   UNL     1      26.653  43.494  50.318  1.00  0.00     0.177 C 
HETATM    3  N   UNL     1      26.662  42.391  49.349  1.00  0.00    -0.088 N 
HETATM    4  C   UNL     1      25.572  41.631  49.006  1.00  0.00     0.721 A 
HETATM    5  N   UNL     1      24.340  41.900  49.492  1.00  0.00    -0.218 N 
HETATM    6  C   UNL     1      24.243  42.721  50.699  1.00  0.00     0.111 C 
HETATM    7  C   UNL     1      22.788  43.110  50.949  1.00  0.00     0.034 C 
HETATM    8  N   UNL     1      27.729  42.072  48.587  1.00  0.00    -0.149 NA
HETATM    9  C   UNL     1      27.235  41.057  47.873  1.00  0.00     0.275 A 
HETATM   10  N   UNL     1      25.918  40.758  48.098  1.00  0.00    -0.055 NA
HETATM   11  H   UNL     1      23.682  41.121  49.429  1.00  0.00     0.178 HD
ENDROOT
BRANCH   1  12
HETATM   12  C   UNL     1      24.804  45.003  49.564  1.00  0.00     0.230 C 
HETATM   13  N   UNL     1      24.751  46.293  50.036  1.00  0.00    -0.326 N 
HETATM   14  H   UNL     1      24.993  46.387  51.022  1.00  0.00     0.169 HD
HETATM   15  O   UNL     1      24.495  44.611  48.442  1.00  0.00    -0.273 OA
BRANCH  13  16
HETATM   16  C   UNL     1      24.413  47.530  49.437  1.00  0.00     0.040 A 
HETATM   17  C   UNL     1      25.254  48.601  49.088  1.00  0.00    -0.035 A 
HETATM   18  C   UNL     1      24.684  49.746  48.476  1.00  0.00     0.015 A 
HETATM   19  C   UNL     1      26.736  48.657  49.317  1.00  0.00     0.050 C 
HETATM   20  C   UNL     1      23.312  49.858  48.228  1.00  0.00    -0.061 A 
HETATM   21  C   UNL     1      22.735  51.085  47.588  1.00  0.00     0.048 C 
HETATM   22  C   UNL     1      22.484  48.807  48.598  1.00  0.00     0.009 A 
HETATM   23  C   UNL     1      23.029  47.666  49.191  1.00  0.00     0.030 A 
ENDBRANCH  13  16
ENDBRANCH   1  12
BRANCH   2  24
HETATM   24  C   UNL     1      27.492  43.121  51.551  1.00  0.00    -0.032 A 
HETATM   25  C   UNL     1      27.765  41.805  51.949  1.00  0.00     0.012 A 
HETATM   26  C   UNL     1      28.547  41.540  53.080  1.00  0.00     0.037 A 
HETATM   27  C   UNL     1      29.083  42.577  53.842  1.00  0.00     0.068 A 
HETATM   28  C   UNL     1      28.803  43.889  53.480  1.00  0.00     0.037 A 
HETATM   29  C   UNL     1      28.014  44.155  52.354  1.00  0.00     0.012 A 
BRANCH  27  30
HETATM   30  O   UNL     1      29.839  42.176  54.908  1.00  0.00    -0.356 OA
HETATM   31  C   UNL     1      30.645  43.173  55.525  1.00  0.00     0.210 C 
ENDBRANCH  27  30
ENDBRANCH   2  24
TORSDOF 4
ENDMDL
MODEL 8
REMARK VINA RESULT:      -8.0      8.577     12.037
REMARK  4 active torsions:
REMARK  status: ('A' for Active; 'I' for Inactive)
REMARK    1  A    between atoms: C_6  and  N_7 
REMARK       I    between atoms: N_7  and  C_8 
REMARK    2  A    between atoms: C_8  and  C_9 
REMARK    3  A    between atoms: C_10  and  C_11 
REMARK    4  A    between atoms: C_14  and  O_15 
ROOT
HETATM    1  C   UNL     1      17.605  49.460  48.315  1.00  0.00     0.131 C 
HETATM    2  C   UNL     1      18.614  50.205  47.400  1.00  0.00     0.177 C 
HETATM    3  N   UNL     1      18.473  49.735  46.017  1.00  0.00    -0.088 N 
HETATM    4  C   UNL     1      17.822  48.589  45.633  1.00  0.00     0.721 A 
HETATM    5  N   UNL     1      17.165  47.815  46.525  1.00  0.00    -0.218 N 
HETATM    6  C   UNL     1      17.503  47.963  47.941  1.00  0.00     0.111 C 
HETATM    7  C   UNL     1      16.501  47.194  48.799  1.00  0.00     0.034 C 
HETATM    8  N   UNL     1      18.870  50.445  44.941  1.00  0.00    -0.149 NA
HETATM    9  C   UNL     1      18.504  49.627  43.949  1.00  0.00     0.275 A 
HETATM   10  N   UNL     1      17.858  48.483  44.332  1.00  0.00    -0.055 NA
HETATM   11  H   UNL     1      16.989  46.861  46.207  1.00  0.00     0.178 HD
ENDROOT
BRANCH   1  12
HETATM   12  C   UNL     1      16.282  50.241  48.311  1.00  0.00     0.230 C 
HETATM   13  N   UNL     1      16.332  51.490  48.881  1.00  0.00    -0.326 N 
HETATM   14  H   UNL     1      17.254  51.756  49.226  1.00  0.00     0.169 HD
HETATM   15  O   UNL     1      15.288  49.659  47.885  1.00  0.00    -0.273 OA
BRANCH  13  16
HETATM   16  C   UNL     1      15.358  52.493  49.103  1.00  0.00     0.040 A 
HETATM   17  C   UNL     1      14.694  53.302  48.165  1.00  0.00    -0.035 A 
HETATM   18  C   UNL     1      13.733  54.236  48.629  1.00  0.00     0.015 A 
HETATM   19  C   UNL     1      14.916  53.281  46.682  1.00  0.00     0.050 C 
HETATM   20  C   UNL     1      13.439  54.399  49.987  1.00  0.00    -0.061 A 
HETATM   21  C   UNL     1      12.426  55.402  50.450  1.00  0.00     0.048 C 
HETATM   22  C   UNL     1      14.117  53.613  50.909  1.00  0.00     0.009 A 
HETATM   23  C   UNL     1      15.058  52.679  50.471  1.00  0.00     0.030 A 
ENDBRANCH  13  16
ENDBRANCH   1  12
BRANCH   2  24
HETATM   24  C   UNL     1      20.087  50.143  47.833  1.00  0.00    -0.032 A 
HETATM   25  C   UNL     1      20.918  49.030  47.644  1.00  0.00     0.012 A 
HETATM   26  C   UNL     1      22.256  49.048  48.056  1.00  0.00     0.037 A 
HETATM   27  C   UNL     1      22.805  50.177  48.660  1.00  0.00     0.068 A 
HETATM   28  C   UNL     1      21.993  51.283  48.881  1.00  0.00     0.037 A 
HETATM   29  C   UNL     1      20.652  51.262  48.478  1.00  0.00     0.012 A 
BRANCH  27  30
HETATM   30  O   UNL     1      24.126  50.064  48.997  1.00  0.00    -0.356 OA
HETATM   31  C   UNL     1      25.058  50.072  47.922  1.00  0.00     0.210 C 
ENDBRANCH  27  30
ENDBRANCH   2  24
TORSDOF 4
ENDMDL
MODEL 9
REMARK VINA RESULT:      -8.0      6.384     11.498
REMARK  4 active torsions:
REMARK  status: ('A' for Active; 'I' for Inactive)
REMARK    1  A    between atoms: C_6  and  N_7 
REMARK       I    between atoms: N_7  and  C_8 
REMARK    2  A    between atoms: C_8  and  C_9 
REMARK    3  A    between atoms: C_10  and  C_11 
REMARK    4  A    between atoms: C_14  and  O_15 
ROOT
HETATM    1  C   UNL     1      19.940  47.638  47.238  1.00  0.00     0.131 C 
HETATM    2  C   UNL     1      19.649  49.160  47.335  1.00  0.00     0.177 C 
HETATM    3  N   UNL     1      19.491  49.550  48.740  1.00  0.00    -0.088 N 
HETATM    4  C   UNL     1      19.281  48.683  49.783  1.00  0.00     0.721 A 
HETATM    5  N   UNL     1      19.281  47.343  49.601  1.00  0.00    -0.218 N 
HETATM    6  C   UNL     1      19.082  46.836  48.244  1.00  0.00     0.111 C 
HETATM    7  C   UNL     1      19.353  45.334  48.204  1.00  0.00     0.034 C 
HETATM    8  N   UNL     1      19.656  50.811  49.191  1.00  0.00    -0.149 NA
HETATM    9  C   UNL     1      19.445  50.642  50.500  1.00  0.00     0.275 A 
HETATM   10  N   UNL     1      19.214  49.354  50.902  1.00  0.00    -0.055 NA
HETATM   11  H   UNL     1      18.822  46.816  50.346  1.00  0.00     0.178 HD
ENDROOT
BRANCH   1  12
HETATM   12  C   UNL     1      21.458  47.430  47.341  1.00  0.00     0.230 C 
HETATM   13  N   UNL     1      22.126  48.335  48.130  1.00  0.00    -0.326 N 
HETATM   14  H   UNL     1      21.524  49.033  48.567  1.00  0.00     0.169 HD
HETATM   15  O   UNL     1      21.951  46.540  46.654  1.00  0.00    -0.273 OA
BRANCH  13  16
HETATM   16  C   UNL     1      23.492  48.513  48.456  1.00  0.00     0.040 A 
HETATM   17  C   UNL     1      24.330  47.690  49.228  1.00  0.00    -0.035 A 
HETATM   18  C   UNL     1      25.684  48.069  49.406  1.00  0.00     0.015 A 
HETATM   19  C   UNL     1      23.916  46.420  49.912  1.00  0.00     0.050 C 
HETATM   20  C   UNL     1      26.212  49.245  48.859  1.00  0.00    -0.061 A 
HETATM   21  C   UNL     1      27.646  49.627  49.072  1.00  0.00     0.048 C 
HETATM   22  C   UNL     1      25.371  50.065  48.118  1.00  0.00     0.009 A 
HETATM   23  C   UNL     1      24.038  49.702  47.923  1.00  0.00     0.030 A 
ENDBRANCH  13  16
ENDBRANCH   1  12
BRANCH   2  24
HETATM   24  C   UNL     1      18.458  49.671  46.507  1.00  0.00    -0.032 A 
HETATM   25  C   UNL     1      18.582  50.382  45.305  1.00  0.00     0.012 A 
HETATM   26  C   UNL     1      17.451  50.808  44.599  1.00  0.00     0.037 A 
HETATM   27  C   UNL     1      16.167  50.535  45.066  1.00  0.00     0.068 A 
HETATM   28  C   UNL     1      16.021  49.854  46.269  1.00  0.00     0.037 A 
HETATM   29  C   UNL     1      17.152  49.435  46.982  1.00  0.00     0.012 A 
BRANCH  27  30
HETATM   30  O   UNL     1      15.155  50.995  44.271  1.00  0.00    -0.356 OA
HETATM   31  C   UNL     1      13.910  50.312  44.368  1.00  0.00     0.210 C 
ENDBRANCH  27  30
ENDBRANCH   2  24
TORSDOF 4
ENDMDL
MODEL 10
REMARK VINA RESULT:      -8.0      4.680      8.732
REMARK  4 active torsions:
REMARK  status: ('A' for Active; 'I' for Inactive)
REMARK    1  A    between atoms: C_6  and  N_7 
REMARK       I    between atoms: N_7  and  C_8 
REMARK    2  A    between atoms: C_8  and  C_9 
REMARK    3  A    between atoms: C_10  and  C_11 
REMARK    4  A    between atoms: C_14  and  O_15 
ROOT
HETATM    1  C   UNL     1      28.360  39.279  48.516  1.00  0.00     0.131 C 
HETATM    2  C   UNL     1      27.396  39.241  47.301  1.00  0.00     0.177 C 
HETATM    3  N   UNL     1      26.550  38.045  47.373  1.00  0.00    -0.088 N 
HETATM    4  C   UNL     1      26.789  36.953  48.169  1.00  0.00     0.721 A 
HETATM    5  N   UNL     1      27.820  36.927  49.043  1.00  0.00    -0.218 N 
HETATM    6  C   UNL     1      28.917  37.873  48.838  1.00  0.00     0.111 C 
HETATM    7  C   UNL     1      29.852  37.856  50.045  1.00  0.00     0.034 C 
HETATM    8  N   UNL     1      25.361  37.929  46.745  1.00  0.00    -0.149 NA
HETATM    9  C   UNL     1      24.984  36.709  47.140  1.00  0.00     0.275 A 
HETATM   10  N   UNL     1      25.829  36.081  48.014  1.00  0.00    -0.055 NA
HETATM   11  H   UNL     1      28.091  35.991  49.349  1.00  0.00     0.178 HD
ENDROOT
BRANCH   1  12
HETATM   12  C   UNL     1      27.651  39.997  49.673  1.00  0.00     0.230 C 
HETATM   13  N   UNL     1      28.325  41.071  50.204  1.00  0.00    -0.326 N 
HETATM   14  H   UNL     1      29.216  41.271  49.750  1.00  0.00     0.169 HD
HETATM   15  O   UNL     1      26.600  39.508  50.077  1.00  0.00    -0.273 OA
BRANCH  13  16
HETATM   16  C   UNL     1      28.045  41.959  51.271  1.00  0.00     0.040 A 
HETATM   17  C   UNL     1      27.427  43.221  51.229  1.00  0.00    -0.035 A 
HETATM   18  C   UNL     1      27.237  43.928  52.444  1.00  0.00     0.015 A 
HETATM   19  C   UNL     1      26.947  43.917  49.991  1.00  0.00     0.050 C 
HETATM   20  C   UNL     1      27.662  43.426  53.678  1.00  0.00    -0.061 A 
HETATM   21  C   UNL     1      27.457  44.199  54.946  1.00  0.00     0.048 C 
HETATM   22  C   UNL     1      28.294  42.189  53.708  1.00  0.00     0.009 A 
HETATM   23  C   UNL     1      28.480  41.473  52.524  1.00  0.00     0.030 A 
ENDBRANCH  13  16
ENDBRANCH   1  12
BRANCH   2  24
HETATM   24  C   UNL     1      28.054  39.341  45.915  1.00  0.00    -0.032 A 
HETATM   25  C   UNL     1      28.512  38.239  45.179  1.00  0.00     0.012 A 
HETATM   26  C   UNL     1      29.094  38.405  43.917  1.00  0.00     0.037 A 
HETATM   27  C   UNL     1      29.231  39.670  43.350  1.00  0.00     0.068 A 
HETATM   28  C   UNL     1      28.809  40.779  44.073  1.00  0.00     0.037 A 
HETATM   29  C   UNL     1      28.234  40.615  45.340  1.00  0.00     0.012 A 
BRANCH  27  30
HETATM   30  O   UNL     1      29.801  39.685  42.107  1.00  0.00    -0.356 OA
HETATM   31  C   UNL     1      31.142  39.219  42.018  1.00  0.00     0.210 C 
ENDBRANCH  27  30
ENDBRANCH   2  24
TORSDOF 4
ENDMDL
