MODEL 1
REMARK VINA RESULT:      -9.3      0.000      0.000
REMARK  7 active torsions:
REMARK  status: ('A' for Active; 'I' for Inactive)
REMARK    1  A    between atoms: C_4  and  N_5 
REMARK       I    between atoms: N_5  and  C_6 
REMARK    2  A    between atoms: C_6  and  C_7 
REMARK    3  A    between atoms: C_7  and  N_8 
REMARK    4  A    between atoms: N_8  and  C_9 
REMARK    5  A    between atoms: C_10  and  C_11 
REMARK    6  A    between atoms: C_16  and  N_17 
REMARK       I    between atoms: N_17  and  C_18 
REMARK    7  A    between atoms: C_18  and  C_19 
ROOT
HETATM    1  C   UNL     1      26.658  45.342  51.382  1.00  0.00     0.024 A 
HETATM    2  C   UNL     1      26.023  46.253  52.256  1.00  0.00     0.071 A 
HETATM    3  C   UNL     1      24.985  47.094  51.788  1.00  0.00     0.047 A 
HETATM    4  C   UNL     1      24.568  47.060  50.460  1.00  0.00     0.035 A 
HETATM    5  C   UNL     1      25.210  46.184  49.592  1.00  0.00     0.031 A 
HETATM    6  C   UNL     1      26.248  45.357  50.041  1.00  0.00     0.026 A 
ENDROOT
BRANCH   1   7
HETATM    7  N   UNL     1      27.762  44.602  51.812  1.00  0.00    -0.284 NA
HETATM    8  H   UNL     1      28.336  45.113  52.493  1.00  0.00     0.128 HD
BRANCH   7   9
HETATM    9  C   UNL     1      27.657  43.185  52.236  1.00  0.00     0.195 C 
BRANCH   9  10
HETATM   10  C   UNL     1      28.098  43.033  53.703  1.00  0.00     0.235 C 
HETATM   11  N   UNL     1      29.136  43.893  54.013  1.00  0.00    -0.326 N 
HETATM   12  H   UNL     1      29.391  44.512  53.245  1.00  0.00     0.169 HD
HETATM   13  O   UNL     1      27.584  42.195  54.438  1.00  0.00    -0.272 OA
BRANCH  11  14
HETATM   14  C   UNL     1      29.849  44.021  55.216  1.00  0.00     0.035 A 
HETATM   15  C   UNL     1      29.691  45.086  56.104  1.00  0.00     0.036 A 
HETATM   16  C   UNL     1      30.428  45.137  57.300  1.00  0.00    -0.060 A 
HETATM   17  C   UNL     1      30.273  46.301  58.234  1.00  0.00     0.048 C 
HETATM   18  C   UNL     1      31.349  44.123  57.582  1.00  0.00     0.007 A 
HETATM   19  C   UNL     1      31.513  43.058  56.699  1.00  0.00     0.003 A 
HETATM   20  C   UNL     1      30.763  43.007  55.523  1.00  0.00     0.029 A 
ENDBRANCH  11  14
ENDBRANCH   9  10
ENDBRANCH   7   9
ENDBRANCH   1   7
BRANCH   2  21
HETATM   21  C   UNL     1      26.445  46.412  53.698  1.00  0.00     0.419 C 
HETATM   22  F   UNL     1      25.803  47.437  54.338  1.00  0.00    -0.166 F 
HETATM   23  F   UNL     1      26.190  45.300  54.442  1.00  0.00    -0.166 F 
HETATM   24  F   UNL     1      27.774  46.671  53.852  1.00  0.00    -0.166 F 
ENDBRANCH   2  21
BRANCH   4  25
HETATM   25  N   UNL     1      23.545  47.863  49.929  1.00  0.00    -0.321 N 
HETATM   26  C   UNL     1      23.653  49.084  49.286  1.00  0.00     0.279 C 
HETATM   27  O   UNL     1      24.704  49.673  49.052  1.00  0.00    -0.265 OA
HETATM   28  H   UNL     1      22.594  47.519  50.014  1.00  0.00     0.169 HD
BRANCH  26  29
HETATM   29  C   UNL     1      22.362  49.623  48.897  1.00  0.00     0.142 A 
HETATM   30  O   UNL     1      21.246  48.826  48.973  1.00  0.00    -0.317 OA
HETATM   31  C   UNL     1      20.190  49.575  48.563  1.00  0.00     0.143 A 
HETATM   32  C   UNL     1      20.601  50.842  48.219  1.00  0.00     0.027 A 
HETATM   33  C   UNL     1      22.000  50.874  48.432  1.00  0.00     0.045 A 
ENDBRANCH  26  29
ENDBRANCH   4  25
TORSDOF 7
ENDMDL
MODEL 2
REMARK VINA RESULT:      -9.1      2.667      3.341
REMARK  7 active torsions:
REMARK  status: ('A' for Active; 'I' for Inactive)
REMARK    1  A    between atoms: C_4  and  N_5 
REMARK       I    between atoms: N_5  and  C_6 
REMARK    2  A    between atoms: C_6  and  C_7 
REMARK    3  A    between atoms: C_7  and  N_8 
REMARK    4  A    between atoms: N_8  and  C_9 
REMARK    5  A    between atoms: C_10  and  C_11 
REMARK    6  A    between atoms: C_16  and  N_17 
REMARK       I    between atoms: N_17  and  C_18 
REMARK    7  A    between atoms: C_18  and  C_19 
ROOT
HETATM    1  C   UNL     1      25.695  43.543  51.049  1.00  0.00     0.024 A 
HETATM    2  C   UNL     1      25.140  43.624  49.753  1.00  0.00     0.071 A 
HETATM    3  C   UNL     1      24.549  44.828  49.297  1.00  0.00     0.047 A 
HETATM    4  C   UNL     1      24.486  45.956  50.109  1.00  0.00     0.035 A 
HETATM    5  C   UNL     1      25.007  45.870  51.396  1.00  0.00     0.031 A 
HETATM    6  C   UNL     1      25.581  44.680  51.862  1.00  0.00     0.026 A 
ENDROOT
BRANCH   1   7
HETATM    7  N   UNL     1      26.165  42.323  51.542  1.00  0.00    -0.284 NA
HETATM    8  H   UNL     1      25.725  41.518  51.084  1.00  0.00     0.128 HD
BRANCH   7   9
HETATM    9  C   UNL     1      27.609  42.042  51.729  1.00  0.00     0.195 C 
BRANCH   9  10
HETATM   10  C   UNL     1      28.018  42.298  53.191  1.00  0.00     0.235 C 
HETATM   11  N   UNL     1      28.738  43.472  53.320  1.00  0.00    -0.326 N 
HETATM   12  H   UNL     1      28.826  43.989  52.446  1.00  0.00     0.169 HD
HETATM   13  O   UNL     1      27.748  41.492  54.077  1.00  0.00    -0.272 OA
BRANCH  11  14
HETATM   14  C   UNL     1      29.332  44.024  54.465  1.00  0.00     0.035 A 
HETATM   15  C   UNL     1      30.380  43.423  55.164  1.00  0.00     0.036 A 
HETATM   16  C   UNL     1      30.938  44.044  56.294  1.00  0.00    -0.060 A 
HETATM   17  C   UNL     1      32.045  43.376  57.056  1.00  0.00     0.048 C 
HETATM   18  C   UNL     1      30.414  45.264  56.735  1.00  0.00     0.007 A 
HETATM   19  C   UNL     1      29.368  45.869  56.044  1.00  0.00     0.003 A 
HETATM   20  C   UNL     1      28.832  45.253  54.912  1.00  0.00     0.029 A 
ENDBRANCH  11  14
ENDBRANCH   9  10
ENDBRANCH   7   9
ENDBRANCH   1   7
BRANCH   2  21
HETATM   21  C   UNL     1      25.101  42.438  48.818  1.00  0.00     0.419 C 
HETATM   22  F   UNL     1      24.423  42.688  47.656  1.00  0.00    -0.166 F 
HETATM   23  F   UNL     1      26.344  42.032  48.436  1.00  0.00    -0.166 F 
HETATM   24  F   UNL     1      24.496  41.340  49.355  1.00  0.00    -0.166 F 
ENDBRANCH   2  21
BRANCH   4  25
HETATM   25  N   UNL     1      23.918  47.181  49.722  1.00  0.00    -0.321 N 
HETATM   26  C   UNL     1      24.559  48.339  49.315  1.00  0.00     0.279 C 
HETATM   27  O   UNL     1      25.772  48.477  49.204  1.00  0.00    -0.265 OA
HETATM   28  H   UNL     1      22.906  47.247  49.732  1.00  0.00     0.169 HD
BRANCH  26  29
HETATM   29  C   UNL     1      23.628  49.413  49.017  1.00  0.00     0.142 A 
HETATM   30  O   UNL     1      22.735  49.819  49.978  1.00  0.00    -0.317 OA
HETATM   31  C   UNL     1      22.002  50.830  49.442  1.00  0.00     0.143 A 
HETATM   32  C   UNL     1      22.401  51.084  48.151  1.00  0.00     0.027 A 
HETATM   33  C   UNL     1      23.448  50.171  47.875  1.00  0.00     0.045 A 
ENDBRANCH  26  29
ENDBRANCH   4  25
TORSDOF 7
ENDMDL
MODEL 3
REMARK VINA RESULT:      -9.0      2.283      3.240
REMARK  7 active torsions:
REMARK  status: ('A' for Active; 'I' for Inactive)
REMARK    1  A    between atoms: C_4  and  N_5 
REMARK       I    between atoms: N_5  and  C_6 
REMARK    2  A    between atoms: C_6  and  C_7 
REMARK    3  A    between atoms: C_7  and  N_8 
REMARK    4  A    between atoms: N_8  and  C_9 
REMARK    5  A    between atoms: C_10  and  C_11 
REMARK    6  A    between atoms: C_16  and  N_17 
REMARK       I    between atoms: N_17  and  C_18 
REMARK    7  A    between atoms: C_18  and  C_19 
ROOT
HETATM    1  C   UNL     1      24.456  45.757  49.185  1.00  0.00     0.024 A 
HETATM    2  C   UNL     1      24.860  47.031  49.642  1.00  0.00     0.071 A 
HETATM    3  C   UNL     1      23.964  48.127  49.603  1.00  0.00     0.047 A 
HETATM    4  C   UNL     1      22.671  47.988  49.107  1.00  0.00     0.035 A 
HETATM    5  C   UNL     1      22.280  46.741  48.631  1.00  0.00     0.031 A 
HETATM    6  C   UNL     1      23.163  45.654  48.651  1.00  0.00     0.026 A 
ENDROOT
BRANCH   1   7
HETATM    7  N   UNL     1      25.375  44.708  49.108  1.00  0.00    -0.284 NA
HETATM    8  H   UNL     1      26.346  45.029  49.198  1.00  0.00     0.128 HD
BRANCH   7   9
HETATM    9  C   UNL     1      25.213  43.447  49.871  1.00  0.00     0.195 C 
BRANCH   9  10
HETATM   10  C   UNL     1      25.747  43.617  51.304  1.00  0.00     0.235 C 
HETATM   11  N   UNL     1      27.130  43.636  51.332  1.00  0.00    -0.326 N 
HETATM   12  H   UNL     1      27.553  43.591  50.406  1.00  0.00     0.169 HD
HETATM   13  O   UNL     1      24.985  43.672  52.264  1.00  0.00    -0.272 OA
BRANCH  11  14
HETATM   14  C   UNL     1      27.992  43.716  52.437  1.00  0.00     0.035 A 
HETATM   15  C   UNL     1      27.814  44.605  53.499  1.00  0.00     0.036 A 
HETATM   16  C   UNL     1      28.709  44.616  54.582  1.00  0.00    -0.060 A 
HETATM   17  C   UNL     1      28.526  45.595  55.704  1.00  0.00     0.048 C 
HETATM   18  C   UNL     1      29.803  43.745  54.577  1.00  0.00     0.007 A 
HETATM   19  C   UNL     1      29.987  42.857  53.520  1.00  0.00     0.003 A 
HETATM   20  C   UNL     1      29.083  42.841  52.457  1.00  0.00     0.029 A 
ENDBRANCH  11  14
ENDBRANCH   9  10
ENDBRANCH   7   9
ENDBRANCH   1   7
BRANCH   2  21
HETATM   21  C   UNL     1      26.260  47.301  50.140  1.00  0.00     0.419 C 
HETATM   22  F   UNL     1      26.467  46.877  51.424  1.00  0.00    -0.166 F 
HETATM   23  F   UNL     1      27.211  46.675  49.391  1.00  0.00    -0.166 F 
HETATM   24  F   UNL     1      26.594  48.622  50.142  1.00  0.00    -0.166 F 
ENDBRANCH   2  21
BRANCH   4  25
HETATM   25  N   UNL     1      21.730  49.029  49.041  1.00  0.00    -0.321 N 
HETATM   26  C   UNL     1      21.777  50.273  49.646  1.00  0.00     0.279 C 
HETATM   27  O   UNL     1      22.693  50.688  50.348  1.00  0.00    -0.265 OA
HETATM   28  H   UNL     1      20.901  48.870  48.478  1.00  0.00     0.169 HD
BRANCH  26  29
HETATM   29  C   UNL     1      20.599  51.074  49.360  1.00  0.00     0.142 A 
HETATM   30  O   UNL     1      19.634  51.224  50.325  1.00  0.00    -0.317 OA
HETATM   31  C   UNL     1      18.663  52.017  49.801  1.00  0.00     0.143 A 
HETATM   32  C   UNL     1      18.981  52.381  48.513  1.00  0.00     0.027 A 
HETATM   33  C   UNL     1      20.227  51.774  48.227  1.00  0.00     0.045 A 
ENDBRANCH  26  29
ENDBRANCH   4  25
TORSDOF 7
ENDMDL
MODEL 4
REMARK VINA RESULT:      -9.0      1.547      2.120
REMARK  7 active torsions:
REMARK  status: ('A' for Active; 'I' for Inactive)
REMARK    1  A    between atoms: C_4  and  N_5 
REMARK       I    between atoms: N_5  and  C_6 
REMARK    2  A    between atoms: C_6  and  C_7 
REMARK    3  A    between atoms: C_7  and  N_8 
REMARK    4  A    between atoms: N_8  and  C_9 
REMARK    5  A    between atoms: C_10  and  C_11 
REMARK    6  A    between atoms: C_16  and  N_17 
REMARK       I    between atoms: N_17  and  C_18 
REMARK    7  A    between atoms: C_18  and  C_19 
ROOT
HETATM    1  C   UNL     1      25.836  43.340  51.784  1.00  0.00     0.024 A 
HETATM    2  C   UNL     1      25.354  44.401  52.583  1.00  0.00     0.071 A 
HETATM    3  C   UNL     1      24.745  45.531  51.986  1.00  0.00     0.047 A 
HETATM    4  C   UNL     1      24.614  45.639  50.605  1.00  0.00     0.035 A 
HETATM    5  C   UNL     1      25.112  44.609  49.814  1.00  0.00     0.031 A 
HETATM    6  C   UNL     1      25.729  43.492  50.394  1.00  0.00     0.026 A 
ENDROOT
BRANCH   1   7
HETATM    7  N   UNL     1      26.545  42.284  52.362  1.00  0.00    -0.284 NA
HETATM    8  H   UNL     1      25.976  41.436  52.460  1.00  0.00     0.128 HD
BRANCH   7   9
HETATM    9  C   UNL     1      27.908  41.902  51.920  1.00  0.00     0.195 C 
BRANCH   9  10
HETATM   10  C   UNL     1      28.959  42.802  52.594  1.00  0.00     0.235 C 
HETATM   11  N   UNL     1      28.784  42.848  53.966  1.00  0.00    -0.326 N 
HETATM   12  H   UNL     1      28.035  42.243  54.298  1.00  0.00     0.169 HD
HETATM   13  O   UNL     1      29.791  43.414  51.932  1.00  0.00    -0.272 OA
BRANCH  11  14
HETATM   14  C   UNL     1      29.492  43.591  54.923  1.00  0.00     0.035 A 
HETATM   15  C   UNL     1      30.551  43.081  55.676  1.00  0.00     0.036 A 
HETATM   16  C   UNL     1      31.226  43.892  56.605  1.00  0.00    -0.060 A 
HETATM   17  C   UNL     1      32.344  43.326  57.431  1.00  0.00     0.048 C 
HETATM   18  C   UNL     1      30.808  45.213  56.793  1.00  0.00     0.007 A 
HETATM   19  C   UNL     1      29.751  45.728  56.046  1.00  0.00     0.003 A 
HETATM   20  C   UNL     1      29.099  44.921  55.113  1.00  0.00     0.029 A 
ENDBRANCH  11  14
ENDBRANCH   9  10
ENDBRANCH   7   9
ENDBRANCH   1   7
BRANCH   2  21
HETATM   21  C   UNL     1      25.505  44.409  54.086  1.00  0.00     0.419 C 
HETATM   22  F   UNL     1      26.190  45.497  54.553  1.00  0.00    -0.166 F 
HETATM   23  F   UNL     1      24.306  44.427  54.731  1.00  0.00    -0.166 F 
HETATM   24  F   UNL     1      26.178  43.328  54.572  1.00  0.00    -0.166 F 
ENDBRANCH   2  21
BRANCH   4  25
HETATM   25  N   UNL     1      24.020  46.729  49.947  1.00  0.00    -0.321 N 
HETATM   26  C   UNL     1      24.568  47.968  49.664  1.00  0.00     0.279 C 
HETATM   27  O   UNL     1      25.712  48.318  49.937  1.00  0.00    -0.265 OA
HETATM   28  H   UNL     1      23.065  46.613  49.625  1.00  0.00     0.169 HD
BRANCH  26  29
HETATM   29  C   UNL     1      23.632  48.848  48.987  1.00  0.00     0.142 A 
HETATM   30  O   UNL     1      22.284  48.609  49.092  1.00  0.00    -0.317 OA
HETATM   31  C   UNL     1      21.650  49.575  48.378  1.00  0.00     0.143 A 
HETATM   32  C   UNL     1      22.562  50.434  47.810  1.00  0.00     0.027 A 
HETATM   33  C   UNL     1      23.840  49.966  48.200  1.00  0.00     0.045 A 
ENDBRANCH  26  29
ENDBRANCH   4  25
TORSDOF 7
ENDMDL
MODEL 5
REMARK VINA RESULT:      -8.9      2.380      3.452
REMARK  7 active torsions:
REMARK  status: ('A' for Active; 'I' for Inactive)
REMARK    1  A    between atoms: C_4  and  N_5 
REMARK       I    between atoms: N_5  and  C_6 
REMARK    2  A    between atoms: C_6  and  C_7 
REMARK    3  A    between atoms: C_7  and  N_8 
REMARK    4  A    between atoms: N_8  and  C_9 
REMARK    5  A    between atoms: C_10  and  C_11 
REMARK    6  A    between atoms: C_16  and  N_17 
REMARK       I    between atoms: N_17  and  C_18 
REMARK    7  A    between atoms: C_18  and  C_19 
ROOT
HETATM    1  C   UNL     1      24.426  46.018  49.242  1.00  0.00     0.024 A 
HETATM    2  C   UNL     1      24.813  47.337  49.567  1.00  0.00     0.071 A 
HETATM    3  C   UNL     1      23.871  48.394  49.523  1.00  0.00     0.047 A 
HETATM    4  C   UNL     1      22.548  48.171  49.151  1.00  0.00     0.035 A 
HETATM    5  C   UNL     1      22.172  46.877  48.804  1.00  0.00     0.031 A 
HETATM    6  C   UNL     1      23.099  45.827  48.830  1.00  0.00     0.026 A 
ENDROOT
BRANCH   1   7
HETATM    7  N   UNL     1      25.380  45.000  49.165  1.00  0.00    -0.284 NA
HETATM    8  H   UNL     1      26.307  45.349  48.901  1.00  0.00     0.128 HD
BRANCH   7   9
HETATM    9  C   UNL     1      25.535  43.971  50.222  1.00  0.00     0.195 C 
BRANCH   9  10
HETATM   10  C   UNL     1      26.829  44.216  51.019  1.00  0.00     0.235 C 
HETATM   11  N   UNL     1      26.574  44.356  52.371  1.00  0.00    -0.326 N 
HETATM   12  H   UNL     1      25.594  44.220  52.614  1.00  0.00     0.169 HD
HETATM   13  O   UNL     1      27.914  44.314  50.454  1.00  0.00    -0.272 OA
BRANCH  11  14
HETATM   14  C   UNL     1      27.468  44.644  53.415  1.00  0.00     0.035 A 
HETATM   15  C   UNL     1      28.516  43.804  53.794  1.00  0.00     0.036 A 
HETATM   16  C   UNL     1      29.384  44.168  54.838  1.00  0.00    -0.060 A 
HETATM   17  C   UNL     1      30.490  43.245  55.259  1.00  0.00     0.048 C 
HETATM   18  C   UNL     1      29.172  45.371  55.519  1.00  0.00     0.007 A 
HETATM   19  C   UNL     1      28.127  46.213  55.146  1.00  0.00     0.003 A 
HETATM   20  C   UNL     1      27.282  45.852  54.096  1.00  0.00     0.029 A 
ENDBRANCH  11  14
ENDBRANCH   9  10
ENDBRANCH   7   9
ENDBRANCH   1   7
BRANCH   2  21
HETATM   21  C   UNL     1      26.237  47.694  49.922  1.00  0.00     0.419 C 
HETATM   22  F   UNL     1      26.530  49.014  49.713  1.00  0.00    -0.166 F 
HETATM   23  F   UNL     1      26.523  47.459  51.232  1.00  0.00    -0.166 F 
HETATM   24  F   UNL     1      27.167  47.004  49.204  1.00  0.00    -0.166 F 
ENDBRANCH   2  21
BRANCH   4  25
HETATM   25  N   UNL     1      21.562  49.169  49.088  1.00  0.00    -0.321 N 
HETATM   26  C   UNL     1      21.565  50.422  49.676  1.00  0.00     0.279 C 
HETATM   27  O   UNL     1      22.474  50.885  50.357  1.00  0.00    -0.265 OA
HETATM   28  H   UNL     1      20.732  48.967  48.541  1.00  0.00     0.169 HD
BRANCH  26  29
HETATM   29  C   UNL     1      20.349  51.168  49.401  1.00  0.00     0.142 A 
HETATM   30  O   UNL     1      19.304  51.107  50.290  1.00  0.00    -0.317 OA
HETATM   31  C   UNL     1      18.313  51.894  49.795  1.00  0.00     0.143 A 
HETATM   32  C   UNL     1      18.695  52.460  48.602  1.00  0.00     0.027 A 
HETATM   33  C   UNL     1      20.006  51.992  48.345  1.00  0.00     0.045 A 
ENDBRANCH  26  29
ENDBRANCH   4  25
TORSDOF 7
ENDMDL
MODEL 6
REMARK VINA RESULT:      -8.7      2.195     10.176
REMARK  7 active torsions:
REMARK  status: ('A' for Active; 'I' for Inactive)
REMARK    1  A    between atoms: C_4  and  N_5 
REMARK       I    between atoms: N_5  and  C_6 
REMARK    2  A    between atoms: C_6  and  C_7 
REMARK    3  A    between atoms: C_7  and  N_8 
REMARK    4  A    between atoms: N_8  and  C_9 
REMARK    5  A    between atoms: C_10  and  C_11 
REMARK    6  A    between atoms: C_16  and  N_17 
REMARK       I    between atoms: N_17  and  C_18 
REMARK    7  A    between atoms: C_18  and  C_19 
ROOT
HETATM    1  C   UNL     1      25.157  45.974  51.784  1.00  0.00     0.024 A 
HETATM    2  C   UNL     1      25.674  44.661  51.845  1.00  0.00     0.071 A 
HETATM    3  C   UNL     1      26.688  44.330  52.777  1.00  0.00     0.047 A 
HETATM    4  C   UNL     1      27.212  45.282  53.646  1.00  0.00     0.035 A 
HETATM    5  C   UNL     1      26.723  46.583  53.568  1.00  0.00     0.031 A 
HETATM    6  C   UNL     1      25.731  46.924  52.641  1.00  0.00     0.026 A 
ENDROOT
BRANCH   1   7
HETATM    7  N   UNL     1      24.248  46.330  50.784  1.00  0.00    -0.284 NA
HETATM    8  H   UNL     1      23.306  46.503  51.154  1.00  0.00     0.128 HD
BRANCH   7   9
HETATM    9  C   UNL     1      24.556  47.348  49.751  1.00  0.00     0.195 C 
BRANCH   9  10
HETATM   10  C   UNL     1      23.267  47.785  49.032  1.00  0.00     0.235 C 
HETATM   11  N   UNL     1      22.704  48.898  49.630  1.00  0.00    -0.326 N 
HETATM   12  H   UNL     1      23.260  49.268  50.400  1.00  0.00     0.169 HD
HETATM   13  O   UNL     1      22.823  47.149  48.081  1.00  0.00    -0.272 OA
BRANCH  11  14
HETATM   14  C   UNL     1      21.509  49.563  49.312  1.00  0.00     0.035 A 
HETATM   15  C   UNL     1      20.245  48.976  49.401  1.00  0.00     0.036 A 
HETATM   16  C   UNL     1      19.090  49.710  49.084  1.00  0.00    -0.060 A 
HETATM   17  C   UNL     1      17.739  49.061  49.154  1.00  0.00     0.048 C 
HETATM   18  C   UNL     1      19.216  51.033  48.648  1.00  0.00     0.007 A 
HETATM   19  C   UNL     1      20.473  51.625  48.556  1.00  0.00     0.003 A 
HETATM   20  C   UNL     1      21.614  50.893  48.890  1.00  0.00     0.029 A 
ENDBRANCH  11  14
ENDBRANCH   9  10
ENDBRANCH   7   9
ENDBRANCH   1   7
BRANCH   2  21
HETATM   21  C   UNL     1      25.219  43.571  50.903  1.00  0.00     0.419 C 
HETATM   22  F   UNL     1      23.870  43.346  50.951  1.00  0.00    -0.166 F 
HETATM   23  F   UNL     1      25.496  43.856  49.601  1.00  0.00    -0.166 F 
HETATM   24  F   UNL     1      25.792  42.360  51.153  1.00  0.00    -0.166 F 
ENDBRANCH   2  21
BRANCH   4  25
HETATM   25  N   UNL     1      28.215  45.025  54.595  1.00  0.00    -0.321 N 
HETATM   26  C   UNL     1      29.318  44.196  54.481  1.00  0.00     0.279 C 
HETATM   27  O   UNL     1      29.616  43.545  53.485  1.00  0.00    -0.265 OA
HETATM   28  H   UNL     1      28.142  45.501  55.488  1.00  0.00     0.169 HD
BRANCH  26  29
HETATM   29  C   UNL     1      30.121  44.170  55.691  1.00  0.00     0.142 A 
HETATM   30  O   UNL     1      29.981  45.175  56.616  1.00  0.00    -0.317 OA
HETATM   31  C   UNL     1      30.833  44.900  57.638  1.00  0.00     0.143 A 
HETATM   32  C   UNL     1      31.524  43.737  57.390  1.00  0.00     0.027 A 
HETATM   33  C   UNL     1      31.067  43.266  56.136  1.00  0.00     0.045 A 
ENDBRANCH  26  29
ENDBRANCH   4  25
TORSDOF 7
ENDMDL
MODEL 7
REMARK VINA RESULT:      -8.4      2.962      9.584
REMARK  7 active torsions:
REMARK  status: ('A' for Active; 'I' for Inactive)
REMARK    1  A    between atoms: C_4  and  N_5 
REMARK       I    between atoms: N_5  and  C_6 
REMARK    2  A    between atoms: C_6  and  C_7 
REMARK    3  A    between atoms: C_7  and  N_8 
REMARK    4  A    between atoms: N_8  and  C_9 
REMARK    5  A    between atoms: C_10  and  C_11 
REMARK    6  A    between atoms: C_16  and  N_17 
REMARK       I    between atoms: N_17  and  C_18 
REMARK    7  A    between atoms: C_18  and  C_19 
ROOT
HETATM    1  C   UNL     1      25.009  44.221  49.369  1.00  0.00     0.024 A 
HETATM    2  C   UNL     1      25.451  42.958  49.824  1.00  0.00     0.071 A 
HETATM    3  C   UNL     1      26.406  42.863  50.865  1.00  0.00     0.047 A 
HETATM    4  C   UNL     1      26.944  43.999  51.461  1.00  0.00     0.035 A 
HETATM    5  C   UNL     1      26.532  45.244  50.996  1.00  0.00     0.031 A 
HETATM    6  C   UNL     1      25.598  45.350  49.956  1.00  0.00     0.026 A 
ENDROOT
BRANCH   1   7
HETATM    7  N   UNL     1      24.163  44.318  48.262  1.00  0.00    -0.284 NA
HETATM    8  H   UNL     1      24.242  43.509  47.635  1.00  0.00     0.128 HD
BRANCH   7   9
HETATM    9  C   UNL     1      22.734  44.698  48.380  1.00  0.00     0.195 C 
BRANCH   9  10
HETATM   10  C   UNL     1      22.519  46.130  47.861  1.00  0.00     0.235 C 
HETATM   11  N   UNL     1      22.736  47.070  48.853  1.00  0.00    -0.326 N 
HETATM   12  H   UNL     1      23.051  46.662  49.732  1.00  0.00     0.169 HD
HETATM   13  O   UNL     1      22.151  46.340  46.708  1.00  0.00    -0.272 OA
BRANCH  11  14
HETATM   14  C   UNL     1      22.589  48.465  48.797  1.00  0.00     0.035 A 
HETATM   15  C   UNL     1      21.408  49.136  49.120  1.00  0.00     0.036 A 
HETATM   16  C   UNL     1      21.341  50.538  49.058  1.00  0.00    -0.060 A 
HETATM   17  C   UNL     1      20.058  51.248  49.378  1.00  0.00     0.048 C 
HETATM   18  C   UNL     1      22.463  51.261  48.642  1.00  0.00     0.007 A 
HETATM   19  C   UNL     1      23.644  50.598  48.317  1.00  0.00     0.003 A 
HETATM   20  C   UNL     1      23.707  49.206  48.398  1.00  0.00     0.029 A 
ENDBRANCH  11  14
ENDBRANCH   9  10
ENDBRANCH   7   9
ENDBRANCH   1   7
BRANCH   2  21
HETATM   21  C   UNL     1      24.975  41.667  49.201  1.00  0.00     0.419 C 
HETATM   22  F   UNL     1      25.376  41.515  47.901  1.00  0.00    -0.166 F 
HETATM   23  F   UNL     1      25.440  40.568  49.857  1.00  0.00    -0.166 F 
HETATM   24  F   UNL     1      23.618  41.542  49.173  1.00  0.00    -0.166 F 
ENDBRANCH   2  21
BRANCH   4  25
HETATM   25  N   UNL     1      27.892  43.979  52.498  1.00  0.00    -0.321 N 
HETATM   26  C   UNL     1      27.675  43.897  53.862  1.00  0.00     0.279 C 
HETATM   27  O   UNL     1      26.578  43.806  54.403  1.00  0.00    -0.265 OA
HETATM   28  H   UNL     1      28.870  44.026  52.233  1.00  0.00     0.169 HD
BRANCH  26  29
HETATM   29  C   UNL     1      28.912  43.927  54.624  1.00  0.00     0.142 A 
HETATM   30  O   UNL     1      29.186  45.008  55.424  1.00  0.00    -0.317 OA
HETATM   31  C   UNL     1      30.385  44.772  56.018  1.00  0.00     0.143 A 
HETATM   32  C   UNL     1      30.893  43.560  55.616  1.00  0.00     0.027 A 
HETATM   33  C   UNL     1      29.946  43.014  54.716  1.00  0.00     0.045 A 
ENDBRANCH  26  29
ENDBRANCH   4  25
TORSDOF 7
ENDMDL
MODEL 8
REMARK VINA RESULT:      -8.1      4.356      9.132
REMARK  7 active torsions:
REMARK  status: ('A' for Active; 'I' for Inactive)
REMARK    1  A    between atoms: C_4  and  N_5 
REMARK       I    between atoms: N_5  and  C_6 
REMARK    2  A    between atoms: C_6  and  C_7 
REMARK    3  A    between atoms: C_7  and  N_8 
REMARK    4  A    between atoms: N_8  and  C_9 
REMARK    5  A    between atoms: C_10  and  C_11 
REMARK    6  A    between atoms: C_16  and  N_17 
REMARK       I    between atoms: N_17  and  C_18 
REMARK    7  A    between atoms: C_18  and  C_19 
ROOT
HETATM    1  C   UNL     1      27.188  43.462  51.413  1.00  0.00     0.024 A 
HETATM    2  C   UNL     1      27.665  42.295  52.051  1.00  0.00     0.071 A 
HETATM    3  C   UNL     1      27.650  41.050  51.377  1.00  0.00     0.047 A 
HETATM    4  C   UNL     1      27.156  40.933  50.081  1.00  0.00     0.035 A 
HETATM    5  C   UNL     1      26.658  42.076  49.462  1.00  0.00     0.031 A 
HETATM    6  C   UNL     1      26.657  43.310  50.124  1.00  0.00     0.026 A 
ENDROOT
BRANCH   1   7
HETATM    7  N   UNL     1      27.089  44.664  52.119  1.00  0.00    -0.284 NA
HETATM    8  H   UNL     1      27.675  45.405  51.717  1.00  0.00     0.128 HD
BRANCH   7   9
HETATM    9  C   UNL     1      25.787  45.246  52.526  1.00  0.00     0.195 C 
BRANCH   9  10
HETATM   10  C   UNL     1      25.666  46.692  52.014  1.00  0.00     0.235 C 
HETATM   11  N   UNL     1      25.784  46.756  50.637  1.00  0.00    -0.326 N 
HETATM   12  H   UNL     1      25.874  45.841  50.197  1.00  0.00     0.169 HD
HETATM   13  O   UNL     1      25.533  47.633  52.791  1.00  0.00    -0.272 OA
BRANCH  11  14
HETATM   14  C   UNL     1      25.786  47.883  49.801  1.00  0.00     0.035 A 
HETATM   15  C   UNL     1      24.632  48.454  49.262  1.00  0.00     0.036 A 
HETATM   16  C   UNL     1      24.710  49.596  48.446  1.00  0.00    -0.060 A 
HETATM   17  C   UNL     1      23.467  50.185  47.848  1.00  0.00     0.048 C 
HETATM   18  C   UNL     1      25.963  50.143  48.151  1.00  0.00     0.007 A 
HETATM   19  C   UNL     1      27.119  49.578  48.684  1.00  0.00     0.003 A 
HETATM   20  C   UNL     1      27.030  48.455  49.508  1.00  0.00     0.029 A 
ENDBRANCH  11  14
ENDBRANCH   9  10
ENDBRANCH   7   9
ENDBRANCH   1   7
BRANCH   2  21
HETATM   21  C   UNL     1      28.163  42.304  53.477  1.00  0.00     0.419 C 
HETATM   22  F   UNL     1      29.142  43.233  53.701  1.00  0.00    -0.166 F 
HETATM   23  F   UNL     1      27.177  42.588  54.373  1.00  0.00    -0.166 F 
HETATM   24  F   UNL     1      28.701  41.116  53.874  1.00  0.00    -0.166 F 
ENDBRANCH   2  21
BRANCH   4  25
HETATM   25  N   UNL     1      27.111  39.733  49.354  1.00  0.00    -0.321 N 
HETATM   26  C   UNL     1      28.156  39.041  48.766  1.00  0.00     0.279 C 
HETATM   27  O   UNL     1      29.337  39.370  48.806  1.00  0.00    -0.265 OA
HETATM   28  H   UNL     1      26.203  39.296  49.234  1.00  0.00     0.169 HD
BRANCH  26  29
HETATM   29  C   UNL     1      27.711  37.844  48.075  1.00  0.00     0.142 A 
HETATM   30  O   UNL     1      26.651  37.129  48.577  1.00  0.00    -0.317 OA
HETATM   31  C   UNL     1      26.446  36.078  47.741  1.00  0.00     0.143 A 
HETATM   32  C   UNL     1      27.354  36.097  46.709  1.00  0.00     0.027 A 
HETATM   33  C   UNL     1      28.170  37.233  46.923  1.00  0.00     0.045 A 
ENDBRANCH  26  29
ENDBRANCH   4  25
TORSDOF 7
ENDMDL
MODEL 9
REMARK VINA RESULT:      -8.0      3.341     10.824
REMARK  7 active torsions:
REMARK  status: ('A' for Active; 'I' for Inactive)
REMARK    1  A    between atoms: C_4  and  N_5 
REMARK       I    between atoms: N_5  and  C_6 
REMARK    2  A    between atoms: C_6  and  C_7 
REMARK    3  A    between atoms: C_7  and  N_8 
REMARK    4  A    between atoms: N_8  and  C_9 
REMARK    5  A    between atoms: C_10  and  C_11 
REMARK    6  A    between atoms: C_16  and  N_17 
REMARK       I    between atoms: N_17  and  C_18 
REMARK    7  A    between atoms: C_18  and  C_19 
ROOT
HETATM    1  C   UNL     1      24.477  48.325  49.139  1.00  0.00     0.024 A 
HETATM    2  C   UNL     1      25.883  48.401  49.252  1.00  0.00     0.071 A 
HETATM    3  C   UNL     1      26.600  47.424  49.985  1.00  0.00     0.047 A 
HETATM    4  C   UNL     1      25.946  46.373  50.622  1.00  0.00     0.035 A 
HETATM    5  C   UNL     1      24.559  46.312  50.535  1.00  0.00     0.031 A 
HETATM    6  C   UNL     1      23.840  47.281  49.825  1.00  0.00     0.026 A 
ENDROOT
BRANCH   1   7
HETATM    7  N   UNL     1      23.761  49.354  48.522  1.00  0.00    -0.284 NA
HETATM    8  H   UNL     1      23.147  49.012  47.774  1.00  0.00     0.128 HD
BRANCH   7   9
HETATM    9  C   UNL     1      23.046  50.401  49.292  1.00  0.00     0.195 C 
BRANCH   9  10
HETATM   10  C   UNL     1      21.524  50.222  49.150  1.00  0.00     0.235 C 
HETATM   11  N   UNL     1      20.896  51.420  48.860  1.00  0.00    -0.326 N 
HETATM   12  H   UNL     1      21.545  52.196  48.737  1.00  0.00     0.169 HD
HETATM   13  O   UNL     1      20.992  49.131  49.333  1.00  0.00    -0.272 OA
BRANCH  11  14
HETATM   14  C   UNL     1      19.526  51.687  48.711  1.00  0.00     0.035 A 
HETATM   15  C   UNL     1      18.867  51.707  47.481  1.00  0.00     0.036 A 
HETATM   16  C   UNL     1      17.487  51.965  47.411  1.00  0.00    -0.060 A 
HETATM   17  C   UNL     1      16.793  52.013  46.082  1.00  0.00     0.048 C 
HETATM   18  C   UNL     1      16.779  52.232  48.587  1.00  0.00     0.007 A 
HETATM   19  C   UNL     1      17.431  52.215  49.818  1.00  0.00     0.003 A 
HETATM   20  C   UNL     1      18.798  51.941  49.879  1.00  0.00     0.029 A 
ENDBRANCH  11  14
ENDBRANCH   9  10
ENDBRANCH   7   9
ENDBRANCH   1   7
BRANCH   2  21
HETATM   21  C   UNL     1      26.679  49.536  48.651  1.00  0.00     0.419 C 
HETATM   22  F   UNL     1      26.368  49.779  47.342  1.00  0.00    -0.166 F 
HETATM   23  F   UNL     1      26.478  50.716  49.301  1.00  0.00    -0.166 F 
HETATM   24  F   UNL     1      28.026  49.324  48.665  1.00  0.00    -0.166 F 
ENDBRANCH   2  21
BRANCH   4  25
HETATM   25  N   UNL     1      26.592  45.369  51.362  1.00  0.00    -0.321 N 
HETATM   26  C   UNL     1      27.151  44.187  50.909  1.00  0.00     0.279 C 
HETATM   27  O   UNL     1      27.190  43.824  49.738  1.00  0.00    -0.265 OA
HETATM   28  H   UNL     1      26.673  45.511  52.364  1.00  0.00     0.169 HD
BRANCH  26  29
HETATM   29  C   UNL     1      27.711  43.388  51.985  1.00  0.00     0.142 A 
HETATM   30  O   UNL     1      28.756  42.537  51.721  1.00  0.00    -0.317 OA
HETATM   31  C   UNL     1      29.083  41.930  52.891  1.00  0.00     0.143 A 
HETATM   32  C   UNL     1      28.268  42.370  53.908  1.00  0.00     0.027 A 
HETATM   33  C   UNL     1      27.383  43.309  53.326  1.00  0.00     0.045 A 
ENDBRANCH  26  29
ENDBRANCH   4  25
TORSDOF 7
ENDMDL
MODEL 10
REMARK VINA RESULT:      -8.0      3.102      3.634
REMARK  7 active torsions:
REMARK  status: ('A' for Active; 'I' for Inactive)
REMARK    1  A    between atoms: C_4  and  N_5 
REMARK       I    between atoms: N_5  and  C_6 
REMARK    2  A    between atoms: C_6  and  C_7 
REMARK    3  A    between atoms: C_7  and  N_8 
REMARK    4  A    between atoms: N_8  and  C_9 
REMARK    5  A    between atoms: C_10  and  C_11 
REMARK    6  A    between atoms: C_16  and  N_17 
REMARK       I    between atoms: N_17  and  C_18 
REMARK    7  A    between atoms: C_18  and  C_19 
ROOT
HETATM    1  C   UNL     1      25.223  43.309  51.478  1.00  0.00     0.024 A 
HETATM    2  C   UNL     1      24.800  44.650  51.344  1.00  0.00     0.071 A 
HETATM    3  C   UNL     1      23.748  44.987  50.457  1.00  0.00     0.047 A 
HETATM    4  C   UNL     1      23.111  44.017  49.687  1.00  0.00     0.035 A 
HETATM    5  C   UNL     1      23.546  42.700  49.798  1.00  0.00     0.031 A 
HETATM    6  C   UNL     1      24.595  42.359  50.661  1.00  0.00     0.026 A 
ENDROOT
BRANCH   1   7
HETATM    7  N   UNL     1      26.339  42.995  52.258  1.00  0.00    -0.284 NA
HETATM    8  H   UNL     1      26.120  42.328  53.007  1.00  0.00     0.128 HD
BRANCH   7   9
HETATM    9  C   UNL     1      27.652  42.640  51.666  1.00  0.00     0.195 C 
BRANCH   9  10
HETATM   10  C   UNL     1      28.774  42.832  52.702  1.00  0.00     0.235 C 
HETATM   11  N   UNL     1      28.403  43.722  53.694  1.00  0.00    -0.326 N 
HETATM   12  H   UNL     1      27.443  44.052  53.602  1.00  0.00     0.169 HD
HETATM   13  O   UNL     1      29.858  42.272  52.576  1.00  0.00    -0.272 OA
BRANCH  11  14
HETATM   14  C   UNL     1      29.155  44.202  54.778  1.00  0.00     0.035 A 
HETATM   15  C   UNL     1      30.212  43.502  55.362  1.00  0.00     0.036 A 
HETATM   16  C   UNL     1      30.932  44.055  56.434  1.00  0.00    -0.060 A 
HETATM   17  C   UNL     1      32.048  43.282  57.074  1.00  0.00     0.048 C 
HETATM   18  C   UNL     1      30.563  45.307  56.936  1.00  0.00     0.007 A 
HETATM   19  C   UNL     1      29.508  46.010  56.359  1.00  0.00     0.003 A 
HETATM   20  C   UNL     1      28.810  45.461  55.283  1.00  0.00     0.029 A 
ENDBRANCH  11  14
ENDBRANCH   9  10
ENDBRANCH   7   9
ENDBRANCH   1   7
BRANCH   2  21
HETATM   21  C   UNL     1      25.467  45.784  52.087  1.00  0.00     0.419 C 
HETATM   22  F   UNL     1      25.448  45.624  53.445  1.00  0.00    -0.166 F 
HETATM   23  F   UNL     1      26.780  45.925  51.753  1.00  0.00    -0.166 F 
HETATM   24  F   UNL     1      24.890  46.998  51.862  1.00  0.00    -0.166 F 
ENDBRANCH   2  21
BRANCH   4  25
HETATM   25  N   UNL     1      22.063  44.279  48.791  1.00  0.00    -0.321 N 
HETATM   26  C   UNL     1      22.112  44.376  47.411  1.00  0.00     0.279 C 
HETATM   27  O   UNL     1      23.116  44.223  46.723  1.00  0.00    -0.265 OA
HETATM   28  H   UNL     1      21.137  44.415  49.185  1.00  0.00     0.169 HD
BRANCH  26  29
HETATM   29  C   UNL     1      20.816  44.683  46.829  1.00  0.00     0.142 A 
HETATM   30  O   UNL     1      19.699  44.025  47.282  1.00  0.00    -0.317 OA
HETATM   31  C   UNL     1      18.640  44.506  46.581  1.00  0.00     0.143 A 
HETATM   32  C   UNL     1      19.050  45.461  45.681  1.00  0.00     0.027 A 
HETATM   33  C   UNL     1      20.452  45.575  45.838  1.00  0.00     0.045 A 
ENDBRANCH  26  29
ENDBRANCH   4  25
TORSDOF 7
ENDMDL
