MODEL 1
REMARK VINA RESULT:      -9.9      0.000      0.000
REMARK  9 active torsions:
REMARK  status: ('A' for Active; 'I' for Inactive)
REMARK    1  A    between atoms: C_2  and  C_3 
REMARK    2  A    between atoms: C_3  and  C_4 
REMARK    3  A    between atoms: C_4  and  C_5 
REMARK    4  A    between atoms: C_5  and  N_6 
REMARK    5  A    between atoms: C_15  and  C_16 
REMARK       I    between atoms: C_16  and  N_17 
REMARK    6  A    between atoms: N_17  and  C_18 
REMARK    7  A    between atoms: C_18  and  C_19 
REMARK    8  A    between atoms: C_19  and  N_20 
REMARK    9  A    between atoms: N_24  and  C_25 
ROOT
HETATM    1  C   UNL     1      24.702  47.413  50.322  1.00  0.00     0.251 C 
HETATM    2  N   UNL     1      23.487  46.953  49.869  1.00  0.00    -0.355 N 
HETATM    3  O   UNL     1      25.209  48.451  49.908  1.00  0.00    -0.268 OA
HETATM    4  H   UNL     1      23.122  46.101  50.282  1.00  0.00     0.162 HD
ENDROOT
BRANCH   1   5
HETATM    5  C   UNL     1      25.399  46.609  51.355  1.00  0.00     0.034 A 
HETATM    6  C   UNL     1      26.063  45.417  51.028  1.00  0.00     0.047 A 
HETATM    7  C   UNL     1      26.812  44.761  52.009  1.00  0.00     0.053 A 
HETATM    8  N   UNL     1      27.507  43.598  51.693  1.00  0.00    -0.308 N 
HETATM    9  C   UNL     1      26.891  45.275  53.299  1.00  0.00     0.059 A 
HETATM   10  C   UNL     1      28.318  42.930  52.570  1.00  0.00     0.329 A 
HETATM   11  H   UNL     1      27.465  43.186  50.769  1.00  0.00     0.170 HD
HETATM   12  N   UNL     1      28.445  43.471  53.838  1.00  0.00    -0.266 N 
HETATM   13  O   UNL     1      28.882  41.908  52.186  1.00  0.00    -0.246 OA
HETATM   14  C   UNL     1      27.732  44.578  54.289  1.00  0.00     0.264 A 
HETATM   15  O   UNL     1      27.767  45.007  55.440  1.00  0.00    -0.267 OA
HETATM   16  C   UNL     1      26.214  46.452  53.631  1.00  0.00     0.020 A 
HETATM   17  C   UNL     1      25.478  47.125  52.655  1.00  0.00     0.018 A 
BRANCH  12  18
HETATM   18  C   UNL     1      29.336  42.805  54.784  1.00  0.00     0.137 C 
BRANCH  18  19
HETATM   19  C   UNL     1      30.769  43.335  54.694  1.00  0.00     0.020 C 
BRANCH  19  20
HETATM   20  C   UNL     1      31.039  44.366  55.790  1.00  0.00     0.001 C 
BRANCH  20  21
HETATM   21  C   UNL     1      31.489  43.699  57.089  1.00  0.00    -0.004 C 
HETATM   22  C   UNL     1      31.202  44.580  58.293  1.00  0.00     0.005 C 
ENDBRANCH  20  21
ENDBRANCH  19  20
ENDBRANCH  18  19
ENDBRANCH  12  18
ENDBRANCH   1   5
BRANCH   2  23
HETATM   23  C   UNL     1      22.825  47.422  48.651  1.00  0.00     0.150 C 
BRANCH  23  24
HETATM   24  C   UNL     1      21.277  47.388  48.620  1.00  0.00     0.254 C 
BRANCH  24  25
HETATM   25  N   UNL     1      20.634  48.512  49.390  1.00  0.00    -0.067 N 
HETATM   26  H   UNL     1      21.192  48.610  50.264  1.00  0.00     0.280 HD
HETATM   27  C   UNL     1      20.699  49.886  48.730  1.00  0.00     0.254 C 
HETATM   28  C   UNL     1      20.175  50.962  49.703  1.00  0.00     0.150 C 
HETATM   29  N   UNL     1      18.817  50.633  50.169  1.00  0.00    -0.378 N 
HETATM   30  C   UNL     1      18.684  49.300  50.791  1.00  0.00     0.150 C 
HETATM   31  C   UNL     1      19.212  48.198  49.844  1.00  0.00     0.254 C 
BRANCH  29  32
HETATM   32  C   UNL     1      17.694  51.257  49.640  1.00  0.00     0.031 A 
HETATM   33  C   UNL     1      17.234  52.505  50.086  1.00  0.00     0.053 A 
HETATM   34  C   UNL     1      16.078  53.092  49.555  1.00  0.00     0.036 A 
HETATM   35 CL   UNL     1      15.569  54.631  50.134  1.00  0.00    -0.084 Cl
HETATM   36  C   UNL     1      15.343  52.448  48.569  1.00  0.00     0.024 A 
HETATM   37  C   UNL     1      15.767  51.205  48.116  1.00  0.00     0.004 A 
HETATM   38  C   UNL     1      16.923  50.623  48.648  1.00  0.00     0.029 A 
ENDBRANCH  29  32
ENDBRANCH  24  25
ENDBRANCH  23  24
ENDBRANCH   2  23
TORSDOF 9
ENDMDL
MODEL 2
REMARK VINA RESULT:      -9.9      4.254     12.885
REMARK  9 active torsions:
REMARK  status: ('A' for Active; 'I' for Inactive)
REMARK    1  A    between atoms: C_2  and  C_3 
REMARK    2  A    between atoms: C_3  and  C_4 
REMARK    3  A    between atoms: C_4  and  C_5 
REMARK    4  A    between atoms: C_5  and  N_6 
REMARK    5  A    between atoms: C_15  and  C_16 
REMARK       I    between atoms: C_16  and  N_17 
REMARK    6  A    between atoms: N_17  and  C_18 
REMARK    7  A    between atoms: C_18  and  C_19 
REMARK    8  A    between atoms: C_19  and  N_20 
REMARK    9  A    between atoms: N_24  and  C_25 
ROOT
HETATM    1  C   UNL     1      24.042  48.382  49.567  1.00  0.00     0.251 C 
HETATM    2  N   UNL     1      23.862  47.173  50.198  1.00  0.00    -0.355 N 
HETATM    3  O   UNL     1      25.155  48.842  49.332  1.00  0.00    -0.268 OA
HETATM    4  H   UNL     1      22.910  46.847  50.331  1.00  0.00     0.162 HD
ENDROOT
BRANCH   1   5
HETATM    5  C   UNL     1      22.829  49.132  49.161  1.00  0.00     0.034 A 
HETATM    6  C   UNL     1      21.598  48.486  48.976  1.00  0.00     0.047 A 
HETATM    7  C   UNL     1      20.457  49.251  48.719  1.00  0.00     0.053 A 
HETATM    8  N   UNL     1      19.221  48.631  48.570  1.00  0.00    -0.308 N 
HETATM    9  C   UNL     1      20.540  50.636  48.632  1.00  0.00     0.059 A 
HETATM   10  C   UNL     1      18.044  49.304  48.384  1.00  0.00     0.329 A 
HETATM   11  H   UNL     1      19.121  47.624  48.614  1.00  0.00     0.170 HD
HETATM   12  N   UNL     1      18.115  50.687  48.356  1.00  0.00    -0.266 N 
HETATM   13  O   UNL     1      17.008  48.655  48.260  1.00  0.00    -0.246 OA
HETATM   14  C   UNL     1      19.304  51.408  48.408  1.00  0.00     0.264 A 
HETATM   15  O   UNL     1      19.384  52.629  48.287  1.00  0.00    -0.267 OA
HETATM   16  C   UNL     1      21.770  51.281  48.796  1.00  0.00     0.020 A 
HETATM   17  C   UNL     1      22.913  50.528  49.072  1.00  0.00     0.018 A 
BRANCH  12  18
HETATM   18  C   UNL     1      16.872  51.436  48.201  1.00  0.00     0.137 C 
BRANCH  18  19
HETATM   19  C   UNL     1      16.253  51.808  49.550  1.00  0.00     0.020 C 
BRANCH  19  20
HETATM   20  C   UNL     1      15.300  52.994  49.405  1.00  0.00     0.001 C 
BRANCH  20  21
HETATM   21  C   UNL     1      14.248  53.008  50.514  1.00  0.00    -0.004 C 
HETATM   22  C   UNL     1      13.179  54.056  50.251  1.00  0.00     0.005 C 
ENDBRANCH  20  21
ENDBRANCH  19  20
ENDBRANCH  18  19
ENDBRANCH  12  18
ENDBRANCH   1   5
BRANCH   2  23
HETATM   23  C   UNL     1      24.901  46.464  50.946  1.00  0.00     0.150 C 
BRANCH  23  24
HETATM   24  C   UNL     1      25.389  45.106  50.384  1.00  0.00     0.254 C 
BRANCH  24  25
HETATM   25  N   UNL     1      26.147  44.276  51.385  1.00  0.00    -0.067 N 
HETATM   26  H   UNL     1      25.851  43.291  51.216  1.00  0.00     0.280 HD
HETATM   27  C   UNL     1      27.664  44.261  51.216  1.00  0.00     0.254 C 
HETATM   28  C   UNL     1      28.290  43.233  52.181  1.00  0.00     0.150 C 
HETATM   29  N   UNL     1      27.889  43.505  53.572  1.00  0.00    -0.378 N 
HETATM   30  C   UNL     1      26.430  43.562  53.793  1.00  0.00     0.150 C 
HETATM   31  C   UNL     1      25.769  44.576  52.831  1.00  0.00     0.254 C 
BRANCH  29  32
HETATM   32  C   UNL     1      28.742  44.140  54.466  1.00  0.00     0.031 A 
HETATM   33  C   UNL     1      29.808  43.484  55.101  1.00  0.00     0.053 A 
HETATM   34  C   UNL     1      30.629  44.144  56.023  1.00  0.00     0.036 A 
HETATM   35 CL   UNL     1      31.928  43.289  56.762  1.00  0.00    -0.084 Cl
HETATM   36  C   UNL     1      30.408  45.476  56.345  1.00  0.00     0.024 A 
HETATM   37  C   UNL     1      29.353  46.150  55.742  1.00  0.00     0.004 A 
HETATM   38  C   UNL     1      28.536  45.486  54.819  1.00  0.00     0.029 A 
ENDBRANCH  29  32
ENDBRANCH  24  25
ENDBRANCH  23  24
ENDBRANCH   2  23
TORSDOF 9
ENDMDL
MODEL 3
REMARK VINA RESULT:      -9.6      3.902     12.453
REMARK  9 active torsions:
REMARK  status: ('A' for Active; 'I' for Inactive)
REMARK    1  A    between atoms: C_2  and  C_3 
REMARK    2  A    between atoms: C_3  and  C_4 
REMARK    3  A    between atoms: C_4  and  C_5 
REMARK    4  A    between atoms: C_5  and  N_6 
REMARK    5  A    between atoms: C_15  and  C_16 
REMARK       I    between atoms: C_16  and  N_17 
REMARK    6  A    between atoms: N_17  and  C_18 
REMARK    7  A    between atoms: C_18  and  C_19 
REMARK    8  A    between atoms: C_19  and  N_20 
REMARK    9  A    between atoms: N_24  and  C_25 
ROOT
HETATM    1  C   UNL     1      25.012  48.781  48.933  1.00  0.00     0.251 C 
HETATM    2  N   UNL     1      25.158  47.568  49.564  1.00  0.00    -0.355 N 
HETATM    3  O   UNL     1      25.961  49.390  48.449  1.00  0.00    -0.268 OA
HETATM    4  H   UNL     1      24.320  47.113  49.913  1.00  0.00     0.162 HD
ENDROOT
BRANCH   1   5
HETATM    5  C   UNL     1      23.644  49.348  48.842  1.00  0.00     0.034 A 
HETATM    6  C   UNL     1      22.524  48.628  49.282  1.00  0.00     0.047 A 
HETATM    7  C   UNL     1      21.273  49.251  49.296  1.00  0.00     0.053 A 
HETATM    8  N   UNL     1      20.157  48.565  49.764  1.00  0.00    -0.308 N 
HETATM    9  C   UNL     1      21.134  50.566  48.866  1.00  0.00     0.059 A 
HETATM   10  C   UNL     1      18.911  49.118  49.876  1.00  0.00     0.329 A 
HETATM   11  H   UNL     1      20.215  47.603  50.075  1.00  0.00     0.170 HD
HETATM   12  N   UNL     1      18.781  50.445  49.503  1.00  0.00    -0.266 N 
HETATM   13  O   UNL     1      17.993  48.418  50.300  1.00  0.00    -0.246 OA
HETATM   14  C   UNL     1      19.806  51.201  48.942  1.00  0.00     0.264 A 
HETATM   15  O   UNL     1      19.675  52.348  48.521  1.00  0.00    -0.267 OA
HETATM   16  C   UNL     1      22.247  51.279  48.408  1.00  0.00     0.020 A 
HETATM   17  C   UNL     1      23.504  50.673  48.407  1.00  0.00     0.018 A 
BRANCH  12  18
HETATM   18  C   UNL     1      17.473  51.076  49.651  1.00  0.00     0.137 C 
BRANCH  18  19
HETATM   19  C   UNL     1      16.470  50.568  48.612  1.00  0.00     0.020 C 
BRANCH  19  20
HETATM   20  C   UNL     1      15.973  51.712  47.728  1.00  0.00     0.001 C 
BRANCH  20  21
HETATM   21  C   UNL     1      16.954  52.013  46.596  1.00  0.00    -0.004 C 
HETATM   22  C   UNL     1      17.449  50.735  45.937  1.00  0.00     0.005 C 
ENDBRANCH  20  21
ENDBRANCH  19  20
ENDBRANCH  18  19
ENDBRANCH  12  18
ENDBRANCH   1   5
BRANCH   2  23
HETATM   23  C   UNL     1      26.434  47.023  50.028  1.00  0.00     0.150 C 
BRANCH  23  24
HETATM   24  C   UNL     1      26.682  45.507  49.826  1.00  0.00     0.254 C 
BRANCH  24  25
HETATM   25  N   UNL     1      26.723  44.725  51.112  1.00  0.00    -0.067 N 
HETATM   26  H   UNL     1      25.840  44.172  51.134  1.00  0.00     0.280 HD
HETATM   27  C   UNL     1      27.835  43.687  51.218  1.00  0.00     0.254 C 
HETATM   28  C   UNL     1      27.645  42.840  52.494  1.00  0.00     0.150 C 
HETATM   29  N   UNL     1      27.572  43.699  53.688  1.00  0.00    -0.378 N 
HETATM   30  C   UNL     1      26.531  44.746  53.633  1.00  0.00     0.150 C 
HETATM   31  C   UNL     1      26.687  45.606  52.357  1.00  0.00     0.254 C 
BRANCH  29  32
HETATM   32  C   UNL     1      28.658  43.859  54.540  1.00  0.00     0.031 A 
HETATM   33  C   UNL     1      28.711  44.852  55.529  1.00  0.00     0.053 A 
HETATM   34  C   UNL     1      29.835  45.008  56.351  1.00  0.00     0.036 A 
HETATM   35 CL   UNL     1      29.837  46.239  57.555  1.00  0.00    -0.084 Cl
HETATM   36  C   UNL     1      30.941  44.183  56.205  1.00  0.00     0.024 A 
HETATM   37  C   UNL     1      30.923  43.197  55.226  1.00  0.00     0.004 A 
HETATM   38  C   UNL     1      29.797  43.044  54.408  1.00  0.00     0.029 A 
ENDBRANCH  29  32
ENDBRANCH  24  25
ENDBRANCH  23  24
ENDBRANCH   2  23
TORSDOF 9
ENDMDL
MODEL 4
REMARK VINA RESULT:      -9.3      1.325      1.635
REMARK  9 active torsions:
REMARK  status: ('A' for Active; 'I' for Inactive)
REMARK    1  A    between atoms: C_2  and  C_3 
REMARK    2  A    between atoms: C_3  and  C_4 
REMARK    3  A    between atoms: C_4  and  C_5 
REMARK    4  A    between atoms: C_5  and  N_6 
REMARK    5  A    between atoms: C_15  and  C_16 
REMARK       I    between atoms: C_16  and  N_17 
REMARK    6  A    between atoms: N_17  and  C_18 
REMARK    7  A    between atoms: C_18  and  C_19 
REMARK    8  A    between atoms: C_19  and  N_20 
REMARK    9  A    between atoms: N_24  and  C_25 
ROOT
HETATM    1  C   UNL     1      24.221  47.463  49.573  1.00  0.00     0.251 C 
HETATM    2  N   UNL     1      24.834  48.612  49.129  1.00  0.00    -0.355 N 
HETATM    3  O   UNL     1      23.165  47.055  49.099  1.00  0.00    -0.268 OA
HETATM    4  H   UNL     1      25.720  48.868  49.552  1.00  0.00     0.162 HD
ENDROOT
BRANCH   1   5
HETATM    5  C   UNL     1      24.887  46.706  50.660  1.00  0.00     0.034 A 
HETATM    6  C   UNL     1      25.287  45.374  50.484  1.00  0.00     0.047 A 
HETATM    7  C   UNL     1      26.024  44.743  51.490  1.00  0.00     0.053 A 
HETATM    8  N   UNL     1      26.462  43.434  51.317  1.00  0.00    -0.308 N 
HETATM    9  C   UNL     1      26.347  45.421  52.660  1.00  0.00     0.059 A 
HETATM   10  C   UNL     1      27.244  42.763  52.218  1.00  0.00     0.329 A 
HETATM   11  H   UNL     1      26.237  42.902  50.485  1.00  0.00     0.170 HD
HETATM   12  N   UNL     1      27.615  43.456  53.357  1.00  0.00    -0.266 N 
HETATM   13  O   UNL     1      27.570  41.606  51.965  1.00  0.00    -0.246 OA
HETATM   14  C   UNL     1      27.167  44.734  53.675  1.00  0.00     0.264 A 
HETATM   15  O   UNL     1      27.415  45.318  54.727  1.00  0.00    -0.267 OA
HETATM   16  C   UNL     1      25.931  46.743  52.846  1.00  0.00     0.020 A 
HETATM   17  C   UNL     1      25.211  47.389  51.840  1.00  0.00     0.018 A 
BRANCH  12  18
HETATM   18  C   UNL     1      28.484  42.782  54.319  1.00  0.00     0.137 C 
BRANCH  18  19
HETATM   19  C   UNL     1      29.966  43.018  54.017  1.00  0.00     0.020 C 
BRANCH  19  20
HETATM   20  C   UNL     1      30.629  43.822  55.136  1.00  0.00     0.001 C 
BRANCH  20  21
HETATM   21  C   UNL     1      30.779  42.990  56.410  1.00  0.00    -0.004 C 
HETATM   22  C   UNL     1      32.068  43.325  57.143  1.00  0.00     0.005 C 
ENDBRANCH  20  21
ENDBRANCH  19  20
ENDBRANCH  18  19
ENDBRANCH  12  18
ENDBRANCH   1   5
BRANCH   2  23
HETATM   23  C   UNL     1      24.181  49.639  48.316  1.00  0.00     0.150 C 
BRANCH  23  24
HETATM   24  C   UNL     1      23.214  50.614  49.035  1.00  0.00     0.254 C 
BRANCH  24  25
HETATM   25  N   UNL     1      21.815  50.077  49.180  1.00  0.00    -0.067 N 
HETATM   26  H   UNL     1      21.921  49.111  49.555  1.00  0.00     0.280 HD
HETATM   27  C   UNL     1      20.935  50.795  50.198  1.00  0.00     0.254 C 
HETATM   28  C   UNL     1      19.606  50.031  50.377  1.00  0.00     0.150 C 
HETATM   29  N   UNL     1      18.925  49.851  49.084  1.00  0.00    -0.378 N 
HETATM   30  C   UNL     1      19.739  49.186  48.045  1.00  0.00     0.150 C 
HETATM   31  C   UNL     1      21.085  49.922  47.850  1.00  0.00     0.254 C 
BRANCH  29  32
HETATM   32  C   UNL     1      17.854  50.650  48.705  1.00  0.00     0.031 A 
HETATM   33  C   UNL     1      17.114  51.417  49.619  1.00  0.00     0.053 A 
HETATM   34  C   UNL     1      16.018  52.187  49.210  1.00  0.00     0.036 A 
HETATM   35 CL   UNL     1      15.156  53.115  50.375  1.00  0.00    -0.084 Cl
HETATM   36  C   UNL     1      15.622  52.210  47.880  1.00  0.00     0.024 A 
HETATM   37  C   UNL     1      16.328  51.452  46.953  1.00  0.00     0.004 A 
HETATM   38  C   UNL     1      17.424  50.685  47.366  1.00  0.00     0.029 A 
ENDBRANCH  29  32
ENDBRANCH  24  25
ENDBRANCH  23  24
ENDBRANCH   2  23
TORSDOF 9
ENDMDL
MODEL 5
REMARK VINA RESULT:      -9.1      4.348     12.836
REMARK  9 active torsions:
REMARK  status: ('A' for Active; 'I' for Inactive)
REMARK    1  A    between atoms: C_2  and  C_3 
REMARK    2  A    between atoms: C_3  and  C_4 
REMARK    3  A    between atoms: C_4  and  C_5 
REMARK    4  A    between atoms: C_5  and  N_6 
REMARK    5  A    between atoms: C_15  and  C_16 
REMARK       I    between atoms: C_16  and  N_17 
REMARK    6  A    between atoms: N_17  and  C_18 
REMARK    7  A    between atoms: C_18  and  C_19 
REMARK    8  A    between atoms: C_19  and  N_20 
REMARK    9  A    between atoms: N_24  and  C_25 
ROOT
HETATM    1  C   UNL     1      22.437  47.366  48.437  1.00  0.00     0.251 C 
HETATM    2  N   UNL     1      23.251  47.411  49.545  1.00  0.00    -0.355 N 
HETATM    3  O   UNL     1      22.505  46.465  47.606  1.00  0.00    -0.268 OA
HETATM    4  H   UNL     1      23.113  48.174  50.201  1.00  0.00     0.162 HD
ENDROOT
BRANCH   1   5
HETATM    5  C   UNL     1      21.444  48.455  48.269  1.00  0.00     0.034 A 
HETATM    6  C   UNL     1      20.068  48.189  48.224  1.00  0.00     0.047 A 
HETATM    7  C   UNL     1      19.166  49.256  48.193  1.00  0.00     0.053 A 
HETATM    8  N   UNL     1      17.796  49.012  48.186  1.00  0.00    -0.308 N 
HETATM    9  C   UNL     1      19.625  50.569  48.194  1.00  0.00     0.059 A 
HETATM   10  C   UNL     1      16.844  49.994  48.224  1.00  0.00     0.329 A 
HETATM   11  H   UNL     1      17.423  48.071  48.173  1.00  0.00     0.170 HD
HETATM   12  N   UNL     1      17.298  51.300  48.284  1.00  0.00    -0.266 N 
HETATM   13  O   UNL     1      15.660  49.665  48.210  1.00  0.00    -0.246 OA
HETATM   14  C   UNL     1      18.639  51.665  48.210  1.00  0.00     0.264 A 
HETATM   15  O   UNL     1      19.044  52.824  48.166  1.00  0.00    -0.267 OA
HETATM   16  C   UNL     1      20.998  50.836  48.219  1.00  0.00     0.020 A 
HETATM   17  C   UNL     1      21.906  49.778  48.268  1.00  0.00     0.018 A 
BRANCH  12  18
HETATM   18  C   UNL     1      16.307  52.369  48.368  1.00  0.00     0.137 C 
BRANCH  18  19
HETATM   19  C   UNL     1      16.182  52.926  49.789  1.00  0.00     0.020 C 
BRANCH  19  20
HETATM   20  C   UNL     1      14.801  52.628  50.372  1.00  0.00     0.001 C 
BRANCH  20  21
HETATM   21  C   UNL     1      13.957  53.896  50.491  1.00  0.00    -0.004 C 
HETATM   22  C   UNL     1      14.280  54.660  51.765  1.00  0.00     0.005 C 
ENDBRANCH  20  21
ENDBRANCH  19  20
ENDBRANCH  18  19
ENDBRANCH  12  18
ENDBRANCH   1   5
BRANCH   2  23
HETATM   23  C   UNL     1      24.477  46.629  49.706  1.00  0.00     0.150 C 
BRANCH  23  24
HETATM   24  C   UNL     1      24.400  45.347  50.573  1.00  0.00     0.254 C 
BRANCH  24  25
HETATM   25  N   UNL     1      24.803  45.564  52.007  1.00  0.00    -0.067 N 
HETATM   26  H   UNL     1      23.970  45.981  52.474  1.00  0.00     0.280 HD
HETATM   27  C   UNL     1      25.105  44.300  52.806  1.00  0.00     0.254 C 
HETATM   28  C   UNL     1      25.319  44.655  54.292  1.00  0.00     0.150 C 
HETATM   29  N   UNL     1      26.373  45.672  54.443  1.00  0.00    -0.378 N 
HETATM   30  C   UNL     1      26.152  46.910  53.668  1.00  0.00     0.150 C 
HETATM   31  C   UNL     1      25.922  46.587  52.173  1.00  0.00     0.254 C 
BRANCH  29  32
HETATM   32  C   UNL     1      27.661  45.335  54.840  1.00  0.00     0.031 A 
HETATM   33  C   UNL     1      28.426  44.353  54.192  1.00  0.00     0.053 A 
HETATM   34  C   UNL     1      29.710  44.013  54.637  1.00  0.00     0.036 A 
HETATM   35 CL   UNL     1      30.605  42.808  53.795  1.00  0.00    -0.084 Cl
HETATM   36  C   UNL     1      30.266  44.637  55.746  1.00  0.00     0.024 A 
HETATM   37  C   UNL     1      29.528  45.605  56.415  1.00  0.00     0.004 A 
HETATM   38  C   UNL     1      28.246  45.943  55.966  1.00  0.00     0.029 A 
ENDBRANCH  29  32
ENDBRANCH  24  25
ENDBRANCH  23  24
ENDBRANCH   2  23
TORSDOF 9
ENDMDL
MODEL 6
REMARK VINA RESULT:      -9.1      1.639      2.393
REMARK  9 active torsions:
REMARK  status: ('A' for Active; 'I' for Inactive)
REMARK    1  A    between atoms: C_2  and  C_3 
REMARK    2  A    between atoms: C_3  and  C_4 
REMARK    3  A    between atoms: C_4  and  C_5 
REMARK    4  A    between atoms: C_5  and  N_6 
REMARK    5  A    between atoms: C_15  and  C_16 
REMARK       I    between atoms: C_16  and  N_17 
REMARK    6  A    between atoms: N_17  and  C_18 
REMARK    7  A    between atoms: C_18  and  C_19 
REMARK    8  A    between atoms: C_19  and  N_20 
REMARK    9  A    between atoms: N_24  and  C_25 
ROOT
HETATM    1  C   UNL     1      23.931  45.768  49.450  1.00  0.00     0.251 C 
HETATM    2  N   UNL     1      23.574  47.046  49.087  1.00  0.00    -0.355 N 
HETATM    3  O   UNL     1      23.490  44.774  48.882  1.00  0.00    -0.268 OA
HETATM    4  H   UNL     1      24.004  47.817  49.587  1.00  0.00     0.162 HD
ENDROOT
BRANCH   1   5
HETATM    5  C   UNL     1      24.893  45.616  50.570  1.00  0.00     0.034 A 
HETATM    6  C   UNL     1      25.154  46.670  51.457  1.00  0.00     0.047 A 
HETATM    7  C   UNL     1      25.968  46.441  52.569  1.00  0.00     0.053 A 
HETATM    8  N   UNL     1      26.208  47.465  53.481  1.00  0.00    -0.308 N 
HETATM    9  C   UNL     1      26.525  45.186  52.791  1.00  0.00     0.059 A 
HETATM   10  C   UNL     1      26.935  47.311  54.630  1.00  0.00     0.329 A 
HETATM   11  H   UNL     1      25.831  48.395  53.349  1.00  0.00     0.170 HD
HETATM   12  N   UNL     1      27.443  46.048  54.882  1.00  0.00    -0.266 N 
HETATM   13  O   UNL     1      27.088  48.286  55.363  1.00  0.00    -0.246 OA
HETATM   14  C   UNL     1      27.338  44.975  54.002  1.00  0.00     0.264 A 
HETATM   15  O   UNL     1      27.867  43.879  54.175  1.00  0.00    -0.267 OA
HETATM   16  C   UNL     1      26.282  44.139  51.896  1.00  0.00     0.020 A 
HETATM   17  C   UNL     1      25.455  44.352  50.792  1.00  0.00     0.018 A 
BRANCH  12  18
HETATM   18  C   UNL     1      28.187  45.841  56.121  1.00  0.00     0.137 C 
BRANCH  18  19
HETATM   19  C   UNL     1      29.682  46.118  55.945  1.00  0.00     0.020 C 
BRANCH  19  20
HETATM   20  C   UNL     1      30.511  45.262  56.903  1.00  0.00     0.001 C 
BRANCH  20  21
HETATM   21  C   UNL     1      31.162  44.082  56.181  1.00  0.00    -0.004 C 
HETATM   22  C   UNL     1      31.897  43.174  57.153  1.00  0.00     0.005 C 
ENDBRANCH  20  21
ENDBRANCH  19  20
ENDBRANCH  18  19
ENDBRANCH  12  18
ENDBRANCH   1   5
BRANCH   2  23
HETATM   23  C   UNL     1      22.421  47.378  48.249  1.00  0.00     0.150 C 
BRANCH  23  24
HETATM   24  C   UNL     1      22.085  48.877  48.056  1.00  0.00     0.254 C 
BRANCH  24  25
HETATM   25  N   UNL     1      21.040  49.390  49.012  1.00  0.00    -0.067 N 
HETATM   26  H   UNL     1      21.363  49.102  49.961  1.00  0.00     0.280 HD
HETATM   27  C   UNL     1      20.905  50.908  49.091  1.00  0.00     0.254 C 
HETATM   28  C   UNL     1      19.943  51.291  50.234  1.00  0.00     0.150 C 
HETATM   29  N   UNL     1      18.640  50.626  50.069  1.00  0.00    -0.378 N 
HETATM   30  C   UNL     1      18.708  49.154  49.958  1.00  0.00     0.150 C 
HETATM   31  C   UNL     1      19.676  48.735  48.826  1.00  0.00     0.254 C 
BRANCH  29  32
HETATM   32  C   UNL     1      17.534  51.299  49.564  1.00  0.00     0.031 A 
HETATM   33  C   UNL     1      17.138  52.565  50.022  1.00  0.00     0.053 A 
HETATM   34  C   UNL     1      16.000  53.204  49.515  1.00  0.00     0.036 A 
HETATM   35 CL   UNL     1      15.570  54.762  50.108  1.00  0.00    -0.084 Cl
HETATM   36  C   UNL     1      15.218  52.595  48.543  1.00  0.00     0.024 A 
HETATM   37  C   UNL     1      15.578  51.336  48.078  1.00  0.00     0.004 A 
HETATM   38  C   UNL     1      16.718  50.703  48.587  1.00  0.00     0.029 A 
ENDBRANCH  29  32
ENDBRANCH  24  25
ENDBRANCH  23  24
ENDBRANCH   2  23
TORSDOF 9
ENDMDL
MODEL 7
REMARK VINA RESULT:      -8.9     12.384     15.943
REMARK  9 active torsions:
REMARK  status: ('A' for Active; 'I' for Inactive)
REMARK    1  A    between atoms: C_2  and  C_3 
REMARK    2  A    between atoms: C_3  and  C_4 
REMARK    3  A    between atoms: C_4  and  C_5 
REMARK    4  A    between atoms: C_5  and  N_6 
REMARK    5  A    between atoms: C_15  and  C_16 
REMARK       I    between atoms: C_16  and  N_17 
REMARK    6  A    between atoms: N_17  and  C_18 
REMARK    7  A    between atoms: C_18  and  C_19 
REMARK    8  A    between atoms: C_19  and  N_20 
REMARK    9  A    between atoms: N_24  and  C_25 
ROOT
HETATM    1  C   UNL     1      32.935  51.806  39.078  1.00  0.00     0.251 C 
HETATM    2  N   UNL     1      33.966  50.902  39.189  1.00  0.00    -0.355 N 
HETATM    3  O   UNL     1      33.091  53.009  39.266  1.00  0.00    -0.268 OA
HETATM    4  H   UNL     1      33.762  49.928  38.990  1.00  0.00     0.162 HD
ENDROOT
BRANCH   1   5
HETATM    5  C   UNL     1      31.598  51.281  38.710  1.00  0.00     0.034 A 
HETATM    6  C   UNL     1      31.309  49.910  38.768  1.00  0.00     0.047 A 
HETATM    7  C   UNL     1      30.001  49.476  38.535  1.00  0.00     0.053 A 
HETATM    8  N   UNL     1      29.689  48.123  38.625  1.00  0.00    -0.308 N 
HETATM    9  C   UNL     1      28.997  50.390  38.236  1.00  0.00     0.059 A 
HETATM   10  C   UNL     1      28.425  47.619  38.480  1.00  0.00     0.329 A 
HETATM   11  H   UNL     1      30.394  47.426  38.828  1.00  0.00     0.170 HD
HETATM   12  N   UNL     1      27.413  48.533  38.240  1.00  0.00    -0.266 N 
HETATM   13  O   UNL     1      28.263  46.405  38.575  1.00  0.00    -0.246 OA
HETATM   14  C   UNL     1      27.621  49.895  38.046  1.00  0.00     0.264 A 
HETATM   15  O   UNL     1      26.742  50.697  37.739  1.00  0.00    -0.267 OA
HETATM   16  C   UNL     1      29.286  51.756  38.159  1.00  0.00     0.020 A 
HETATM   17  C   UNL     1      30.585  52.202  38.407  1.00  0.00     0.018 A 
BRANCH  12  18
HETATM   18  C   UNL     1      26.047  48.030  38.123  1.00  0.00     0.137 C 
BRANCH  18  19
HETATM   19  C   UNL     1      25.324  48.012  39.471  1.00  0.00     0.020 C 
BRANCH  19  20
HETATM   20  C   UNL     1      23.846  48.364  39.303  1.00  0.00     0.001 C 
BRANCH  20  21
HETATM   21  C   UNL     1      23.664  49.800  38.813  1.00  0.00    -0.004 C 
HETATM   22  C   UNL     1      22.283  50.333  39.158  1.00  0.00     0.005 C 
ENDBRANCH  20  21
ENDBRANCH  19  20
ENDBRANCH  18  19
ENDBRANCH  12  18
ENDBRANCH   1   5
BRANCH   2  23
HETATM   23  C   UNL     1      35.244  51.178  39.846  1.00  0.00     0.150 C 
BRANCH  23  24
HETATM   24  C   UNL     1      35.612  50.323  41.084  1.00  0.00     0.254 C 
BRANCH  24  25
HETATM   25  N   UNL     1      34.427  49.960  41.940  1.00  0.00    -0.067 N 
HETATM   26  H   UNL     1      34.823  49.532  42.803  1.00  0.00     0.280 HD
HETATM   27  C   UNL     1      33.589  51.134  42.438  1.00  0.00     0.254 C 
HETATM   28  C   UNL     1      32.532  50.635  43.445  1.00  0.00     0.150 C 
HETATM   29  N   UNL     1      31.702  49.573  42.853  1.00  0.00    -0.378 N 
HETATM   30  C   UNL     1      32.460  48.420  42.325  1.00  0.00     0.150 C 
HETATM   31  C   UNL     1      33.538  48.888  41.319  1.00  0.00     0.254 C 
BRANCH  29  32
HETATM   32  C   UNL     1      30.422  49.826  42.376  1.00  0.00     0.031 A 
HETATM   33  C   UNL     1      29.959  51.119  42.087  1.00  0.00     0.053 A 
HETATM   34  C   UNL     1      28.651  51.344  41.638  1.00  0.00     0.036 A 
HETATM   35 CL   UNL     1      28.143  52.951  41.288  1.00  0.00    -0.084 Cl
HETATM   36  C   UNL     1      27.765  50.288  41.471  1.00  0.00     0.024 A 
HETATM   37  C   UNL     1      28.192  48.998  41.760  1.00  0.00     0.004 A 
HETATM   38  C   UNL     1      29.500  48.777  42.207  1.00  0.00     0.029 A 
ENDBRANCH  29  32
ENDBRANCH  24  25
ENDBRANCH  23  24
ENDBRANCH   2  23
TORSDOF 9
ENDMDL
MODEL 8
REMARK VINA RESULT:      -8.9      2.279      2.959
REMARK  9 active torsions:
REMARK  status: ('A' for Active; 'I' for Inactive)
REMARK    1  A    between atoms: C_2  and  C_3 
REMARK    2  A    between atoms: C_3  and  C_4 
REMARK    3  A    between atoms: C_4  and  C_5 
REMARK    4  A    between atoms: C_5  and  N_6 
REMARK    5  A    between atoms: C_15  and  C_16 
REMARK       I    between atoms: C_16  and  N_17 
REMARK    6  A    between atoms: N_17  and  C_18 
REMARK    7  A    between atoms: C_18  and  C_19 
REMARK    8  A    between atoms: C_19  and  N_20 
REMARK    9  A    between atoms: N_24  and  C_25 
ROOT
HETATM    1  C   UNL     1      23.061  44.225  48.974  1.00  0.00     0.251 C 
HETATM    2  N   UNL     1      23.132  44.948  47.806  1.00  0.00    -0.355 N 
HETATM    3  O   UNL     1      22.405  43.192  49.070  1.00  0.00    -0.268 OA
HETATM    4  H   UNL     1      23.719  45.777  47.799  1.00  0.00     0.162 HD
ENDROOT
BRANCH   1   5
HETATM    5  C   UNL     1      23.821  44.731  50.142  1.00  0.00     0.034 A 
HETATM    6  C   UNL     1      24.242  43.872  51.168  1.00  0.00     0.047 A 
HETATM    7  C   UNL     1      25.063  44.371  52.183  1.00  0.00     0.053 A 
HETATM    8  N   UNL     1      25.521  43.525  53.189  1.00  0.00    -0.308 N 
HETATM    9  C   UNL     1      25.450  45.706  52.186  1.00  0.00     0.059 A 
HETATM   10  C   UNL     1      26.381  43.911  54.180  1.00  0.00     0.329 A 
HETATM   11  H   UNL     1      25.252  42.550  53.228  1.00  0.00     0.170 HD
HETATM   12  N   UNL     1      26.814  45.226  54.153  1.00  0.00    -0.266 N 
HETATM   13  O   UNL     1      26.718  43.081  55.022  1.00  0.00    -0.246 OA
HETATM   14  C   UNL     1      26.357  46.180  53.248  1.00  0.00     0.264 A 
HETATM   15  O   UNL     1      26.664  47.369  53.276  1.00  0.00    -0.267 OA
HETATM   16  C   UNL     1      25.016  46.569  51.175  1.00  0.00     0.020 A 
HETATM   17  C   UNL     1      24.210  46.077  50.146  1.00  0.00     0.018 A 
BRANCH  12  18
HETATM   18  C   UNL     1      27.765  45.658  55.173  1.00  0.00     0.137 C 
BRANCH  18  19
HETATM   19  C   UNL     1      29.202  45.258  54.825  1.00  0.00     0.020 C 
BRANCH  19  20
HETATM   20  C   UNL     1      29.990  44.907  56.087  1.00  0.00     0.001 C 
BRANCH  20  21
HETATM   21  C   UNL     1      30.807  43.628  55.900  1.00  0.00    -0.004 C 
HETATM   22  C   UNL     1      31.734  43.385  57.080  1.00  0.00     0.005 C 
ENDBRANCH  20  21
ENDBRANCH  19  20
ENDBRANCH  18  19
ENDBRANCH  12  18
ENDBRANCH   1   5
BRANCH   2  23
HETATM   23  C   UNL     1      22.215  44.792  46.676  1.00  0.00     0.150 C 
BRANCH  23  24
HETATM   24  C   UNL     1      21.557  46.073  46.106  1.00  0.00     0.254 C 
BRANCH  24  25
HETATM   25  N   UNL     1      20.439  46.609  46.961  1.00  0.00    -0.067 N 
HETATM   26  H   UNL     1      19.874  45.778  47.239  1.00  0.00     0.280 HD
HETATM   27  C   UNL     1      20.865  47.247  48.280  1.00  0.00     0.254 C 
HETATM   28  C   UNL     1      19.621  47.578  49.130  1.00  0.00     0.150 C 
HETATM   29  N   UNL     1      18.682  48.429  48.380  1.00  0.00    -0.378 N 
HETATM   30  C   UNL     1      18.255  47.877  47.077  1.00  0.00     0.150 C 
HETATM   31  C   UNL     1      19.482  47.523  46.204  1.00  0.00     0.254 C 
BRANCH  29  32
HETATM   32  C   UNL     1      18.600  49.798  48.602  1.00  0.00     0.031 A 
HETATM   33  C   UNL     1      17.452  50.419  49.117  1.00  0.00     0.053 A 
HETATM   34  C   UNL     1      17.388  51.806  49.299  1.00  0.00     0.036 A 
HETATM   35 CL   UNL     1      15.956  52.509  49.945  1.00  0.00    -0.084 Cl
HETATM   36  C   UNL     1      18.465  52.616  48.966  1.00  0.00     0.024 A 
HETATM   37  C   UNL     1      19.612  52.031  48.442  1.00  0.00     0.004 A 
HETATM   38  C   UNL     1      19.671  50.644  48.264  1.00  0.00     0.029 A 
ENDBRANCH  29  32
ENDBRANCH  24  25
ENDBRANCH  23  24
ENDBRANCH   2  23
TORSDOF 9
ENDMDL
MODEL 9
REMARK VINA RESULT:      -8.9      4.460     12.336
REMARK  9 active torsions:
REMARK  status: ('A' for Active; 'I' for Inactive)
REMARK    1  A    between atoms: C_2  and  C_3 
REMARK    2  A    between atoms: C_3  and  C_4 
REMARK    3  A    between atoms: C_4  and  C_5 
REMARK    4  A    between atoms: C_5  and  N_6 
REMARK    5  A    between atoms: C_15  and  C_16 
REMARK       I    between atoms: C_16  and  N_17 
REMARK    6  A    between atoms: N_17  and  C_18 
REMARK    7  A    between atoms: C_18  and  C_19 
REMARK    8  A    between atoms: C_19  and  N_20 
REMARK    9  A    between atoms: N_24  and  C_25 
ROOT
HETATM    1  C   UNL     1      23.773  44.404  48.803  1.00  0.00     0.251 C 
HETATM    2  N   UNL     1      24.711  43.991  49.720  1.00  0.00    -0.355 N 
HETATM    3  O   UNL     1      23.239  43.632  48.012  1.00  0.00    -0.268 OA
HETATM    4  H   UNL     1      25.085  44.685  50.359  1.00  0.00     0.162 HD
ENDROOT
BRANCH   1   5
HETATM    5  C   UNL     1      23.406  45.841  48.796  1.00  0.00     0.034 A 
HETATM    6  C   UNL     1      22.291  46.308  48.085  1.00  0.00     0.047 A 
HETATM    7  C   UNL     1      21.911  47.647  48.212  1.00  0.00     0.053 A 
HETATM    8  N   UNL     1      20.785  48.118  47.544  1.00  0.00    -0.308 N 
HETATM    9  C   UNL     1      22.636  48.513  49.022  1.00  0.00     0.059 A 
HETATM   10  C   UNL     1      20.303  49.393  47.663  1.00  0.00     0.329 A 
HETATM   11  H   UNL     1      20.238  47.522  46.935  1.00  0.00     0.170 HD
HETATM   12  N   UNL     1      20.989  50.242  48.514  1.00  0.00    -0.266 N 
HETATM   13  O   UNL     1      19.301  49.705  47.023  1.00  0.00    -0.246 OA
HETATM   14  C   UNL     1      22.173  49.906  49.165  1.00  0.00     0.264 A 
HETATM   15  O   UNL     1      22.838  50.683  49.845  1.00  0.00    -0.267 OA
HETATM   16  C   UNL     1      23.761  48.055  49.715  1.00  0.00     0.020 A 
HETATM   17  C   UNL     1      24.138  46.715  49.611  1.00  0.00     0.018 A 
BRANCH  12  18
HETATM   18  C   UNL     1      20.475  51.596  48.696  1.00  0.00     0.137 C 
BRANCH  18  19
HETATM   19  C   UNL     1      19.414  51.665  49.797  1.00  0.00     0.020 C 
BRANCH  19  20
HETATM   20  C   UNL     1      18.170  52.407  49.309  1.00  0.00     0.001 C 
BRANCH  20  21
HETATM   21  C   UNL     1      16.889  51.765  49.843  1.00  0.00    -0.004 C 
HETATM   22  C   UNL     1      15.668  52.240  49.072  1.00  0.00     0.005 C 
ENDBRANCH  20  21
ENDBRANCH  19  20
ENDBRANCH  18  19
ENDBRANCH  12  18
ENDBRANCH   1   5
BRANCH   2  23
HETATM   23  C   UNL     1      25.422  42.713  49.661  1.00  0.00     0.150 C 
BRANCH  23  24
HETATM   24  C   UNL     1      25.693  41.982  50.999  1.00  0.00     0.254 C 
BRANCH  24  25
HETATM   25  N   UNL     1      27.111  42.122  51.486  1.00  0.00    -0.067 N 
HETATM   26  H   UNL     1      27.694  41.575  50.817  1.00  0.00     0.280 HD
HETATM   27  C   UNL     1      27.687  43.534  51.441  1.00  0.00     0.254 C 
HETATM   28  C   UNL     1      29.191  43.500  51.787  1.00  0.00     0.150 C 
HETATM   29  N   UNL     1      29.416  42.850  53.089  1.00  0.00    -0.378 N 
HETATM   30  C   UNL     1      28.853  41.488  53.204  1.00  0.00     0.150 C 
HETATM   31  C   UNL     1      27.347  41.486  52.852  1.00  0.00     0.254 C 
BRANCH  29  32
HETATM   32  C   UNL     1      29.663  43.587  54.240  1.00  0.00     0.031 A 
HETATM   33  C   UNL     1      30.676  43.258  55.153  1.00  0.00     0.053 A 
HETATM   34  C   UNL     1      30.879  44.002  56.322  1.00  0.00     0.036 A 
HETATM   35 CL   UNL     1      32.145  43.556  57.400  1.00  0.00    -0.084 Cl
HETATM   36  C   UNL     1      30.074  45.094  56.618  1.00  0.00     0.024 A 
HETATM   37  C   UNL     1      29.054  45.438  55.738  1.00  0.00     0.004 A 
HETATM   38  C   UNL     1      28.857  44.691  54.570  1.00  0.00     0.029 A 
ENDBRANCH  29  32
ENDBRANCH  24  25
ENDBRANCH  23  24
ENDBRANCH   2  23
TORSDOF 9
ENDMDL
MODEL 10
REMARK VINA RESULT:      -8.7      1.830      2.311
REMARK  9 active torsions:
REMARK  status: ('A' for Active; 'I' for Inactive)
REMARK    1  A    between atoms: C_2  and  C_3 
REMARK    2  A    between atoms: C_3  and  C_4 
REMARK    3  A    between atoms: C_4  and  C_5 
REMARK    4  A    between atoms: C_5  and  N_6 
REMARK    5  A    between atoms: C_15  and  C_16 
REMARK       I    between atoms: C_16  and  N_17 
REMARK    6  A    between atoms: N_17  and  C_18 
REMARK    7  A    between atoms: C_18  and  C_19 
REMARK    8  A    between atoms: C_19  and  N_20 
REMARK    9  A    between atoms: N_24  and  C_25 
ROOT
HETATM    1  C   UNL     1      23.724  45.136  48.879  1.00  0.00     0.251 C 
HETATM    2  N   UNL     1      23.001  46.297  49.030  1.00  0.00    -0.355 N 
HETATM    3  O   UNL     1      23.744  44.505  47.827  1.00  0.00    -0.268 OA
HETATM    4  H   UNL     1      23.058  46.776  49.923  1.00  0.00     0.162 HD
ENDROOT
BRANCH   1   5
HETATM    5  C   UNL     1      24.505  44.657  50.045  1.00  0.00     0.034 A 
HETATM    6  C   UNL     1      25.331  43.527  49.957  1.00  0.00     0.047 A 
HETATM    7  C   UNL     1      26.145  43.190  51.042  1.00  0.00     0.053 A 
HETATM    8  N   UNL     1      26.998  42.094  50.959  1.00  0.00    -0.308 N 
HETATM    9  C   UNL     1      26.129  43.955  52.202  1.00  0.00     0.059 A 
HETATM   10  C   UNL     1      27.876  41.732  51.943  1.00  0.00     0.329 A 
HETATM   11  H   UNL     1      27.031  41.505  50.136  1.00  0.00     0.170 HD
HETATM   12  N   UNL     1      27.904  42.526  53.077  1.00  0.00    -0.266 N 
HETATM   13  O   UNL     1      28.582  40.741  51.767  1.00  0.00    -0.246 OA
HETATM   14  C   UNL     1      27.038  43.592  53.305  1.00  0.00     0.264 A 
HETATM   15  O   UNL     1      26.993  44.242  54.346  1.00  0.00    -0.267 OA
HETATM   16  C   UNL     1      25.291  45.071  52.299  1.00  0.00     0.020 A 
HETATM   17  C   UNL     1      24.488  45.428  51.215  1.00  0.00     0.018 A 
BRANCH  12  18
HETATM   18  C   UNL     1      28.860  42.191  54.129  1.00  0.00     0.137 C 
BRANCH  18  19
HETATM   19  C   UNL     1      30.161  42.987  53.998  1.00  0.00     0.020 C 
BRANCH  19  20
HETATM   20  C   UNL     1      30.407  43.838  55.244  1.00  0.00     0.001 C 
BRANCH  20  21
HETATM   21  C   UNL     1      31.108  43.036  56.341  1.00  0.00    -0.004 C 
HETATM   22  C   UNL     1      31.585  43.938  57.467  1.00  0.00     0.005 C 
ENDBRANCH  20  21
ENDBRANCH  19  20
ENDBRANCH  18  19
ENDBRANCH  12  18
ENDBRANCH   1   5
BRANCH   2  23
HETATM   23  C   UNL     1      21.938  46.736  48.125  1.00  0.00     0.150 C 
BRANCH  23  24
HETATM   24  C   UNL     1      20.564  46.029  48.237  1.00  0.00     0.254 C 
BRANCH  24  25
HETATM   25  N   UNL     1      19.399  46.919  47.894  1.00  0.00    -0.067 N 
HETATM   26  H   UNL     1      18.883  46.426  47.134  1.00  0.00     0.280 HD
HETATM   27  C   UNL     1      18.368  47.113  49.002  1.00  0.00     0.254 C 
HETATM   28  C   UNL     1      17.148  47.884  48.456  1.00  0.00     0.150 C 
HETATM   29  N   UNL     1      17.562  49.162  47.853  1.00  0.00    -0.378 N 
HETATM   30  C   UNL     1      18.582  49.041  46.791  1.00  0.00     0.150 C 
HETATM   31  C   UNL     1      19.815  48.261  47.304  1.00  0.00     0.254 C 
BRANCH  29  32
HETATM   32  C   UNL     1      17.413  50.369  48.525  1.00  0.00     0.031 A 
HETATM   33  C   UNL     1      16.163  50.883  48.902  1.00  0.00     0.053 A 
HETATM   34  C   UNL     1      16.045  52.119  49.549  1.00  0.00     0.036 A 
HETATM   35 CL   UNL     1      14.485  52.693  49.997  1.00  0.00    -0.084 Cl
HETATM   36  C   UNL     1      17.169  52.882  49.834  1.00  0.00     0.024 A 
HETATM   37  C   UNL     1      18.420  52.405  49.463  1.00  0.00     0.004 A 
HETATM   38  C   UNL     1      18.533  51.168  48.817  1.00  0.00     0.029 A 
ENDBRANCH  29  32
ENDBRANCH  24  25
ENDBRANCH  23  24
ENDBRANCH   2  23
TORSDOF 9
ENDMDL
