MODEL 1
REMARK VINA RESULT:      -8.9      0.000      0.000
REMARK  6 active torsions:
REMARK  status: ('A' for Active; 'I' for Inactive)
REMARK       I    between atoms: N_2  and  C_3 
REMARK    1  A    between atoms: N_2  and  C_19 
REMARK       I    between atoms: C_3  and  N_4 
REMARK    2  A    between atoms: N_4  and  C_5 
REMARK    3  A    between atoms: C_12  and  C_13 
REMARK       I    between atoms: C_13  and  N_14 
REMARK    4  A    between atoms: C_19  and  C_20 
REMARK    5  A    between atoms: C_20  and  O_21 
REMARK    6  A    between atoms: O_21  and  C_22 
ROOT
HETATM    1  C   UNL     1      25.509  42.451  51.363  1.00  0.00     0.154 C 
HETATM    2  N   UNL     1      25.345  43.853  51.721  1.00  0.00    -0.336 N 
HETATM    3  C   UNL     1      25.198  44.741  50.646  1.00  0.00     0.322 C 
HETATM    4  N   UNL     1      24.913  46.034  51.021  1.00  0.00    -0.309 N 
HETATM    5  O   UNL     1      25.276  44.356  49.482  1.00  0.00    -0.247 OA
HETATM    6  H   UNL     1      24.445  46.123  51.908  1.00  0.00     0.170 HD
ENDROOT
BRANCH   4   7
HETATM    7  C   UNL     1      24.918  47.178  50.196  1.00  0.00     0.037 A 
HETATM    8  C   UNL     1      23.760  47.692  49.597  1.00  0.00     0.046 A 
HETATM    9  C   UNL     1      23.854  48.815  48.746  1.00  0.00     0.030 A 
HETATM   10  C   UNL     1      25.098  49.397  48.542  1.00  0.00     0.063 A 
HETATM   11  C   UNL     1      22.950  49.581  47.952  1.00  0.00     0.156 A 
HETATM   12  N   UNL     1      24.869  50.454  47.707  1.00  0.00    -0.277 N 
HETATM   13  C   UNL     1      26.272  48.910  49.122  1.00  0.00     0.034 A 
HETATM   14  H   UNL     1      25.552  51.113  47.351  1.00  0.00     0.189 HD
HETATM   15  N   UNL     1      23.589  50.598  47.327  1.00  0.00    -0.168 NA
HETATM   16  C   UNL     1      26.156  47.780  49.941  1.00  0.00     0.032 A 
BRANCH  11  17
HETATM   17  C   UNL     1      21.509  49.359  47.768  1.00  0.00     0.270 C 
HETATM   18  N   UNL     1      20.737  50.459  48.027  1.00  0.00    -0.365 N 
HETATM   19  H   UNL     1      21.199  51.324  48.286  1.00  0.00     0.159 HD
HETATM   20  H   UNL     1      19.741  50.413  47.889  1.00  0.00     0.159 HD
HETATM   21  O   UNL     1      21.005  48.303  47.400  1.00  0.00    -0.266 OA
ENDBRANCH  11  17
ENDBRANCH   4   7
BRANCH   2  22
HETATM   22  C   UNL     1      25.914  44.262  53.018  1.00  0.00     0.153 C 
BRANCH  22  23
HETATM   23  C   UNL     1      27.442  44.418  52.993  1.00  0.00     0.195 C 
BRANCH  23  24
HETATM   24  O   UNL     1      27.830  45.389  53.975  1.00  0.00    -0.350 OA
BRANCH  24  25
HETATM   25  C   UNL     1      28.836  44.919  54.770  1.00  0.00     0.068 A 
HETATM   26  C   UNL     1      29.438  43.713  54.418  1.00  0.00     0.038 A 
HETATM   27  C   UNL     1      30.490  43.211  55.186  1.00  0.00     0.026 A 
HETATM   28  C   UNL     1      30.940  43.931  56.290  1.00  0.00     0.034 A 
HETATM   29 CL   UNL     1      32.238  43.318  57.240  1.00  0.00    -0.084 Cl
HETATM   30  C   UNL     1      30.351  45.150  56.631  1.00  0.00     0.026 A 
HETATM   31  C   UNL     1      29.297  45.651  55.864  1.00  0.00     0.038 A 
ENDBRANCH  24  25
ENDBRANCH  23  24
ENDBRANCH  22  23
ENDBRANCH   2  22
TORSDOF 6
ENDMDL
MODEL 2
REMARK VINA RESULT:      -8.7     11.329     13.393
REMARK  6 active torsions:
REMARK  status: ('A' for Active; 'I' for Inactive)
REMARK       I    between atoms: N_2  and  C_3 
REMARK    1  A    between atoms: N_2  and  C_19 
REMARK       I    between atoms: C_3  and  N_4 
REMARK    2  A    between atoms: N_4  and  C_5 
REMARK    3  A    between atoms: C_12  and  C_13 
REMARK       I    between atoms: C_13  and  N_14 
REMARK    4  A    between atoms: C_19  and  C_20 
REMARK    5  A    between atoms: C_20  and  O_21 
REMARK    6  A    between atoms: O_21  and  C_22 
ROOT
HETATM    1  C   UNL     1      25.186  48.603  37.299  1.00  0.00     0.154 C 
HETATM    2  N   UNL     1      25.759  48.922  38.599  1.00  0.00    -0.336 N 
HETATM    3  C   UNL     1      26.708  49.954  38.608  1.00  0.00     0.322 C 
HETATM    4  N   UNL     1      27.130  50.317  39.866  1.00  0.00    -0.309 N 
HETATM    5  O   UNL     1      27.074  50.496  37.568  1.00  0.00    -0.247 OA
HETATM    6  H   UNL     1      26.465  50.141  40.602  1.00  0.00     0.170 HD
ENDROOT
BRANCH   4   7
HETATM    7  C   UNL     1      28.213  51.162  40.188  1.00  0.00     0.037 A 
HETATM    8  C   UNL     1      29.444  51.113  39.519  1.00  0.00     0.046 A 
HETATM    9  C   UNL     1      30.495  51.960  39.931  1.00  0.00     0.030 A 
HETATM   10  C   UNL     1      30.272  52.842  40.980  1.00  0.00     0.063 A 
HETATM   11  C   UNL     1      31.852  52.176  39.547  1.00  0.00     0.156 A 
HETATM   12  N   UNL     1      31.444  53.530  41.129  1.00  0.00    -0.277 N 
HETATM   13  C   UNL     1      29.059  52.917  41.669  1.00  0.00     0.034 A 
HETATM   14  H   UNL     1      31.643  54.264  41.799  1.00  0.00     0.189 HD
HETATM   15  N   UNL     1      32.421  53.156  40.286  1.00  0.00    -0.168 NA
HETATM   16  C   UNL     1      28.040  52.048  41.258  1.00  0.00     0.032 A 
BRANCH  11  17
HETATM   17  C   UNL     1      32.613  51.464  38.511  1.00  0.00     0.270 C 
HETATM   18  N   UNL     1      33.905  51.180  38.864  1.00  0.00    -0.365 N 
HETATM   19  H   UNL     1      34.222  51.441  39.791  1.00  0.00     0.159 HD
HETATM   20  H   UNL     1      34.492  50.658  38.233  1.00  0.00     0.159 HD
HETATM   21  O   UNL     1      32.164  51.122  37.422  1.00  0.00    -0.266 OA
ENDBRANCH  11  17
ENDBRANCH   4   7
BRANCH   2  22
HETATM   22  C   UNL     1      25.761  47.831  39.591  1.00  0.00     0.153 C 
BRANCH  22  23
HETATM   23  C   UNL     1      27.151  47.220  39.825  1.00  0.00     0.195 C 
BRANCH  23  24
HETATM   24  O   UNL     1      27.557  47.483  41.176  1.00  0.00    -0.350 OA
BRANCH  24  25
HETATM   25  C   UNL     1      28.885  47.793  41.245  1.00  0.00     0.068 A 
HETATM   26  C   UNL     1      29.706  47.391  40.194  1.00  0.00     0.038 A 
HETATM   27  C   UNL     1      31.064  47.713  40.210  1.00  0.00     0.026 A 
HETATM   28  C   UNL     1      31.583  48.449  41.273  1.00  0.00     0.034 A 
HETATM   29 CL   UNL     1      33.257  48.850  41.298  1.00  0.00    -0.084 Cl
HETATM   30  C   UNL     1      30.756  48.870  42.316  1.00  0.00     0.026 A 
HETATM   31  C   UNL     1      29.399  48.546  42.301  1.00  0.00     0.038 A 
ENDBRANCH  24  25
ENDBRANCH  23  24
ENDBRANCH  22  23
ENDBRANCH   2  22
TORSDOF 6
ENDMDL
MODEL 3
REMARK VINA RESULT:      -8.6      2.563      3.897
REMARK  6 active torsions:
REMARK  status: ('A' for Active; 'I' for Inactive)
REMARK       I    between atoms: N_2  and  C_3 
REMARK    1  A    between atoms: N_2  and  C_19 
REMARK       I    between atoms: C_3  and  N_4 
REMARK    2  A    between atoms: N_4  and  C_5 
REMARK    3  A    between atoms: C_12  and  C_13 
REMARK       I    between atoms: C_13  and  N_14 
REMARK    4  A    between atoms: C_19  and  C_20 
REMARK    5  A    between atoms: C_20  and  O_21 
REMARK    6  A    between atoms: O_21  and  C_22 
ROOT
HETATM    1  C   UNL     1      28.580  39.792  50.700  1.00  0.00     0.154 C 
HETATM    2  N   UNL     1      27.658  40.691  51.380  1.00  0.00    -0.336 N 
HETATM    3  C   UNL     1      26.825  41.451  50.547  1.00  0.00     0.322 C 
HETATM    4  N   UNL     1      25.879  42.188  51.222  1.00  0.00    -0.309 N 
HETATM    5  O   UNL     1      26.927  41.403  49.324  1.00  0.00    -0.247 OA
HETATM    6  H   UNL     1      25.609  41.812  52.116  1.00  0.00     0.170 HD
ENDROOT
BRANCH   4   7
HETATM    7  C   UNL     1      25.049  43.196  50.688  1.00  0.00     0.037 A 
HETATM    8  C   UNL     1      25.456  44.531  50.560  1.00  0.00     0.046 A 
HETATM    9  C   UNL     1      24.549  45.491  50.058  1.00  0.00     0.030 A 
HETATM   10  C   UNL     1      23.278  45.078  49.682  1.00  0.00     0.063 A 
HETATM   11  C   UNL     1      24.569  46.897  49.821  1.00  0.00     0.156 A 
HETATM   12  N   UNL     1      22.653  46.204  49.225  1.00  0.00    -0.277 N 
HETATM   13  C   UNL     1      22.839  43.757  49.797  1.00  0.00     0.034 A 
HETATM   14  H   UNL     1      21.711  46.277  48.860  1.00  0.00     0.189 HD
HETATM   15  N   UNL     1      23.397  47.321  49.294  1.00  0.00    -0.168 NA
HETATM   16  C   UNL     1      23.749  42.829  50.322  1.00  0.00     0.032 A 
BRANCH  11  17
HETATM   17  C   UNL     1      25.665  47.837  50.096  1.00  0.00     0.270 C 
HETATM   18  N   UNL     1      25.885  48.746  49.097  1.00  0.00    -0.365 N 
HETATM   19  H   UNL     1      25.279  48.727  48.284  1.00  0.00     0.159 HD
HETATM   20  H   UNL     1      26.589  49.456  49.213  1.00  0.00     0.159 HD
HETATM   21  O   UNL     1      26.334  47.850  51.124  1.00  0.00    -0.266 OA
ENDBRANCH  11  17
ENDBRANCH   4   7
BRANCH   2  22
HETATM   22  C   UNL     1      28.066  41.142  52.723  1.00  0.00     0.153 C 
BRANCH  22  23
HETATM   23  C   UNL     1      29.108  42.271  52.698  1.00  0.00     0.195 C 
BRANCH  23  24
HETATM   24  O   UNL     1      28.448  43.523  52.929  1.00  0.00    -0.350 OA
BRANCH  24  25
HETATM   25  C   UNL     1      28.899  44.121  54.071  1.00  0.00     0.068 A 
HETATM   26  C   UNL     1      29.999  43.556  54.714  1.00  0.00     0.038 A 
HETATM   27  C   UNL     1      30.511  44.152  55.868  1.00  0.00     0.026 A 
HETATM   28  C   UNL     1      29.924  45.317  56.359  1.00  0.00     0.034 A 
HETATM   29 CL   UNL     1      30.552  46.056  57.781  1.00  0.00    -0.084 Cl
HETATM   30  C   UNL     1      28.835  45.894  55.703  1.00  0.00     0.026 A 
HETATM   31  C   UNL     1      28.321  45.297  54.550  1.00  0.00     0.038 A 
ENDBRANCH  24  25
ENDBRANCH  23  24
ENDBRANCH  22  23
ENDBRANCH   2  22
TORSDOF 6
ENDMDL
MODEL 4
REMARK VINA RESULT:      -8.5      2.564      3.316
REMARK  6 active torsions:
REMARK  status: ('A' for Active; 'I' for Inactive)
REMARK       I    between atoms: N_2  and  C_3 
REMARK    1  A    between atoms: N_2  and  C_19 
REMARK       I    between atoms: C_3  and  N_4 
REMARK    2  A    between atoms: N_4  and  C_5 
REMARK    3  A    between atoms: C_12  and  C_13 
REMARK       I    between atoms: C_13  and  N_14 
REMARK    4  A    between atoms: C_19  and  C_20 
REMARK    5  A    between atoms: C_20  and  O_21 
REMARK    6  A    between atoms: O_21  and  C_22 
ROOT
HETATM    1  C   UNL     1      28.464  40.135  50.932  1.00  0.00     0.154 C 
HETATM    2  N   UNL     1      27.666  41.075  51.706  1.00  0.00    -0.336 N 
HETATM    3  C   UNL     1      27.036  42.088  50.970  1.00  0.00     0.322 C 
HETATM    4  N   UNL     1      26.187  42.876  51.712  1.00  0.00    -0.309 N 
HETATM    5  O   UNL     1      27.213  42.204  49.759  1.00  0.00    -0.247 OA
HETATM    6  H   UNL     1      25.795  42.427  52.523  1.00  0.00     0.170 HD
ENDROOT
BRANCH   4   7
HETATM    7  C   UNL     1      25.582  44.085  51.309  1.00  0.00     0.037 A 
HETATM    8  C   UNL     1      24.530  44.142  50.385  1.00  0.00     0.046 A 
HETATM    9  C   UNL     1      24.009  45.395  49.998  1.00  0.00     0.030 A 
HETATM   10  C   UNL     1      24.541  46.546  50.565  1.00  0.00     0.063 A 
HETATM   11  C   UNL     1      23.006  45.857  49.094  1.00  0.00     0.156 A 
HETATM   12  N   UNL     1      23.831  47.579  50.021  1.00  0.00    -0.277 N 
HETATM   13  C   UNL     1      25.590  46.526  51.488  1.00  0.00     0.034 A 
HETATM   14  H   UNL     1      23.942  48.568  50.213  1.00  0.00     0.189 HD
HETATM   15  N   UNL     1      22.898  47.205  49.129  1.00  0.00    -0.168 NA
HETATM   16  C   UNL     1      26.107  45.272  51.836  1.00  0.00     0.032 A 
BRANCH  11  17
HETATM   17  C   UNL     1      22.168  45.049  48.197  1.00  0.00     0.270 C 
HETATM   18  N   UNL     1      22.522  45.130  46.878  1.00  0.00    -0.365 N 
HETATM   19  H   UNL     1      23.326  45.695  46.627  1.00  0.00     0.159 HD
HETATM   20  H   UNL     1      22.030  44.579  46.193  1.00  0.00     0.159 HD
HETATM   21  O   UNL     1      21.237  44.338  48.561  1.00  0.00    -0.266 OA
ENDBRANCH  11  17
ENDBRANCH   4   7
BRANCH   2  22
HETATM   22  C   UNL     1      28.051  41.242  53.120  1.00  0.00     0.153 C 
BRANCH  22  23
HETATM   23  C   UNL     1      29.286  42.134  53.316  1.00  0.00     0.195 C 
BRANCH  23  24
HETATM   24  O   UNL     1      28.877  43.509  53.307  1.00  0.00    -0.350 OA
BRANCH  24  25
HETATM   25  C   UNL     1      29.249  44.147  54.456  1.00  0.00     0.068 A 
HETATM   26  C   UNL     1      30.364  43.664  55.139  1.00  0.00     0.038 A 
HETATM   27  C   UNL     1      30.797  44.305  56.301  1.00  0.00     0.026 A 
HETATM   28  C   UNL     1      30.118  45.431  56.760  1.00  0.00     0.034 A 
HETATM   29 CL   UNL     1      30.647  46.225  58.192  1.00  0.00    -0.084 Cl
HETATM   30  C   UNL     1      29.013  45.926  56.064  1.00  0.00     0.026 A 
HETATM   31  C   UNL     1      28.579  45.285  54.902  1.00  0.00     0.038 A 
ENDBRANCH  24  25
ENDBRANCH  23  24
ENDBRANCH  22  23
ENDBRANCH   2  22
TORSDOF 6
ENDMDL
MODEL 5
REMARK VINA RESULT:      -8.4      4.361      7.978
REMARK  6 active torsions:
REMARK  status: ('A' for Active; 'I' for Inactive)
REMARK       I    between atoms: N_2  and  C_3 
REMARK    1  A    between atoms: N_2  and  C_19 
REMARK       I    between atoms: C_3  and  N_4 
REMARK    2  A    between atoms: N_4  and  C_5 
REMARK    3  A    between atoms: C_12  and  C_13 
REMARK       I    between atoms: C_13  and  N_14 
REMARK    4  A    between atoms: C_19  and  C_20 
REMARK    5  A    between atoms: C_20  and  O_21 
REMARK    6  A    between atoms: O_21  and  C_22 
ROOT
HETATM    1  C   UNL     1      24.617  44.523  51.511  1.00  0.00     0.154 C 
HETATM    2  N   UNL     1      25.853  44.128  50.849  1.00  0.00    -0.336 N 
HETATM    3  C   UNL     1      25.781  42.963  50.073  1.00  0.00     0.322 C 
HETATM    4  N   UNL     1      26.925  42.693  49.358  1.00  0.00    -0.309 N 
HETATM    5  O   UNL     1      24.754  42.290  50.022  1.00  0.00    -0.247 OA
HETATM    6  H   UNL     1      27.482  43.501  49.132  1.00  0.00     0.170 HD
ENDROOT
BRANCH   4   7
HETATM    7  C   UNL     1      27.232  41.505  48.664  1.00  0.00     0.037 A 
HETATM    8  C   UNL     1      27.972  40.458  49.232  1.00  0.00     0.046 A 
HETATM    9  C   UNL     1      28.277  39.319  48.455  1.00  0.00     0.030 A 
HETATM   10  C   UNL     1      27.814  39.256  47.148  1.00  0.00     0.063 A 
HETATM   11  C   UNL     1      29.007  38.109  48.649  1.00  0.00     0.156 A 
HETATM   12  N   UNL     1      28.242  38.049  46.670  1.00  0.00    -0.277 N 
HETATM   13  C   UNL     1      27.076  40.281  46.550  1.00  0.00     0.034 A 
HETATM   14  H   UNL     1      28.079  37.662  45.748  1.00  0.00     0.189 HD
HETATM   15  N   UNL     1      28.966  37.329  47.544  1.00  0.00    -0.168 NA
HETATM   16  C   UNL     1      26.808  41.411  47.333  1.00  0.00     0.032 A 
BRANCH  11  17
HETATM   17  C   UNL     1      29.748  37.692  49.848  1.00  0.00     0.270 C 
HETATM   18  N   UNL     1      29.018  36.925  50.716  1.00  0.00    -0.365 N 
HETATM   19  H   UNL     1      28.066  36.683  50.465  1.00  0.00     0.159 HD
HETATM   20  H   UNL     1      29.454  36.559  51.547  1.00  0.00     0.159 HD
HETATM   21  O   UNL     1      30.920  37.969  50.079  1.00  0.00    -0.266 OA
ENDBRANCH  11  17
ENDBRANCH   4   7
BRANCH   2  22
HETATM   22  C   UNL     1      27.102  44.584  51.485  1.00  0.00     0.153 C 
BRANCH  22  23
HETATM   23  C   UNL     1      27.288  44.058  52.917  1.00  0.00     0.195 C 
BRANCH  23  24
HETATM   24  O   UNL     1      27.704  45.138  53.763  1.00  0.00    -0.350 OA
BRANCH  24  25
HETATM   25  C   UNL     1      28.725  44.761  54.587  1.00  0.00     0.068 A 
HETATM   26  C   UNL     1      29.327  43.525  54.358  1.00  0.00     0.038 A 
HETATM   27  C   UNL     1      30.394  43.113  55.158  1.00  0.00     0.026 A 
HETATM   28  C   UNL     1      30.858  43.949  56.171  1.00  0.00     0.034 A 
HETATM   29 CL   UNL     1      32.173  43.446  57.159  1.00  0.00    -0.084 Cl
HETATM   30  C   UNL     1      30.268  45.197  56.387  1.00  0.00     0.026 A 
HETATM   31  C   UNL     1      29.200  45.609  55.588  1.00  0.00     0.038 A 
ENDBRANCH  24  25
ENDBRANCH  23  24
ENDBRANCH  22  23
ENDBRANCH   2  22
TORSDOF 6
ENDMDL
MODEL 6
REMARK VINA RESULT:      -8.4      4.642     10.059
REMARK  6 active torsions:
REMARK  status: ('A' for Active; 'I' for Inactive)
REMARK       I    between atoms: N_2  and  C_3 
REMARK    1  A    between atoms: N_2  and  C_19 
REMARK       I    between atoms: C_3  and  N_4 
REMARK    2  A    between atoms: N_4  and  C_5 
REMARK    3  A    between atoms: C_12  and  C_13 
REMARK       I    between atoms: C_13  and  N_14 
REMARK    4  A    between atoms: C_19  and  C_20 
REMARK    5  A    between atoms: C_20  and  O_21 
REMARK    6  A    between atoms: O_21  and  C_22 
ROOT
HETATM    1  C   UNL     1      25.165  49.942  47.914  1.00  0.00     0.154 C 
HETATM    2  N   UNL     1      24.427  49.080  48.826  1.00  0.00    -0.336 N 
HETATM    3  C   UNL     1      25.208  48.258  49.651  1.00  0.00     0.322 C 
HETATM    4  N   UNL     1      24.486  47.556  50.589  1.00  0.00    -0.309 N 
HETATM    5  O   UNL     1      26.432  48.226  49.549  1.00  0.00    -0.247 OA
HETATM    6  H   UNL     1      23.618  47.987  50.863  1.00  0.00     0.170 HD
ENDROOT
BRANCH   4   7
HETATM    7  C   UNL     1      24.952  46.507  51.408  1.00  0.00     0.037 A 
HETATM    8  C   UNL     1      25.791  46.715  52.511  1.00  0.00     0.046 A 
HETATM    9  C   UNL     1      26.252  45.607  53.255  1.00  0.00     0.030 A 
HETATM   10  C   UNL     1      25.841  44.333  52.884  1.00  0.00     0.063 A 
HETATM   11  C   UNL     1      27.113  45.407  54.375  1.00  0.00     0.156 A 
HETATM   12  N   UNL     1      26.422  43.488  53.786  1.00  0.00    -0.277 N 
HETATM   13  C   UNL     1      25.006  44.090  51.790  1.00  0.00     0.034 A 
HETATM   14  H   UNL     1      26.334  42.479  53.827  1.00  0.00     0.189 HD
HETATM   15  N   UNL     1      27.198  44.096  54.700  1.00  0.00    -0.168 NA
HETATM   16  C   UNL     1      24.583  45.203  51.053  1.00  0.00     0.032 A 
BRANCH  11  17
HETATM   17  C   UNL     1      27.860  46.427  55.124  1.00  0.00     0.270 C 
HETATM   18  N   UNL     1      28.403  45.974  56.295  1.00  0.00    -0.365 N 
HETATM   19  H   UNL     1      28.284  44.996  56.537  1.00  0.00     0.159 HD
HETATM   20  H   UNL     1      28.967  46.591  56.856  1.00  0.00     0.159 HD
HETATM   21  O   UNL     1      28.020  47.587  54.758  1.00  0.00    -0.266 OA
ENDBRANCH  11  17
ENDBRANCH   4   7
BRANCH   2  22
HETATM   22  C   UNL     1      23.058  48.721  48.413  1.00  0.00     0.153 C 
BRANCH  22  23
HETATM   23  C   UNL     1      22.208  49.931  47.997  1.00  0.00     0.195 C 
BRANCH  23  24
HETATM   24  O   UNL     1      21.907  50.715  49.159  1.00  0.00    -0.350 OA
BRANCH  24  25
HETATM   25  C   UNL     1      20.573  50.998  49.239  1.00  0.00     0.068 A 
HETATM   26  C   UNL     1      19.796  50.238  50.111  1.00  0.00     0.038 A 
HETATM   27  C   UNL     1      18.434  50.513  50.245  1.00  0.00     0.026 A 
HETATM   28  C   UNL     1      17.867  51.556  49.516  1.00  0.00     0.034 A 
HETATM   29 CL   UNL     1      16.188  51.899  49.678  1.00  0.00    -0.084 Cl
HETATM   30  C   UNL     1      18.651  52.330  48.658  1.00  0.00     0.026 A 
HETATM   31  C   UNL     1      20.012  52.054  48.522  1.00  0.00     0.038 A 
ENDBRANCH  24  25
ENDBRANCH  23  24
ENDBRANCH  22  23
ENDBRANCH   2  22
TORSDOF 6
ENDMDL
MODEL 7
REMARK VINA RESULT:      -8.3     12.148     14.559
REMARK  6 active torsions:
REMARK  status: ('A' for Active; 'I' for Inactive)
REMARK       I    between atoms: N_2  and  C_3 
REMARK    1  A    between atoms: N_2  and  C_19 
REMARK       I    between atoms: C_3  and  N_4 
REMARK    2  A    between atoms: N_4  and  C_5 
REMARK    3  A    between atoms: C_12  and  C_13 
REMARK       I    between atoms: C_13  and  N_14 
REMARK    4  A    between atoms: C_19  and  C_20 
REMARK    5  A    between atoms: C_20  and  O_21 
REMARK    6  A    between atoms: O_21  and  C_22 
ROOT
HETATM    1  C   UNL     1      29.023  46.273  38.644  1.00  0.00     0.154 C 
HETATM    2  N   UNL     1      29.049  47.604  39.233  1.00  0.00    -0.336 N 
HETATM    3  C   UNL     1      30.276  48.002  39.782  1.00  0.00     0.322 C 
HETATM    4  N   UNL     1      30.303  49.309  40.209  1.00  0.00    -0.309 N 
HETATM    5  O   UNL     1      31.238  47.238  39.819  1.00  0.00    -0.247 OA
HETATM    6  H   UNL     1      29.660  49.922  39.735  1.00  0.00     0.170 HD
ENDROOT
BRANCH   4   7
HETATM    7  C   UNL     1      31.306  49.929  40.983  1.00  0.00     0.037 A 
HETATM    8  C   UNL     1      32.433  50.544  40.422  1.00  0.00     0.046 A 
HETATM    9  C   UNL     1      33.417  51.102  41.267  1.00  0.00     0.030 A 
HETATM   10  C   UNL     1      33.228  51.047  42.641  1.00  0.00     0.063 A 
HETATM   11  C   UNL     1      34.673  51.755  41.090  1.00  0.00     0.156 A 
HETATM   12  N   UNL     1      34.314  51.676  43.181  1.00  0.00    -0.277 N 
HETATM   13  C   UNL     1      32.117  50.442  43.235  1.00  0.00     0.034 A 
HETATM   14  H   UNL     1      34.508  51.831  44.164  1.00  0.00     0.189 HD
HETATM   15  N   UNL     1      35.209  52.115  42.280  1.00  0.00    -0.168 NA
HETATM   16  C   UNL     1      31.169  49.872  42.376  1.00  0.00     0.032 A 
BRANCH  11  17
HETATM   17  C   UNL     1      35.372  52.026  39.827  1.00  0.00     0.270 C 
HETATM   18  N   UNL     1      36.581  51.395  39.711  1.00  0.00    -0.365 N 
HETATM   19  H   UNL     1      36.881  50.783  40.462  1.00  0.00     0.159 HD
HETATM   20  H   UNL     1      37.114  51.488  38.862  1.00  0.00     0.159 HD
HETATM   21  O   UNL     1      34.938  52.733  38.924  1.00  0.00    -0.266 OA
ENDBRANCH  11  17
ENDBRANCH   4   7
BRANCH   2  22
HETATM   22  C   UNL     1      27.757  48.125  39.716  1.00  0.00     0.153 C 
BRANCH  22  23
HETATM   23  C   UNL     1      27.109  49.138  38.759  1.00  0.00     0.195 C 
BRANCH  23  24
HETATM   24  O   UNL     1      26.573  50.227  39.523  1.00  0.00    -0.350 OA
BRANCH  24  25
HETATM   25  C   UNL     1      27.539  51.141  39.832  1.00  0.00     0.068 A 
HETATM   26  C   UNL     1      28.263  51.706  38.785  1.00  0.00     0.038 A 
HETATM   27  C   UNL     1      29.239  52.667  39.054  1.00  0.00     0.026 A 
HETATM   28  C   UNL     1      29.470  53.064  40.370  1.00  0.00     0.034 A 
HETATM   29 CL   UNL     1      30.672  54.248  40.707  1.00  0.00    -0.084 Cl
HETATM   30  C   UNL     1      28.730  52.512  41.417  1.00  0.00     0.026 A 
HETATM   31  C   UNL     1      27.755  51.550  41.149  1.00  0.00     0.038 A 
ENDBRANCH  24  25
ENDBRANCH  23  24
ENDBRANCH  22  23
ENDBRANCH   2  22
TORSDOF 6
ENDMDL
MODEL 8
REMARK VINA RESULT:      -8.3      4.632      9.867
REMARK  6 active torsions:
REMARK  status: ('A' for Active; 'I' for Inactive)
REMARK       I    between atoms: N_2  and  C_3 
REMARK    1  A    between atoms: N_2  and  C_19 
REMARK       I    between atoms: C_3  and  N_4 
REMARK    2  A    between atoms: N_4  and  C_5 
REMARK    3  A    between atoms: C_12  and  C_13 
REMARK       I    between atoms: C_13  and  N_14 
REMARK    4  A    between atoms: C_19  and  C_20 
REMARK    5  A    between atoms: C_20  and  O_21 
REMARK    6  A    between atoms: O_21  and  C_22 
ROOT
HETATM    1  C   UNL     1      24.662  49.659  48.116  1.00  0.00     0.154 C 
HETATM    2  N   UNL     1      24.208  48.612  49.020  1.00  0.00    -0.336 N 
HETATM    3  C   UNL     1      25.166  48.132  49.923  1.00  0.00     0.322 C 
HETATM    4  N   UNL     1      24.669  47.241  50.847  1.00  0.00    -0.309 N 
HETATM    5  O   UNL     1      26.329  48.528  49.895  1.00  0.00    -0.247 OA
HETATM    6  H   UNL     1      23.690  47.347  51.051  1.00  0.00     0.170 HD
ENDROOT
BRANCH   4   7
HETATM    7  C   UNL     1      25.413  46.438  51.737  1.00  0.00     0.037 A 
HETATM    8  C   UNL     1      25.832  45.138  51.424  1.00  0.00     0.046 A 
HETATM    9  C   UNL     1      26.533  44.380  52.387  1.00  0.00     0.030 A 
HETATM   10  C   UNL     1      26.811  44.956  53.619  1.00  0.00     0.063 A 
HETATM   11  C   UNL     1      27.075  43.062  52.462  1.00  0.00     0.156 A 
HETATM   12  N   UNL     1      27.505  44.006  54.314  1.00  0.00    -0.277 N 
HETATM   13  C   UNL     1      26.408  46.248  53.966  1.00  0.00     0.034 A 
HETATM   14  H   UNL     1      27.878  44.083  55.253  1.00  0.00     0.189 HD
HETATM   15  N   UNL     1      27.683  42.850  53.652  1.00  0.00    -0.168 NA
HETATM   16  C   UNL     1      25.691  46.970  53.002  1.00  0.00     0.032 A 
BRANCH  11  17
HETATM   17  C   UNL     1      27.012  42.008  51.440  1.00  0.00     0.270 C 
HETATM   18  N   UNL     1      26.845  40.748  51.947  1.00  0.00    -0.365 N 
HETATM   19  H   UNL     1      26.747  40.640  52.951  1.00  0.00     0.159 HD
HETATM   20  H   UNL     1      26.750  39.966  51.320  1.00  0.00     0.159 HD
HETATM   21  O   UNL     1      27.082  42.200  50.231  1.00  0.00    -0.266 OA
ENDBRANCH  11  17
ENDBRANCH   4   7
BRANCH   2  22
HETATM   22  C   UNL     1      23.081  47.789  48.543  1.00  0.00     0.153 C 
BRANCH  22  23
HETATM   23  C   UNL     1      21.706  48.413  48.825  1.00  0.00     0.195 C 
BRANCH  23  24
HETATM   24  O   UNL     1      21.890  49.695  49.441  1.00  0.00    -0.350 OA
BRANCH  24  25
HETATM   25  C   UNL     1      20.729  50.413  49.454  1.00  0.00     0.068 A 
HETATM   26  C   UNL     1      20.633  51.515  48.606  1.00  0.00     0.038 A 
HETATM   27  C   UNL     1      19.453  52.259  48.565  1.00  0.00     0.026 A 
HETATM   28  C   UNL     1      18.374  51.883  49.364  1.00  0.00     0.034 A 
HETATM   29 CL   UNL     1      16.917  52.797  49.317  1.00  0.00    -0.084 Cl
HETATM   30  C   UNL     1      18.464  50.767  50.198  1.00  0.00     0.026 A 
HETATM   31  C   UNL     1      19.644  50.024  50.240  1.00  0.00     0.038 A 
ENDBRANCH  24  25
ENDBRANCH  23  24
ENDBRANCH  22  23
ENDBRANCH   2  22
TORSDOF 6
ENDMDL
MODEL 9
REMARK VINA RESULT:      -7.8      4.677      9.791
REMARK  6 active torsions:
REMARK  status: ('A' for Active; 'I' for Inactive)
REMARK       I    between atoms: N_2  and  C_3 
REMARK    1  A    between atoms: N_2  and  C_19 
REMARK       I    between atoms: C_3  and  N_4 
REMARK    2  A    between atoms: N_4  and  C_5 
REMARK    3  A    between atoms: C_12  and  C_13 
REMARK       I    between atoms: C_13  and  N_14 
REMARK    4  A    between atoms: C_19  and  C_20 
REMARK    5  A    between atoms: C_20  and  O_21 
REMARK    6  A    between atoms: O_21  and  C_22 
ROOT
HETATM    1  C   UNL     1      21.923  44.843  48.783  1.00  0.00     0.154 C 
HETATM    2  N   UNL     1      23.138  45.570  49.124  1.00  0.00    -0.336 N 
HETATM    3  C   UNL     1      23.836  45.095  50.243  1.00  0.00     0.322 C 
HETATM    4  N   UNL     1      25.044  45.720  50.457  1.00  0.00    -0.309 N 
HETATM    5  O   UNL     1      23.402  44.169  50.924  1.00  0.00    -0.247 OA
HETATM    6  H   UNL     1      25.473  46.103  49.632  1.00  0.00     0.170 HD
ENDROOT
BRANCH   4   7
HETATM    7  C   UNL     1      25.864  45.613  51.600  1.00  0.00     0.037 A 
HETATM    8  C   UNL     1      26.628  44.474  51.888  1.00  0.00     0.046 A 
HETATM    9  C   UNL     1      27.388  44.425  53.077  1.00  0.00     0.030 A 
HETATM   10  C   UNL     1      27.375  45.526  53.924  1.00  0.00     0.063 A 
HETATM   11  C   UNL     1      28.231  43.471  53.719  1.00  0.00     0.156 A 
HETATM   12  N   UNL     1      28.206  45.195  54.957  1.00  0.00    -0.277 N 
HETATM   13  C   UNL     1      26.625  46.676  53.669  1.00  0.00     0.034 A 
HETATM   14  H   UNL     1      28.443  45.766  55.760  1.00  0.00     0.189 HD
HETATM   15  N   UNL     1      28.740  43.965  54.872  1.00  0.00    -0.168 NA
HETATM   16  C   UNL     1      25.859  46.689  52.496  1.00  0.00     0.032 A 
BRANCH  11  17
HETATM   17  C   UNL     1      28.548  42.109  53.269  1.00  0.00     0.270 C 
HETATM   18  N   UNL     1      29.517  42.050  52.304  1.00  0.00    -0.365 N 
HETATM   19  H   UNL     1      29.953  42.915  52.005  1.00  0.00     0.159 HD
HETATM   20  H   UNL     1      29.829  41.156  51.963  1.00  0.00     0.159 HD
HETATM   21  O   UNL     1      28.026  41.088  53.705  1.00  0.00    -0.266 OA
ENDBRANCH  11  17
ENDBRANCH   4   7
BRANCH   2  22
HETATM   22  C   UNL     1      23.193  46.979  48.692  1.00  0.00     0.153 C 
BRANCH  22  23
HETATM   23  C   UNL     1      21.849  47.712  48.823  1.00  0.00     0.195 C 
BRANCH  23  24
HETATM   24  O   UNL     1      22.095  49.117  48.974  1.00  0.00    -0.350 OA
BRANCH  24  25
HETATM   25  C   UNL     1      20.940  49.800  49.227  1.00  0.00     0.068 A 
HETATM   26  C   UNL     1      20.861  51.127  48.808  1.00  0.00     0.038 A 
HETATM   27  C   UNL     1      19.688  51.853  49.020  1.00  0.00     0.026 A 
HETATM   28  C   UNL     1      18.600  51.240  49.637  1.00  0.00     0.034 A 
HETATM   29 CL   UNL     1      17.151  52.131  49.900  1.00  0.00    -0.084 Cl
HETATM   30  C   UNL     1      18.672  49.904  50.038  1.00  0.00     0.026 A 
HETATM   31  C   UNL     1      19.846  49.177  49.828  1.00  0.00     0.038 A 
ENDBRANCH  24  25
ENDBRANCH  23  24
ENDBRANCH  22  23
ENDBRANCH   2  22
TORSDOF 6
ENDMDL
MODEL 10
REMARK VINA RESULT:      -7.7     12.207     14.208
REMARK  6 active torsions:
REMARK  status: ('A' for Active; 'I' for Inactive)
REMARK       I    between atoms: N_2  and  C_3 
REMARK    1  A    between atoms: N_2  and  C_19 
REMARK       I    between atoms: C_3  and  N_4 
REMARK    2  A    between atoms: N_4  and  C_5 
REMARK    3  A    between atoms: C_12  and  C_13 
REMARK       I    between atoms: C_13  and  N_14 
REMARK    4  A    between atoms: C_19  and  C_20 
REMARK    5  A    between atoms: C_20  and  O_21 
REMARK    6  A    between atoms: O_21  and  C_22 
ROOT
HETATM    1  C   UNL     1      37.058  52.974  38.670  1.00  0.00     0.154 C 
HETATM    2  N   UNL     1      35.935  52.062  38.828  1.00  0.00    -0.336 N 
HETATM    3  C   UNL     1      34.702  52.661  39.121  1.00  0.00     0.322 C 
HETATM    4  N   UNL     1      33.641  51.786  39.132  1.00  0.00    -0.309 N 
HETATM    5  O   UNL     1      34.606  53.873  39.300  1.00  0.00    -0.247 OA
HETATM    6  H   UNL     1      33.760  50.970  38.555  1.00  0.00     0.170 HD
ENDROOT
BRANCH   4   7
HETATM    7  C   UNL     1      32.333  52.043  39.593  1.00  0.00     0.037 A 
HETATM    8  C   UNL     1      31.214  51.318  39.159  1.00  0.00     0.046 A 
HETATM    9  C   UNL     1      29.931  51.667  39.633  1.00  0.00     0.030 A 
HETATM   10  C   UNL     1      29.813  52.713  40.539  1.00  0.00     0.063 A 
HETATM   11  C   UNL     1      28.596  51.216  39.411  1.00  0.00     0.156 A 
HETATM   12  N   UNL     1      28.479  52.797  40.823  1.00  0.00    -0.277 N 
HETATM   13  C   UNL     1      30.905  53.457  40.991  1.00  0.00     0.034 A 
HETATM   14  H   UNL     1      28.026  53.445  41.456  1.00  0.00     0.189 HD
HETATM   15  N   UNL     1      27.712  51.913  40.162  1.00  0.00    -0.168 NA
HETATM   16  C   UNL     1      32.165  53.108  40.487  1.00  0.00     0.032 A 
BRANCH  11  17
HETATM   17  C   UNL     1      28.149  50.156  38.497  1.00  0.00     0.270 C 
HETATM   18  N   UNL     1      28.706  48.931  38.747  1.00  0.00    -0.365 N 
HETATM   19  H   UNL     1      29.338  48.840  39.535  1.00  0.00     0.159 HD
HETATM   20  H   UNL     1      28.429  48.134  38.198  1.00  0.00     0.159 HD
HETATM   21  O   UNL     1      27.338  50.309  37.589  1.00  0.00    -0.266 OA
ENDBRANCH  11  17
ENDBRANCH   4   7
BRANCH   2  22
HETATM   22  C   UNL     1      36.270  50.688  39.244  1.00  0.00     0.153 C 
BRANCH  22  23
HETATM   23  C   UNL     1      36.262  50.491  40.768  1.00  0.00     0.195 C 
BRANCH  23  24
HETATM   24  O   UNL     1      35.106  49.726  41.136  1.00  0.00    -0.350 OA
BRANCH  24  25
HETATM   25  C   UNL     1      34.354  50.377  42.071  1.00  0.00     0.068 A 
HETATM   26  C   UNL     1      33.043  49.950  42.268  1.00  0.00     0.038 A 
HETATM   27  C   UNL     1      32.248  50.568  43.235  1.00  0.00     0.026 A 
HETATM   28  C   UNL     1      32.781  51.599  44.006  1.00  0.00     0.034 A 
HETATM   29 CL   UNL     1      31.806  52.364  45.200  1.00  0.00    -0.084 Cl
HETATM   30  C   UNL     1      34.102  52.013  43.823  1.00  0.00     0.026 A 
HETATM   31  C   UNL     1      34.896  51.396  42.855  1.00  0.00     0.038 A 
ENDBRANCH  24  25
ENDBRANCH  23  24
ENDBRANCH  22  23
ENDBRANCH   2  22
TORSDOF 6
ENDMDL
