MODEL 1
REMARK VINA RESULT:      -9.8      0.000      0.000
REMARK  4 active torsions:
REMARK  status: ('A' for Active; 'I' for Inactive)
REMARK    1  A    between atoms: C_2  and  C_3 
REMARK    2  A    between atoms: C_8  and  N_9 
REMARK       I    between atoms: N_9  and  C_10 
REMARK       I    between atoms: C_10  and  N_11 
REMARK    3  A    between atoms: N_11  and  C_12 
REMARK    4  A    between atoms: C_12  and  C_13 
ROOT
HETATM    1  N   UNL     1      24.692  48.032  50.209  1.00  0.00    -0.305 N 
HETATM    2  C   UNL     1      25.444  46.908  50.438  1.00  0.00     0.321 C 
HETATM    3  N   UNL     1      25.057  46.265  51.598  1.00  0.00    -0.339 N 
HETATM    4  O   UNL     1      26.363  46.491  49.746  1.00  0.00    -0.247 OA
HETATM    5  H   UNL     1      24.120  48.349  50.977  1.00  0.00     0.171 HD
HETATM    6  H   UNL     1      24.083  46.339  51.847  1.00  0.00     0.164 HD
ENDROOT
BRANCH   3   7
HETATM    7  C   UNL     1      25.689  45.000  51.915  1.00  0.00     0.162 C 
BRANCH   7   8
HETATM    8  C   UNL     1      26.794  45.140  52.928  1.00  0.00    -0.040 A 
HETATM    9  C   UNL     1      27.783  44.151  53.052  1.00  0.00     0.021 A 
HETATM   10  C   UNL     1      28.764  44.222  54.056  1.00  0.00    -0.025 A 
HETATM   11  C   UNL     1      28.754  45.309  54.958  1.00  0.00    -0.026 A 
HETATM   12  C   UNL     1      29.745  43.225  54.195  1.00  0.00     0.012 A 
HETATM   13  C   UNL     1      27.773  46.302  54.823  1.00  0.00     0.013 A 
HETATM   14  C   UNL     1      29.717  45.366  55.979  1.00  0.00     0.012 A 
HETATM   15  C   UNL     1      26.802  46.217  53.822  1.00  0.00     0.010 A 
HETATM   16  C   UNL     1      30.680  44.365  56.107  1.00  0.00     0.001 A 
HETATM   17  C   UNL     1      30.696  43.297  55.215  1.00  0.00     0.001 A 
ENDBRANCH   7   8
ENDBRANCH   3   7
BRANCH   1  18
HETATM   18  C   UNL     1      24.754  48.861  49.093  1.00  0.00     0.095 A 
HETATM   19  C   UNL     1      23.652  49.152  48.310  1.00  0.00     0.107 A 
HETATM   20  O   UNL     1      24.021  49.963  47.287  1.00  0.00    -0.215 OA
HETATM   21  N   UNL     1      25.364  50.234  47.371  1.00  0.00    -0.131 NA
HETATM   22  C   UNL     1      25.812  49.574  48.450  1.00  0.00     0.087 A 
HETATM   23  C   UNL     1      27.256  49.681  48.766  1.00  0.00     0.075 C 
BRANCH  19  24
HETATM   24  C   UNL     1      22.216  48.784  48.333  1.00  0.00     0.065 C 
HETATM   25  C   UNL     1      21.339  49.906  47.800  1.00  0.00     0.012 C 
ENDBRANCH  19  24
ENDBRANCH   1  18
TORSDOF 4
ENDMDL
MODEL 2
REMARK VINA RESULT:      -9.4      0.766      2.208
REMARK  4 active torsions:
REMARK  status: ('A' for Active; 'I' for Inactive)
REMARK    1  A    between atoms: C_2  and  C_3 
REMARK    2  A    between atoms: C_8  and  N_9 
REMARK       I    between atoms: N_9  and  C_10 
REMARK       I    between atoms: C_10  and  N_11 
REMARK    3  A    between atoms: N_11  and  C_12 
REMARK    4  A    between atoms: C_12  and  C_13 
ROOT
HETATM    1  N   UNL     1      24.567  48.128  50.477  1.00  0.00    -0.305 N 
HETATM    2  C   UNL     1      25.176  46.912  50.657  1.00  0.00     0.321 C 
HETATM    3  N   UNL     1      25.219  46.558  51.992  1.00  0.00    -0.339 N 
HETATM    4  O   UNL     1      25.653  46.199  49.786  1.00  0.00    -0.247 OA
HETATM    5  H   UNL     1      24.418  48.679  51.309  1.00  0.00     0.171 HD
HETATM    6  H   UNL     1      24.458  46.886  52.567  1.00  0.00     0.164 HD
ENDROOT
BRANCH   3   7
HETATM    7  C   UNL     1      25.737  45.247  52.329  1.00  0.00     0.162 C 
BRANCH   7   8
HETATM    8  C   UNL     1      26.901  45.310  53.281  1.00  0.00    -0.040 A 
HETATM    9  C   UNL     1      27.808  44.241  53.377  1.00  0.00     0.021 A 
HETATM   10  C   UNL     1      28.843  44.245  54.327  1.00  0.00    -0.025 A 
HETATM   11  C   UNL     1      28.974  45.345  55.204  1.00  0.00    -0.026 A 
HETATM   12  C   UNL     1      29.740  43.170  54.439  1.00  0.00     0.012 A 
HETATM   13  C   UNL     1      28.075  46.417  55.097  1.00  0.00     0.013 A 
HETATM   14  C   UNL     1      29.991  45.338  56.173  1.00  0.00     0.012 A 
HETATM   15  C   UNL     1      27.049  46.399  54.148  1.00  0.00     0.010 A 
HETATM   16  C   UNL     1      30.870  44.259  56.275  1.00  0.00     0.001 A 
HETATM   17  C   UNL     1      30.746  43.178  55.407  1.00  0.00     0.001 A 
ENDBRANCH   7   8
ENDBRANCH   3   7
BRANCH   1  18
HETATM   18  C   UNL     1      24.277  48.741  49.262  1.00  0.00     0.095 A 
HETATM   19  C   UNL     1      25.188  49.527  48.581  1.00  0.00     0.107 A 
HETATM   20  O   UNL     1      24.619  50.005  47.446  1.00  0.00    -0.215 OA
HETATM   21  N   UNL     1      23.330  49.547  47.345  1.00  0.00    -0.131 NA
HETATM   22  C   UNL     1      23.115  48.790  48.432  1.00  0.00     0.087 A 
HETATM   23  C   UNL     1      21.774  48.177  48.586  1.00  0.00     0.075 C 
BRANCH  19  24
HETATM   24  C   UNL     1      26.591  49.952  48.807  1.00  0.00     0.065 C 
HETATM   25  C   UNL     1      27.536  48.763  48.872  1.00  0.00     0.012 C 
ENDBRANCH  19  24
ENDBRANCH   1  18
TORSDOF 4
ENDMDL
MODEL 3
REMARK VINA RESULT:      -9.0      5.190      7.822
REMARK  4 active torsions:
REMARK  status: ('A' for Active; 'I' for Inactive)
REMARK    1  A    between atoms: C_2  and  C_3 
REMARK    2  A    between atoms: C_8  and  N_9 
REMARK       I    between atoms: N_9  and  C_10 
REMARK       I    between atoms: C_10  and  N_11 
REMARK    3  A    between atoms: N_11  and  C_12 
REMARK    4  A    between atoms: C_12  and  C_13 
ROOT
HETATM    1  N   UNL     1      27.303  40.055  50.798  1.00  0.00    -0.305 N 
HETATM    2  C   UNL     1      27.153  41.414  50.695  1.00  0.00     0.321 C 
HETATM    3  N   UNL     1      26.815  41.982  51.908  1.00  0.00    -0.339 N 
HETATM    4  O   UNL     1      27.275  42.087  49.681  1.00  0.00    -0.247 OA
HETATM    5  H   UNL     1      26.966  39.633  51.650  1.00  0.00     0.171 HD
HETATM    6  H   UNL     1      27.176  41.526  52.732  1.00  0.00     0.164 HD
ENDROOT
BRANCH   3   7
HETATM    7  C   UNL     1      26.728  43.426  51.980  1.00  0.00     0.162 C 
BRANCH   7   8
HETATM    8  C   UNL     1      27.570  44.004  53.087  1.00  0.00    -0.040 A 
HETATM    9  C   UNL     1      28.671  43.296  53.596  1.00  0.00     0.021 A 
HETATM   10  C   UNL     1      29.406  43.778  54.691  1.00  0.00    -0.025 A 
HETATM   11  C   UNL     1      29.031  45.000  55.293  1.00  0.00    -0.026 A 
HETATM   12  C   UNL     1      30.497  43.064  55.215  1.00  0.00     0.012 A 
HETATM   13  C   UNL     1      27.939  45.712  54.774  1.00  0.00     0.013 A 
HETATM   14  C   UNL     1      29.748  45.470  56.405  1.00  0.00     0.012 A 
HETATM   15  C   UNL     1      27.215  45.218  53.686  1.00  0.00     0.010 A 
HETATM   16  C   UNL     1      30.825  44.745  56.917  1.00  0.00     0.001 A 
HETATM   17  C   UNL     1      31.200  43.544  56.321  1.00  0.00     0.001 A 
ENDBRANCH   7   8
ENDBRANCH   3   7
BRANCH   1  18
HETATM   18  C   UNL     1      27.725  39.186  49.796  1.00  0.00     0.095 A 
HETATM   19  C   UNL     1      28.855  38.398  49.911  1.00  0.00     0.107 A 
HETATM   20  O   UNL     1      29.025  37.676  48.775  1.00  0.00    -0.215 OA
HETATM   21  N   UNL     1      28.016  37.960  47.890  1.00  0.00    -0.131 NA
HETATM   22  C   UNL     1      27.233  38.867  48.493  1.00  0.00     0.087 A 
HETATM   23  C   UNL     1      26.059  39.368  47.739  1.00  0.00     0.075 C 
BRANCH  19  24
HETATM   24  C   UNL     1      29.887  38.179  50.954  1.00  0.00     0.065 C 
HETATM   25  C   UNL     1      29.866  36.751  51.475  1.00  0.00     0.012 C 
ENDBRANCH  19  24
ENDBRANCH   1  18
TORSDOF 4
ENDMDL
MODEL 4
REMARK VINA RESULT:      -8.9      5.431      8.149
REMARK  4 active torsions:
REMARK  status: ('A' for Active; 'I' for Inactive)
REMARK    1  A    between atoms: C_2  and  C_3 
REMARK    2  A    between atoms: C_8  and  N_9 
REMARK       I    between atoms: N_9  and  C_10 
REMARK       I    between atoms: C_10  and  N_11 
REMARK    3  A    between atoms: N_11  and  C_12 
REMARK    4  A    between atoms: C_12  and  C_13 
ROOT
HETATM    1  N   UNL     1      28.931  41.025  51.160  1.00  0.00    -0.305 N 
HETATM    2  C   UNL     1      29.143  41.194  52.505  1.00  0.00     0.321 C 
HETATM    3  N   UNL     1      29.849  42.352  52.767  1.00  0.00    -0.339 N 
HETATM    4  O   UNL     1      28.789  40.439  53.400  1.00  0.00    -0.247 OA
HETATM    5  H   UNL     1      29.464  41.622  50.547  1.00  0.00     0.171 HD
HETATM    6  H   UNL     1      29.703  43.119  52.129  1.00  0.00     0.164 HD
ENDROOT
BRANCH   3   7
HETATM    7  C   UNL     1      30.055  42.722  54.153  1.00  0.00     0.162 C 
BRANCH   7   8
HETATM    8  C   UNL     1      29.291  43.959  54.543  1.00  0.00    -0.040 A 
HETATM    9  C   UNL     1      28.145  44.349  53.831  1.00  0.00     0.021 A 
HETATM   10  C   UNL     1      27.477  45.550  54.123  1.00  0.00    -0.025 A 
HETATM   11  C   UNL     1      27.969  46.382  55.153  1.00  0.00    -0.026 A 
HETATM   12  C   UNL     1      26.341  45.953  53.402  1.00  0.00     0.012 A 
HETATM   13  C   UNL     1      29.106  45.984  55.872  1.00  0.00     0.013 A 
HETATM   14  C   UNL     1      27.319  47.596  55.429  1.00  0.00     0.012 A 
HETATM   15  C   UNL     1      29.761  44.787  55.569  1.00  0.00     0.010 A 
HETATM   16  C   UNL     1      26.196  47.985  54.698  1.00  0.00     0.001 A 
HETATM   17  C   UNL     1      25.706  47.163  53.687  1.00  0.00     0.001 A 
ENDBRANCH   7   8
ENDBRANCH   3   7
BRANCH   1  18
HETATM   18  C   UNL     1      28.184  40.019  50.556  1.00  0.00     0.095 A 
HETATM   19  C   UNL     1      28.683  38.752  50.316  1.00  0.00     0.107 A 
HETATM   20  O   UNL     1      27.738  37.998  49.699  1.00  0.00    -0.215 OA
HETATM   21  N   UNL     1      26.597  38.739  49.523  1.00  0.00    -0.131 NA
HETATM   22  C   UNL     1      26.856  39.954  50.031  1.00  0.00     0.087 A 
HETATM   23  C   UNL     1      25.782  40.972  49.954  1.00  0.00     0.075 C 
BRANCH  19  24
HETATM   24  C   UNL     1      29.971  38.061  50.566  1.00  0.00     0.065 C 
HETATM   25  C   UNL     1      29.773  36.757  51.322  1.00  0.00     0.012 C 
ENDBRANCH  19  24
ENDBRANCH   1  18
TORSDOF 4
ENDMDL
MODEL 5
REMARK VINA RESULT:      -8.8      2.875      4.013
REMARK  4 active torsions:
REMARK  status: ('A' for Active; 'I' for Inactive)
REMARK    1  A    between atoms: C_2  and  C_3 
REMARK    2  A    between atoms: C_8  and  N_9 
REMARK       I    between atoms: N_9  and  C_10 
REMARK       I    between atoms: C_10  and  N_11 
REMARK    3  A    between atoms: N_11  and  C_12 
REMARK    4  A    between atoms: C_12  and  C_13 
ROOT
HETATM    1  N   UNL     1      26.663  44.477  50.139  1.00  0.00    -0.305 N 
HETATM    2  C   UNL     1      26.948  43.599  51.153  1.00  0.00     0.321 C 
HETATM    3  N   UNL     1      28.299  43.580  51.444  1.00  0.00    -0.339 N 
HETATM    4  O   UNL     1      26.151  42.886  51.747  1.00  0.00    -0.247 OA
HETATM    5  H   UNL     1      27.452  44.829  49.619  1.00  0.00     0.171 HD
HETATM    6  H   UNL     1      28.798  44.445  51.303  1.00  0.00     0.164 HD
ENDROOT
BRANCH   3   7
HETATM    7  C   UNL     1      28.739  42.780  52.569  1.00  0.00     0.162 C 
BRANCH   7   8
HETATM    8  C   UNL     1      29.102  43.613  53.768  1.00  0.00    -0.040 A 
HETATM    9  C   UNL     1      30.118  43.202  54.647  1.00  0.00     0.021 A 
HETATM   10  C   UNL     1      30.403  43.919  55.821  1.00  0.00    -0.025 A 
HETATM   11  C   UNL     1      29.652  45.077  56.124  1.00  0.00    -0.026 A 
HETATM   12  C   UNL     1      31.406  43.501  56.711  1.00  0.00     0.012 A 
HETATM   13  C   UNL     1      28.647  45.493  55.238  1.00  0.00     0.013 A 
HETATM   14  C   UNL     1      29.917  45.779  57.311  1.00  0.00     0.012 A 
HETATM   15  C   UNL     1      28.373  44.768  54.075  1.00  0.00     0.010 A 
HETATM   16  C   UNL     1      30.912  45.347  58.188  1.00  0.00     0.001 A 
HETATM   17  C   UNL     1      31.658  44.211  57.887  1.00  0.00     0.001 A 
ENDBRANCH   7   8
ENDBRANCH   3   7
BRANCH   1  18
HETATM   18  C   UNL     1      25.400  44.808  49.656  1.00  0.00     0.095 A 
HETATM   19  C   UNL     1      24.792  46.023  49.912  1.00  0.00     0.107 A 
HETATM   20  O   UNL     1      23.565  46.051  49.334  1.00  0.00    -0.215 OA
HETATM   21  N   UNL     1      23.334  44.866  48.680  1.00  0.00    -0.131 NA
HETATM   22  C   UNL     1      24.429  44.114  48.871  1.00  0.00     0.087 A 
HETATM   23  C   UNL     1      24.438  42.756  48.277  1.00  0.00     0.075 C 
BRANCH  19  24
HETATM   24  C   UNL     1      25.164  47.253  50.654  1.00  0.00     0.065 C 
HETATM   25  C   UNL     1      25.437  46.964  52.121  1.00  0.00     0.012 C 
ENDBRANCH  19  24
ENDBRANCH   1  18
TORSDOF 4
ENDMDL
MODEL 6
REMARK VINA RESULT:      -8.7      4.608      6.342
REMARK  4 active torsions:
REMARK  status: ('A' for Active; 'I' for Inactive)
REMARK    1  A    between atoms: C_2  and  C_3 
REMARK    2  A    between atoms: C_8  and  N_9 
REMARK       I    between atoms: N_9  and  C_10 
REMARK       I    between atoms: C_10  and  N_11 
REMARK    3  A    between atoms: N_11  and  C_12 
REMARK    4  A    between atoms: C_12  and  C_13 
ROOT
HETATM    1  N   UNL     1      25.667  42.034  50.996  1.00  0.00    -0.305 N 
HETATM    2  C   UNL     1      26.461  43.145  51.118  1.00  0.00     0.321 C 
HETATM    3  N   UNL     1      26.540  43.572  52.429  1.00  0.00    -0.339 N 
HETATM    4  O   UNL     1      27.037  43.734  50.213  1.00  0.00    -0.247 OA
HETATM    5  H   UNL     1      25.103  41.799  51.798  1.00  0.00     0.171 HD
HETATM    6  H   UNL     1      26.476  42.857  53.137  1.00  0.00     0.164 HD
ENDROOT
BRANCH   3   7
HETATM    7  C   UNL     1      27.432  44.673  52.732  1.00  0.00     0.162 C 
BRANCH   7   8
HETATM    8  C   UNL     1      28.421  44.339  53.815  1.00  0.00    -0.040 A 
HETATM    9  C   UNL     1      28.532  45.145  54.960  1.00  0.00     0.021 A 
HETATM   10  C   UNL     1      29.516  44.900  55.933  1.00  0.00    -0.025 A 
HETATM   11  C   UNL     1      30.411  43.822  55.756  1.00  0.00    -0.026 A 
HETATM   12  C   UNL     1      29.642  45.715  57.070  1.00  0.00     0.012 A 
HETATM   13  C   UNL     1      30.289  43.010  54.619  1.00  0.00     0.013 A 
HETATM   14  C   UNL     1      31.411  43.592  56.715  1.00  0.00     0.012 A 
HETATM   15  C   UNL     1      29.308  43.267  53.658  1.00  0.00     0.010 A 
HETATM   16  C   UNL     1      31.527  44.415  57.835  1.00  0.00     0.001 A 
HETATM   17  C   UNL     1      30.642  45.474  58.014  1.00  0.00     0.001 A 
ENDBRANCH   7   8
ENDBRANCH   3   7
BRANCH   1  18
HETATM   18  C   UNL     1      25.442  41.295  49.838  1.00  0.00     0.095 A 
HETATM   19  C   UNL     1      26.332  40.346  49.367  1.00  0.00     0.107 A 
HETATM   20  O   UNL     1      25.858  39.809  48.215  1.00  0.00    -0.215 OA
HETATM   21  N   UNL     1      24.649  40.378  47.900  1.00  0.00    -0.131 NA
HETATM   22  C   UNL     1      24.394  41.273  48.867  1.00  0.00     0.087 A 
HETATM   23  C   UNL     1      23.140  42.055  48.762  1.00  0.00     0.075 C 
BRANCH  19  24
HETATM   24  C   UNL     1      27.639  39.811  49.818  1.00  0.00     0.065 C 
HETATM   25  C   UNL     1      28.728  40.039  48.781  1.00  0.00     0.012 C 
ENDBRANCH  19  24
ENDBRANCH   1  18
TORSDOF 4
ENDMDL
MODEL 7
REMARK VINA RESULT:      -8.5      4.031      5.453
REMARK  4 active torsions:
REMARK  status: ('A' for Active; 'I' for Inactive)
REMARK    1  A    between atoms: C_2  and  C_3 
REMARK    2  A    between atoms: C_8  and  N_9 
REMARK       I    between atoms: N_9  and  C_10 
REMARK       I    between atoms: C_10  and  N_11 
REMARK    3  A    between atoms: N_11  and  C_12 
REMARK    4  A    between atoms: C_12  and  C_13 
ROOT
HETATM    1  N   UNL     1      27.048  42.636  50.467  1.00  0.00    -0.305 N 
HETATM    2  C   UNL     1      27.662  42.077  51.558  1.00  0.00     0.321 C 
HETATM    3  N   UNL     1      28.953  42.545  51.711  1.00  0.00    -0.339 N 
HETATM    4  O   UNL     1      27.182  41.252  52.323  1.00  0.00    -0.247 OA
HETATM    5  H   UNL     1      27.647  43.135  49.826  1.00  0.00     0.171 HD
HETATM    6  H   UNL     1      29.126  43.489  51.402  1.00  0.00     0.164 HD
ENDROOT
BRANCH   3   7
HETATM    7  C   UNL     1      29.692  42.126  52.885  1.00  0.00     0.162 C 
BRANCH   7   8
HETATM    8  C   UNL     1      29.731  43.184  53.955  1.00  0.00    -0.040 A 
HETATM    9  C   UNL     1      30.589  43.056  55.060  1.00  0.00     0.021 A 
HETATM   10  C   UNL     1      30.568  43.986  56.112  1.00  0.00    -0.025 A 
HETATM   11  C   UNL     1      29.665  45.071  56.059  1.00  0.00    -0.026 A 
HETATM   12  C   UNL     1      31.411  43.852  57.228  1.00  0.00     0.012 A 
HETATM   13  C   UNL     1      28.819  45.204  54.948  1.00  0.00     0.013 A 
HETATM   14  C   UNL     1      29.623  45.987  57.123  1.00  0.00     0.012 A 
HETATM   15  C   UNL     1      28.849  44.270  53.910  1.00  0.00     0.010 A 
HETATM   16  C   UNL     1      30.463  45.835  58.227  1.00  0.00     0.001 A 
HETATM   17  C   UNL     1      31.358  44.770  58.278  1.00  0.00     0.001 A 
ENDBRANCH   7   8
ENDBRANCH   3   7
BRANCH   1  18
HETATM   18  C   UNL     1      25.726  42.457  50.073  1.00  0.00     0.095 A 
HETATM   19  C   UNL     1      24.684  43.220  50.568  1.00  0.00     0.107 A 
HETATM   20  O   UNL     1      23.514  42.803  50.022  1.00  0.00    -0.215 OA
HETATM   21  N   UNL     1      23.751  41.768  49.153  1.00  0.00    -0.131 NA
HETATM   22  C   UNL     1      25.075  41.551  49.180  1.00  0.00     0.087 A 
HETATM   23  C   UNL     1      25.607  40.457  48.334  1.00  0.00     0.075 C 
BRANCH  19  24
HETATM   24  C   UNL     1      24.563  44.342  51.530  1.00  0.00     0.065 C 
HETATM   25  C   UNL     1      25.047  45.653  50.929  1.00  0.00     0.012 C 
ENDBRANCH  19  24
ENDBRANCH   1  18
TORSDOF 4
ENDMDL
MODEL 8
REMARK VINA RESULT:      -8.5      5.162      6.225
REMARK  4 active torsions:
REMARK  status: ('A' for Active; 'I' for Inactive)
REMARK    1  A    between atoms: C_2  and  C_3 
REMARK    2  A    between atoms: C_8  and  N_9 
REMARK       I    between atoms: N_9  and  C_10 
REMARK       I    between atoms: C_10  and  N_11 
REMARK    3  A    between atoms: N_11  and  C_12 
REMARK    4  A    between atoms: C_12  and  C_13 
ROOT
HETATM    1  N   UNL     1      27.311  42.449  50.118  1.00  0.00    -0.305 N 
HETATM    2  C   UNL     1      27.936  41.834  51.173  1.00  0.00     0.321 C 
HETATM    3  N   UNL     1      28.926  42.633  51.712  1.00  0.00    -0.339 N 
HETATM    4  O   UNL     1      27.699  40.718  51.612  1.00  0.00    -0.247 OA
HETATM    5  H   UNL     1      27.761  43.274  49.752  1.00  0.00     0.171 HD
HETATM    6  H   UNL     1      28.775  43.629  51.662  1.00  0.00     0.164 HD
ENDROOT
BRANCH   3   7
HETATM    7  C   UNL     1      29.602  42.163  52.904  1.00  0.00     0.162 C 
BRANCH   7   8
HETATM    8  C   UNL     1      29.669  43.209  53.985  1.00  0.00    -0.040 A 
HETATM    9  C   UNL     1      30.566  43.076  55.058  1.00  0.00     0.021 A 
HETATM   10  C   UNL     1      30.572  43.993  56.121  1.00  0.00    -0.025 A 
HETATM   11  C   UNL     1      29.659  45.071  56.112  1.00  0.00    -0.026 A 
HETATM   12  C   UNL     1      31.455  43.854  57.206  1.00  0.00     0.012 A 
HETATM   13  C   UNL     1      28.774  45.209  55.033  1.00  0.00     0.013 A 
HETATM   14  C   UNL     1      29.646  45.974  57.188  1.00  0.00     0.012 A 
HETATM   15  C   UNL     1      28.777  44.287  53.982  1.00  0.00     0.010 A 
HETATM   16  C   UNL     1      30.525  45.817  58.260  1.00  0.00     0.001 A 
HETATM   17  C   UNL     1      31.430  44.760  58.268  1.00  0.00     0.001 A 
ENDBRANCH   7   8
ENDBRANCH   3   7
BRANCH   1  18
HETATM   18  C   UNL     1      26.216  41.968  49.405  1.00  0.00     0.095 A 
HETATM   19  C   UNL     1      26.340  41.254  48.228  1.00  0.00     0.107 A 
HETATM   20  O   UNL     1      25.109  40.940  47.753  1.00  0.00    -0.215 OA
HETATM   21  N   UNL     1      24.147  41.428  48.601  1.00  0.00    -0.131 NA
HETATM   22  C   UNL     1      24.802  42.049  49.593  1.00  0.00     0.087 A 
HETATM   23  C   UNL     1      23.990  42.691  50.653  1.00  0.00     0.075 C 
BRANCH  19  24
HETATM   24  C   UNL     1      27.473  40.779  47.397  1.00  0.00     0.065 C 
HETATM   25  C   UNL     1      28.108  39.524  47.975  1.00  0.00     0.012 C 
ENDBRANCH  19  24
ENDBRANCH   1  18
TORSDOF 4
ENDMDL
MODEL 9
REMARK VINA RESULT:      -8.4      2.253      3.300
REMARK  4 active torsions:
REMARK  status: ('A' for Active; 'I' for Inactive)
REMARK    1  A    between atoms: C_2  and  C_3 
REMARK    2  A    between atoms: C_8  and  N_9 
REMARK       I    between atoms: N_9  and  C_10 
REMARK       I    between atoms: C_10  and  N_11 
REMARK    3  A    between atoms: N_11  and  C_12 
REMARK    4  A    between atoms: C_12  and  C_13 
ROOT
HETATM    1  N   UNL     1      24.762  45.523  51.036  1.00  0.00    -0.305 N 
HETATM    2  C   UNL     1      26.013  44.961  51.062  1.00  0.00     0.321 C 
HETATM    3  N   UNL     1      26.462  44.777  52.356  1.00  0.00    -0.339 N 
HETATM    4  O   UNL     1      26.696  44.657  50.094  1.00  0.00    -0.247 OA
HETATM    5  H   UNL     1      24.427  45.903  51.908  1.00  0.00     0.171 HD
HETATM    6  H   UNL     1      25.756  44.589  53.051  1.00  0.00     0.164 HD
ENDROOT
BRANCH   3   7
HETATM    7  C   UNL     1      27.724  44.091  52.545  1.00  0.00     0.162 C 
BRANCH   7   8
HETATM    8  C   UNL     1      28.435  44.518  53.801  1.00  0.00    -0.040 A 
HETATM    9  C   UNL     1      29.473  43.739  54.337  1.00  0.00     0.021 A 
HETATM   10  C   UNL     1      30.081  44.075  55.559  1.00  0.00    -0.025 A 
HETATM   11  C   UNL     1      29.637  45.217  56.262  1.00  0.00    -0.026 A 
HETATM   12  C   UNL     1      31.107  43.289  56.109  1.00  0.00     0.012 A 
HETATM   13  C   UNL     1      28.609  46.000  55.717  1.00  0.00     0.013 A 
HETATM   14  C   UNL     1      30.225  45.539  57.496  1.00  0.00     0.012 A 
HETATM   15  C   UNL     1      28.013  45.654  54.502  1.00  0.00     0.010 A 
HETATM   16  C   UNL     1      31.239  44.743  58.031  1.00  0.00     0.001 A 
HETATM   17  C   UNL     1      31.681  43.621  57.337  1.00  0.00     0.001 A 
ENDBRANCH   7   8
ENDBRANCH   3   7
BRANCH   1  18
HETATM   18  C   UNL     1      23.981  45.763  49.910  1.00  0.00     0.095 A 
HETATM   19  C   UNL     1      23.420  44.750  49.155  1.00  0.00     0.107 A 
HETATM   20  O   UNL     1      22.734  45.283  48.113  1.00  0.00    -0.215 OA
HETATM   21  N   UNL     1      22.817  46.652  48.156  1.00  0.00    -0.131 NA
HETATM   22  C   UNL     1      23.566  46.949  49.229  1.00  0.00     0.087 A 
HETATM   23  C   UNL     1      23.832  48.381  49.504  1.00  0.00     0.075 C 
BRANCH  19  24
HETATM   24  C   UNL     1      23.406  43.268  49.222  1.00  0.00     0.065 C 
HETATM   25  C   UNL     1      22.652  42.659  48.051  1.00  0.00     0.012 C 
ENDBRANCH  19  24
ENDBRANCH   1  18
TORSDOF 4
ENDMDL
MODEL 10
REMARK VINA RESULT:      -8.1      3.707      4.915
REMARK  4 active torsions:
REMARK  status: ('A' for Active; 'I' for Inactive)
REMARK    1  A    between atoms: C_2  and  C_3 
REMARK    2  A    between atoms: C_8  and  N_9 
REMARK       I    between atoms: N_9  and  C_10 
REMARK       I    between atoms: C_10  and  N_11 
REMARK    3  A    between atoms: N_11  and  C_12 
REMARK    4  A    between atoms: C_12  and  C_13 
ROOT
HETATM    1  N   UNL     1      26.106  43.535  50.202  1.00  0.00    -0.305 N 
HETATM    2  C   UNL     1      25.973  43.947  51.503  1.00  0.00     0.321 C 
HETATM    3  N   UNL     1      27.052  44.709  51.908  1.00  0.00    -0.339 N 
HETATM    4  O   UNL     1      25.048  43.688  52.260  1.00  0.00    -0.247 OA
HETATM    5  H   UNL     1      27.017  43.656  49.787  1.00  0.00     0.171 HD
HETATM    6  H   UNL     1      27.501  45.263  51.194  1.00  0.00     0.164 HD
ENDROOT
BRANCH   3   7
HETATM    7  C   UNL     1      27.004  45.308  53.226  1.00  0.00     0.162 C 
BRANCH   7   8
HETATM    8  C   UNL     1      28.086  44.795  54.137  1.00  0.00    -0.040 A 
HETATM    9  C   UNL     1      28.394  45.464  55.333  1.00  0.00     0.021 A 
HETATM   10  C   UNL     1      29.464  45.052  56.146  1.00  0.00    -0.025 A 
HETATM   11  C   UNL     1      30.246  43.944  55.751  1.00  0.00    -0.026 A 
HETATM   12  C   UNL     1      29.787  45.730  57.333  1.00  0.00     0.012 A 
HETATM   13  C   UNL     1      29.928  43.269  54.563  1.00  0.00     0.013 A 
HETATM   14  C   UNL     1      31.333  43.548  56.548  1.00  0.00     0.012 A 
HETATM   15  C   UNL     1      28.862  43.691  53.764  1.00  0.00     0.010 A 
HETATM   16  C   UNL     1      31.644  44.236  57.721  1.00  0.00     0.001 A 
HETATM   17  C   UNL     1      30.870  45.324  58.115  1.00  0.00     0.001 A 
ENDBRANCH   7   8
ENDBRANCH   3   7
BRANCH   1  18
HETATM   18  C   UNL     1      25.168  42.831  49.453  1.00  0.00     0.095 A 
HETATM   19  C   UNL     1      24.071  43.432  48.863  1.00  0.00     0.107 A 
HETATM   20  O   UNL     1      23.328  42.496  48.221  1.00  0.00    -0.215 OA
HETATM   21  N   UNL     1      23.913  41.263  48.361  1.00  0.00    -0.131 NA
HETATM   22  C   UNL     1      25.016  41.454  49.102  1.00  0.00     0.087 A 
HETATM   23  C   UNL     1      25.839  40.264  49.423  1.00  0.00     0.075 C 
BRANCH  19  24
HETATM   24  C   UNL     1      23.542  44.815  48.786  1.00  0.00     0.065 C 
HETATM   25  C   UNL     1      22.024  44.833  48.707  1.00  0.00     0.012 C 
ENDBRANCH  19  24
ENDBRANCH   1  18
TORSDOF 4
ENDMDL
