MODEL 1
REMARK VINA RESULT:      -9.4      0.000      0.000
REMARK  8 active torsions:
REMARK  status: ('A' for Active; 'I' for Inactive)
REMARK    1  A    between atoms: C_2  and  N_3 
REMARK    2  A    between atoms: N_3  and  N_4 
REMARK       I    between atoms: N_4  and  C_5 
REMARK    3  A    between atoms: C_5  and  C_6 
REMARK       I    between atoms: C_6  and  N_7 
REMARK    4  A    between atoms: N_7  and  C_8 
REMARK    5  A    between atoms: C_8  and  C_9 
REMARK    6  A    between atoms: C_17  and  C_18 
REMARK       I    between atoms: C_18  and  N_19 
REMARK    7  A    between atoms: N_19  and  C_20 
REMARK    8  A    between atoms: C_21  and  O_22 
ROOT
HETATM    1  N   UNL     1      25.172  47.173  51.071  1.00  0.00    -0.302 N 
HETATM    2  H   UNL     1      25.127  47.332  52.086  1.00  0.00     0.186 HD
ENDROOT
BRANCH   1   3
HETATM    3  C   UNL     1      26.093  46.218  50.679  1.00  0.00     0.027 C 
HETATM    4  C   UNL     1      26.924  46.641  49.481  1.00  0.00     0.070 C 
HETATM    5  C   UNL     1      26.313  44.984  51.180  1.00  0.00     0.100 C 
BRANCH   5   6
HETATM    6  C   UNL     1      25.575  44.290  52.271  1.00  0.00     0.247 C 
HETATM    7  N   UNL     1      26.282  43.500  53.135  1.00  0.00    -0.321 N 
HETATM    8  H   UNL     1      25.690  42.828  53.615  1.00  0.00     0.169 HD
HETATM    9  O   UNL     1      24.347  44.290  52.341  1.00  0.00    -0.268 OA
BRANCH   7  10
HETATM   10  C   UNL     1      27.645  43.440  53.474  1.00  0.00     0.070 A 
HETATM   11  C   UNL     1      28.463  42.554  52.753  1.00  0.00     0.095 A 
HETATM   12  C   UNL     1      29.806  42.374  53.088  1.00  0.00     0.041 A 
HETATM   13  C   UNL     1      30.355  43.102  54.142  1.00  0.00     0.026 A 
HETATM   14  C   UNL     1      29.550  43.982  54.864  1.00  0.00     0.036 A 
HETATM   15 CL   UNL     1      30.224  44.857  56.185  1.00  0.00    -0.084 Cl
HETATM   16  C   UNL     1      28.199  44.148  54.543  1.00  0.00     0.056 A 
BRANCH  11  17
HETATM   17  O   UNL     1      27.973  41.817  51.703  1.00  0.00    -0.354 OA
HETATM   18  C   UNL     1      28.575  40.520  51.663  1.00  0.00     0.210 C 
ENDBRANCH  11  17
ENDBRANCH   7  10
ENDBRANCH   5   6
ENDBRANCH   1   3
BRANCH   1  19
HETATM   19  N   UNL     1      23.919  47.321  50.470  1.00  0.00    -0.262 N 
HETATM   20  C   UNL     1      23.767  48.361  49.576  1.00  0.00     0.327 C 
HETATM   21  O   UNL     1      24.561  49.283  49.414  1.00  0.00    -0.261 OA
HETATM   22  H   UNL     1      23.345  46.475  50.372  1.00  0.00     0.190 HD
BRANCH  20  23
HETATM   23  C   UNL     1      22.481  48.289  48.731  1.00  0.00     0.311 C 
HETATM   24  N   UNL     1      21.336  48.523  49.458  1.00  0.00    -0.349 N 
HETATM   25  H   UNL     1      21.447  48.788  50.433  1.00  0.00     0.163 HD
HETATM   26  O   UNL     1      22.523  48.049  47.534  1.00  0.00    -0.262 OA
BRANCH  24  27
HETATM   27  C   UNL     1      20.040  48.568  48.835  1.00  0.00     0.161 C 
BRANCH  27  28
HETATM   28  C   UNL     1      19.416  49.930  48.977  1.00  0.00    -0.041 A 
HETATM   29  C   UNL     1      18.257  50.111  49.743  1.00  0.00     0.009 A 
HETATM   30  C   UNL     1      17.677  51.376  49.861  1.00  0.00     0.001 A 
HETATM   31  C   UNL     1      18.246  52.469  49.210  1.00  0.00     0.000 A 
HETATM   32  C   UNL     1      19.394  52.300  48.439  1.00  0.00     0.001 A 
HETATM   33  C   UNL     1      19.976  51.037  48.322  1.00  0.00     0.009 A 
ENDBRANCH  27  28
ENDBRANCH  24  27
ENDBRANCH  20  23
ENDBRANCH   1  19
TORSDOF 8
ENDMDL
MODEL 2
REMARK VINA RESULT:      -9.3      1.435      2.453
REMARK  8 active torsions:
REMARK  status: ('A' for Active; 'I' for Inactive)
REMARK    1  A    between atoms: C_2  and  N_3 
REMARK    2  A    between atoms: N_3  and  N_4 
REMARK       I    between atoms: N_4  and  C_5 
REMARK    3  A    between atoms: C_5  and  C_6 
REMARK       I    between atoms: C_6  and  N_7 
REMARK    4  A    between atoms: N_7  and  C_8 
REMARK    5  A    between atoms: C_8  and  C_9 
REMARK    6  A    between atoms: C_17  and  C_18 
REMARK       I    between atoms: C_18  and  N_19 
REMARK    7  A    between atoms: N_19  and  C_20 
REMARK    8  A    between atoms: C_21  and  O_22 
ROOT
HETATM    1  N   UNL     1      25.211  46.993  51.038  1.00  0.00    -0.302 N 
HETATM    2  H   UNL     1      25.193  47.215  52.041  1.00  0.00     0.186 HD
ENDROOT
BRANCH   1   3
HETATM    3  C   UNL     1      26.092  45.984  50.687  1.00  0.00     0.027 C 
HETATM    4  C   UNL     1      27.042  46.377  49.571  1.00  0.00     0.070 C 
HETATM    5  C   UNL     1      26.185  44.726  51.165  1.00  0.00     0.100 C 
BRANCH   5   6
HETATM    6  C   UNL     1      25.315  44.058  52.174  1.00  0.00     0.247 C 
HETATM    7  N   UNL     1      25.838  43.791  53.409  1.00  0.00    -0.321 N 
HETATM    8  H   UNL     1      25.320  43.068  53.898  1.00  0.00     0.169 HD
HETATM    9  O   UNL     1      24.200  43.619  51.897  1.00  0.00    -0.268 OA
BRANCH   7  10
HETATM   10  C   UNL     1      26.937  44.314  54.113  1.00  0.00     0.070 A 
HETATM   11  C   UNL     1      26.867  45.651  54.541  1.00  0.00     0.095 A 
HETATM   12  C   UNL     1      27.951  46.267  55.169  1.00  0.00     0.041 A 
HETATM   13  C   UNL     1      29.117  45.539  55.396  1.00  0.00     0.026 A 
HETATM   14  C   UNL     1      29.196  44.214  54.972  1.00  0.00     0.036 A 
HETATM   15 CL   UNL     1      30.650  43.327  55.228  1.00  0.00    -0.084 Cl
HETATM   16  C   UNL     1      28.119  43.601  54.325  1.00  0.00     0.056 A 
BRANCH  11  17
HETATM   17  O   UNL     1      25.739  46.409  54.346  1.00  0.00    -0.354 OA
HETATM   18  C   UNL     1      26.022  47.801  54.521  1.00  0.00     0.210 C 
ENDBRANCH  11  17
ENDBRANCH   7  10
ENDBRANCH   5   6
ENDBRANCH   1   3
BRANCH   1  19
HETATM   19  N   UNL     1      23.952  47.148  50.452  1.00  0.00    -0.262 N 
HETATM   20  C   UNL     1      23.789  48.199  49.573  1.00  0.00     0.327 C 
HETATM   21  O   UNL     1      24.580  49.125  49.415  1.00  0.00    -0.261 OA
HETATM   22  H   UNL     1      23.378  46.302  50.349  1.00  0.00     0.190 HD
BRANCH  20  23
HETATM   23  C   UNL     1      22.494  48.137  48.740  1.00  0.00     0.311 C 
HETATM   24  N   UNL     1      21.357  48.358  49.483  1.00  0.00    -0.349 N 
HETATM   25  H   UNL     1      21.477  48.609  50.461  1.00  0.00     0.163 HD
HETATM   26  O   UNL     1      22.524  47.914  47.540  1.00  0.00    -0.262 OA
BRANCH  24  27
HETATM   27  C   UNL     1      20.055  48.409  48.875  1.00  0.00     0.161 C 
BRANCH  27  28
HETATM   28  C   UNL     1      19.547  49.823  48.796  1.00  0.00    -0.041 A 
HETATM   29  C   UNL     1      19.256  50.414  47.559  1.00  0.00     0.009 A 
HETATM   30  C   UNL     1      18.794  51.730  47.494  1.00  0.00     0.001 A 
HETATM   31  C   UNL     1      18.627  52.471  48.662  1.00  0.00     0.000 A 
HETATM   32  C   UNL     1      18.920  51.898  49.898  1.00  0.00     0.001 A 
HETATM   33  C   UNL     1      19.378  50.581  49.965  1.00  0.00     0.009 A 
ENDBRANCH  27  28
ENDBRANCH  24  27
ENDBRANCH  20  23
ENDBRANCH   1  19
TORSDOF 8
ENDMDL
MODEL 3
REMARK VINA RESULT:      -9.0      2.094      2.815
REMARK  8 active torsions:
REMARK  status: ('A' for Active; 'I' for Inactive)
REMARK    1  A    between atoms: C_2  and  N_3 
REMARK    2  A    between atoms: N_3  and  N_4 
REMARK       I    between atoms: N_4  and  C_5 
REMARK    3  A    between atoms: C_5  and  C_6 
REMARK       I    between atoms: C_6  and  N_7 
REMARK    4  A    between atoms: N_7  and  C_8 
REMARK    5  A    between atoms: C_8  and  C_9 
REMARK    6  A    between atoms: C_17  and  C_18 
REMARK       I    between atoms: C_18  and  N_19 
REMARK    7  A    between atoms: N_19  and  C_20 
REMARK    8  A    between atoms: C_21  and  O_22 
ROOT
HETATM    1  N   UNL     1      24.952  46.153  50.537  1.00  0.00    -0.302 N 
HETATM    2  H   UNL     1      25.530  46.991  50.678  1.00  0.00     0.186 HD
ENDROOT
BRANCH   1   3
HETATM    3  C   UNL     1      25.096  45.184  51.514  1.00  0.00     0.027 C 
HETATM    4  C   UNL     1      24.534  43.834  51.108  1.00  0.00     0.070 C 
HETATM    5  C   UNL     1      25.617  45.291  52.754  1.00  0.00     0.100 C 
BRANCH   5   6
HETATM    6  C   UNL     1      26.133  46.512  53.433  1.00  0.00     0.247 C 
HETATM    7  N   UNL     1      27.164  46.377  54.320  1.00  0.00    -0.321 N 
HETATM    8  H   UNL     1      27.228  47.163  54.960  1.00  0.00     0.169 HD
HETATM    9  O   UNL     1      25.582  47.607  53.331  1.00  0.00    -0.268 OA
BRANCH   7  10
HETATM   10  C   UNL     1      28.131  45.374  54.513  1.00  0.00     0.070 A 
HETATM   11  C   UNL     1      29.008  45.507  55.603  1.00  0.00     0.095 A 
HETATM   12  C   UNL     1      30.048  44.600  55.810  1.00  0.00     0.041 A 
HETATM   13  C   UNL     1      30.209  43.529  54.935  1.00  0.00     0.026 A 
HETATM   14  C   UNL     1      29.347  43.390  53.849  1.00  0.00     0.036 A 
HETATM   15 CL   UNL     1      29.568  42.082  52.752  1.00  0.00    -0.084 Cl
HETATM   16  C   UNL     1      28.316  44.309  53.628  1.00  0.00     0.056 A 
BRANCH  11  17
HETATM   17  O   UNL     1      28.888  46.542  56.499  1.00  0.00    -0.354 OA
HETATM   18  C   UNL     1      28.851  46.053  57.843  1.00  0.00     0.210 C 
ENDBRANCH  11  17
ENDBRANCH   7  10
ENDBRANCH   5   6
ENDBRANCH   1   3
BRANCH   1  19
HETATM   19  N   UNL     1      23.727  46.465  49.942  1.00  0.00    -0.262 N 
HETATM   20  C   UNL     1      23.533  47.771  49.542  1.00  0.00     0.327 C 
HETATM   21  O   UNL     1      24.249  48.722  49.843  1.00  0.00    -0.261 OA
HETATM   22  H   UNL     1      23.237  45.704  49.455  1.00  0.00     0.190 HD
BRANCH  20  23
HETATM   23  C   UNL     1      22.307  47.982  48.632  1.00  0.00     0.311 C 
HETATM   24  N   UNL     1      21.120  48.054  49.323  1.00  0.00    -0.349 N 
HETATM   25  H   UNL     1      21.168  48.038  50.339  1.00  0.00     0.163 HD
HETATM   26  O   UNL     1      22.428  48.076  47.420  1.00  0.00    -0.262 OA
BRANCH  24  27
HETATM   27  C   UNL     1      19.872  48.317  48.658  1.00  0.00     0.161 C 
BRANCH  27  28
HETATM   28  C   UNL     1      19.420  49.733  48.891  1.00  0.00    -0.041 A 
HETATM   29  C   UNL     1      18.304  50.007  49.692  1.00  0.00     0.009 A 
HETATM   30  C   UNL     1      17.885  51.324  49.894  1.00  0.00     0.001 A 
HETATM   31  C   UNL     1      18.571  52.377  49.293  1.00  0.00     0.000 A 
HETATM   32  C   UNL     1      19.677  52.116  48.487  1.00  0.00     0.001 A 
HETATM   33  C   UNL     1      20.100  50.801  48.286  1.00  0.00     0.009 A 
ENDBRANCH  27  28
ENDBRANCH  24  27
ENDBRANCH  20  23
ENDBRANCH   1  19
TORSDOF 8
ENDMDL
MODEL 4
REMARK VINA RESULT:      -8.7      2.019      3.054
REMARK  8 active torsions:
REMARK  status: ('A' for Active; 'I' for Inactive)
REMARK    1  A    between atoms: C_2  and  N_3 
REMARK    2  A    between atoms: N_3  and  N_4 
REMARK       I    between atoms: N_4  and  C_5 
REMARK    3  A    between atoms: C_5  and  C_6 
REMARK       I    between atoms: C_6  and  N_7 
REMARK    4  A    between atoms: N_7  and  C_8 
REMARK    5  A    between atoms: C_8  and  C_9 
REMARK    6  A    between atoms: C_17  and  C_18 
REMARK       I    between atoms: C_18  and  N_19 
REMARK    7  A    between atoms: N_19  and  C_20 
REMARK    8  A    between atoms: C_21  and  O_22 
ROOT
HETATM    1  N   UNL     1      24.117  47.067  49.546  1.00  0.00    -0.302 N 
HETATM    2  H   UNL     1      24.142  46.888  48.534  1.00  0.00     0.186 HD
ENDROOT
BRANCH   1   3
HETATM    3  C   UNL     1      25.346  46.975  50.176  1.00  0.00     0.027 C 
HETATM    4  C   UNL     1      26.380  47.937  49.619  1.00  0.00     0.070 C 
HETATM    5  C   UNL     1      25.743  46.142  51.160  1.00  0.00     0.100 C 
BRANCH   5   6
HETATM    6  C   UNL     1      24.969  45.044  51.803  1.00  0.00     0.247 C 
HETATM    7  N   UNL     1      25.603  44.252  52.720  1.00  0.00    -0.321 N 
HETATM    8  H   UNL     1      25.131  43.362  52.852  1.00  0.00     0.169 HD
HETATM    9  O   UNL     1      23.833  44.739  51.444  1.00  0.00    -0.268 OA
BRANCH   7  10
HETATM   10  C   UNL     1      26.763  44.430  53.495  1.00  0.00     0.070 A 
HETATM   11  C   UNL     1      26.789  45.504  54.401  1.00  0.00     0.095 A 
HETATM   12  C   UNL     1      27.934  45.798  55.141  1.00  0.00     0.041 A 
HETATM   13  C   UNL     1      29.068  45.000  54.999  1.00  0.00     0.026 A 
HETATM   14  C   UNL     1      29.052  43.934  54.101  1.00  0.00     0.036 A 
HETATM   15 CL   UNL     1      30.463  42.969  53.905  1.00  0.00    -0.084 Cl
HETATM   16  C   UNL     1      27.911  43.650  53.343  1.00  0.00     0.056 A 
BRANCH  11  17
HETATM   17  O   UNL     1      25.697  46.317  54.583  1.00  0.00    -0.354 OA
HETATM   18  C   UNL     1      26.080  47.695  54.584  1.00  0.00     0.210 C 
ENDBRANCH  11  17
ENDBRANCH   7  10
ENDBRANCH   5   6
ENDBRANCH   1   3
BRANCH   1  19
HETATM   19  N   UNL     1      23.156  48.025  49.877  1.00  0.00    -0.262 N 
HETATM   20  C   UNL     1      22.691  48.832  48.859  1.00  0.00     0.327 C 
HETATM   21  O   UNL     1      23.187  48.924  47.740  1.00  0.00    -0.261 OA
HETATM   22  H   UNL     1      22.553  47.821  50.684  1.00  0.00     0.190 HD
BRANCH  20  23
HETATM   23  C   UNL     1      21.433  49.646  49.218  1.00  0.00     0.311 C 
HETATM   24  N   UNL     1      20.441  48.890  49.799  1.00  0.00    -0.349 N 
HETATM   25  H   UNL     1      20.652  47.916  50.001  1.00  0.00     0.163 HD
HETATM   26  O   UNL     1      21.370  50.845  48.993  1.00  0.00    -0.262 OA
BRANCH  24  27
HETATM   27  C   UNL     1      19.216  49.480  50.268  1.00  0.00     0.161 C 
BRANCH  27  28
HETATM   28  C   UNL     1      18.050  49.063  49.414  1.00  0.00    -0.041 A 
HETATM   29  C   UNL     1      17.652  47.721  49.350  1.00  0.00     0.009 A 
HETATM   30  C   UNL     1      16.575  47.340  48.546  1.00  0.00     0.001 A 
HETATM   31  C   UNL     1      15.891  48.294  47.795  1.00  0.00     0.000 A 
HETATM   32  C   UNL     1      16.283  49.631  47.844  1.00  0.00     0.001 A 
HETATM   33  C   UNL     1      17.357  50.013  48.648  1.00  0.00     0.009 A 
ENDBRANCH  27  28
ENDBRANCH  24  27
ENDBRANCH  20  23
ENDBRANCH   1  19
TORSDOF 8
ENDMDL
MODEL 5
REMARK VINA RESULT:      -8.7      3.745     10.863
REMARK  8 active torsions:
REMARK  status: ('A' for Active; 'I' for Inactive)
REMARK    1  A    between atoms: C_2  and  N_3 
REMARK    2  A    between atoms: N_3  and  N_4 
REMARK       I    between atoms: N_4  and  C_5 
REMARK    3  A    between atoms: C_5  and  C_6 
REMARK       I    between atoms: C_6  and  N_7 
REMARK    4  A    between atoms: N_7  and  C_8 
REMARK    5  A    between atoms: C_8  and  C_9 
REMARK    6  A    between atoms: C_17  and  C_18 
REMARK       I    between atoms: C_18  and  N_19 
REMARK    7  A    between atoms: N_19  and  C_20 
REMARK    8  A    between atoms: C_21  and  O_22 
ROOT
HETATM    1  N   UNL     1      23.568  48.269  50.081  1.00  0.00    -0.302 N 
HETATM    2  H   UNL     1      24.088  48.950  50.648  1.00  0.00     0.186 HD
ENDROOT
BRANCH   1   3
HETATM    3  C   UNL     1      23.297  48.685  48.789  1.00  0.00     0.027 C 
HETATM    4  C   UNL     1      24.373  49.585  48.209  1.00  0.00     0.070 C 
HETATM    5  C   UNL     1      22.218  48.435  48.018  1.00  0.00     0.100 C 
BRANCH   5   6
HETATM    6  C   UNL     1      20.986  47.679  48.378  1.00  0.00     0.247 C 
HETATM    7  N   UNL     1      19.835  48.381  48.604  1.00  0.00    -0.321 N 
HETATM    8  H   UNL     1      19.160  47.851  49.148  1.00  0.00     0.169 HD
HETATM    9  O   UNL     1      20.997  46.471  48.611  1.00  0.00    -0.268 OA
BRANCH   7  10
HETATM   10  C   UNL     1      19.418  49.674  48.238  1.00  0.00     0.070 A 
HETATM   11  C   UNL     1      19.479  50.684  49.212  1.00  0.00     0.095 A 
HETATM   12  C   UNL     1      19.004  51.970  48.952  1.00  0.00     0.041 A 
HETATM   13  C   UNL     1      18.477  52.266  47.696  1.00  0.00     0.026 A 
HETATM   14  C   UNL     1      18.410  51.269  46.725  1.00  0.00     0.036 A 
HETATM   15 CL   UNL     1      17.731  51.631  45.184  1.00  0.00    -0.084 Cl
HETATM   16  C   UNL     1      18.868  49.975  46.990  1.00  0.00     0.056 A 
BRANCH  11  17
HETATM   17  O   UNL     1      19.994  50.446  50.463  1.00  0.00    -0.354 OA
HETATM   18  C   UNL     1      21.289  51.037  50.604  1.00  0.00     0.210 C 
ENDBRANCH  11  17
ENDBRANCH   7  10
ENDBRANCH   5   6
ENDBRANCH   1   3
BRANCH   1  19
HETATM   19  N   UNL     1      23.913  46.955  50.406  1.00  0.00    -0.262 N 
HETATM   20  C   UNL     1      25.027  46.772  51.199  1.00  0.00     0.327 C 
HETATM   21  O   UNL     1      25.855  47.636  51.474  1.00  0.00    -0.261 OA
HETATM   22  H   UNL     1      23.152  46.264  50.427  1.00  0.00     0.190 HD
BRANCH  20  23
HETATM   23  C   UNL     1      25.177  45.348  51.768  1.00  0.00     0.311 C 
HETATM   24  N   UNL     1      26.467  45.037  52.127  1.00  0.00    -0.349 N 
HETATM   25  H   UNL     1      27.164  45.775  52.059  1.00  0.00     0.163 HD
HETATM   26  O   UNL     1      24.213  44.605  51.874  1.00  0.00    -0.262 OA
BRANCH  24  27
HETATM   27  C   UNL     1      26.800  43.780  52.742  1.00  0.00     0.161 C 
BRANCH  27  28
HETATM   28  C   UNL     1      27.975  43.922  53.670  1.00  0.00    -0.041 A 
HETATM   29  C   UNL     1      29.008  42.976  53.670  1.00  0.00     0.009 A 
HETATM   30  C   UNL     1      30.091  43.109  54.542  1.00  0.00     0.001 A 
HETATM   31  C   UNL     1      30.148  44.185  55.426  1.00  0.00     0.000 A 
HETATM   32  C   UNL     1      29.123  45.128  55.441  1.00  0.00     0.001 A 
HETATM   33  C   UNL     1      28.042  44.998  54.569  1.00  0.00     0.009 A 
ENDBRANCH  27  28
ENDBRANCH  24  27
ENDBRANCH  20  23
ENDBRANCH   1  19
TORSDOF 8
ENDMDL
MODEL 6
REMARK VINA RESULT:      -8.6      3.927     10.942
REMARK  8 active torsions:
REMARK  status: ('A' for Active; 'I' for Inactive)
REMARK    1  A    between atoms: C_2  and  N_3 
REMARK    2  A    between atoms: N_3  and  N_4 
REMARK       I    between atoms: N_4  and  C_5 
REMARK    3  A    between atoms: C_5  and  C_6 
REMARK       I    between atoms: C_6  and  N_7 
REMARK    4  A    between atoms: N_7  and  C_8 
REMARK    5  A    between atoms: C_8  and  C_9 
REMARK    6  A    between atoms: C_17  and  C_18 
REMARK       I    between atoms: C_18  and  N_19 
REMARK    7  A    between atoms: N_19  and  C_20 
REMARK    8  A    between atoms: C_21  and  O_22 
ROOT
HETATM    1  N   UNL     1      23.382  47.932  49.907  1.00  0.00    -0.302 N 
HETATM    2  H   UNL     1      23.799  48.755  50.360  1.00  0.00     0.186 HD
ENDROOT
BRANCH   1   3
HETATM    3  C   UNL     1      22.402  48.225  48.974  1.00  0.00     0.027 C 
HETATM    4  C   UNL     1      22.257  47.162  47.901  1.00  0.00     0.070 C 
HETATM    5  C   UNL     1      21.615  49.316  48.874  1.00  0.00     0.100 C 
BRANCH   5   6
HETATM    6  C   UNL     1      21.627  50.540  49.723  1.00  0.00     0.247 C 
HETATM    7  N   UNL     1      20.618  51.450  49.569  1.00  0.00    -0.321 N 
HETATM    8  H   UNL     1      20.870  52.368  49.922  1.00  0.00     0.169 HD
HETATM    9  O   UNL     1      22.575  50.827  50.454  1.00  0.00    -0.268 OA
BRANCH   7  10
HETATM   10  C   UNL     1      19.327  51.358  49.020  1.00  0.00     0.070 A 
HETATM   11  C   UNL     1      18.377  50.579  49.703  1.00  0.00     0.095 A 
HETATM   12  C   UNL     1      17.102  50.369  49.178  1.00  0.00     0.041 A 
HETATM   13  C   UNL     1      16.752  50.959  47.965  1.00  0.00     0.026 A 
HETATM   14  C   UNL     1      17.689  51.730  47.279  1.00  0.00     0.036 A 
HETATM   15 CL   UNL     1      17.264  52.432  45.765  1.00  0.00    -0.084 Cl
HETATM   16  C   UNL     1      18.975  51.925  47.793  1.00  0.00     0.056 A 
BRANCH  11  17
HETATM   17  O   UNL     1      18.669  49.982  50.905  1.00  0.00    -0.354 OA
HETATM   18  C   UNL     1      18.668  48.556  50.780  1.00  0.00     0.210 C 
ENDBRANCH  11  17
ENDBRANCH   7  10
ENDBRANCH   5   6
ENDBRANCH   1   3
BRANCH   1  19
HETATM   19  N   UNL     1      24.315  46.905  49.741  1.00  0.00    -0.262 N 
HETATM   20  C   UNL     1      25.649  47.239  49.858  1.00  0.00     0.327 C 
HETATM   21  O   UNL     1      26.098  48.381  49.891  1.00  0.00    -0.261 OA
HETATM   22  H   UNL     1      24.005  45.952  49.966  1.00  0.00     0.190 HD
BRANCH  20  23
HETATM   23  C   UNL     1      26.598  46.030  49.969  1.00  0.00     0.311 C 
HETATM   24  N   UNL     1      26.165  45.076  50.859  1.00  0.00    -0.349 N 
HETATM   25  H   UNL     1      25.254  45.215  51.289  1.00  0.00     0.163 HD
HETATM   26  O   UNL     1      27.623  45.968  49.306  1.00  0.00    -0.262 OA
BRANCH  24  27
HETATM   27  C   UNL     1      26.878  43.841  51.052  1.00  0.00     0.161 C 
BRANCH  27  28
HETATM   28  C   UNL     1      27.735  43.897  52.288  1.00  0.00    -0.041 A 
HETATM   29  C   UNL     1      28.971  43.237  52.333  1.00  0.00     0.009 A 
HETATM   30  C   UNL     1      29.756  43.284  53.488  1.00  0.00     0.001 A 
HETATM   31  C   UNL     1      29.312  43.984  54.607  1.00  0.00     0.000 A 
HETATM   32  C   UNL     1      28.081  44.638  54.577  1.00  0.00     0.001 A 
HETATM   33  C   UNL     1      27.297  44.594  53.423  1.00  0.00     0.009 A 
ENDBRANCH  27  28
ENDBRANCH  24  27
ENDBRANCH  20  23
ENDBRANCH   1  19
TORSDOF 8
ENDMDL
MODEL 7
REMARK VINA RESULT:      -8.5      1.519      2.080
REMARK  8 active torsions:
REMARK  status: ('A' for Active; 'I' for Inactive)
REMARK    1  A    between atoms: C_2  and  N_3 
REMARK    2  A    between atoms: N_3  and  N_4 
REMARK       I    between atoms: N_4  and  C_5 
REMARK    3  A    between atoms: C_5  and  C_6 
REMARK       I    between atoms: C_6  and  N_7 
REMARK    4  A    between atoms: N_7  and  C_8 
REMARK    5  A    between atoms: C_8  and  C_9 
REMARK    6  A    between atoms: C_17  and  C_18 
REMARK       I    between atoms: C_18  and  N_19 
REMARK    7  A    between atoms: N_19  and  C_20 
REMARK    8  A    between atoms: C_21  and  O_22 
ROOT
HETATM    1  N   UNL     1      24.211  46.684  49.755  1.00  0.00    -0.302 N 
HETATM    2  H   UNL     1      24.178  46.341  48.787  1.00  0.00     0.186 HD
ENDROOT
BRANCH   1   3
HETATM    3  C   UNL     1      25.450  46.575  50.362  1.00  0.00     0.027 C 
HETATM    4  C   UNL     1      26.480  47.540  49.804  1.00  0.00     0.070 C 
HETATM    5  C   UNL     1      25.858  45.723  51.325  1.00  0.00     0.100 C 
BRANCH   5   6
HETATM    6  C   UNL     1      25.089  44.618  51.963  1.00  0.00     0.247 C 
HETATM    7  N   UNL     1      25.771  43.690  52.698  1.00  0.00    -0.321 N 
HETATM    8  H   UNL     1      25.248  42.826  52.810  1.00  0.00     0.169 HD
HETATM    9  O   UNL     1      23.893  44.434  51.742  1.00  0.00    -0.268 OA
BRANCH   7  10
HETATM   10  C   UNL     1      27.036  43.701  53.313  1.00  0.00     0.070 A 
HETATM   11  C   UNL     1      27.848  42.563  53.167  1.00  0.00     0.095 A 
HETATM   12  C   UNL     1      29.078  42.465  53.818  1.00  0.00     0.041 A 
HETATM   13  C   UNL     1      29.523  43.521  54.610  1.00  0.00     0.026 A 
HETATM   14  C   UNL     1      28.724  44.652  54.762  1.00  0.00     0.036 A 
HETATM   15 CL   UNL     1      29.263  45.944  55.765  1.00  0.00    -0.084 Cl
HETATM   16  C   UNL     1      27.481  44.745  54.127  1.00  0.00     0.056 A 
BRANCH  11  17
HETATM   17  O   UNL     1      27.458  41.498  52.394  1.00  0.00    -0.354 OA
HETATM   18  C   UNL     1      28.213  41.444  51.180  1.00  0.00     0.210 C 
ENDBRANCH  11  17
ENDBRANCH   7  10
ENDBRANCH   5   6
ENDBRANCH   1   3
BRANCH   1  19
HETATM   19  N   UNL     1      23.358  47.775  49.945  1.00  0.00    -0.262 N 
HETATM   20  C   UNL     1      22.607  48.186  48.863  1.00  0.00     0.327 C 
HETATM   21  O   UNL     1      22.767  47.816  47.704  1.00  0.00    -0.261 OA
HETATM   22  H   UNL     1      23.011  47.935  50.899  1.00  0.00     0.190 HD
BRANCH  20  23
HETATM   23  C   UNL     1      21.481  49.178  49.211  1.00  0.00     0.311 C 
HETATM   24  N   UNL     1      20.394  48.582  49.807  1.00  0.00    -0.349 N 
HETATM   25  H   UNL     1      20.463  47.591  50.024  1.00  0.00     0.163 HD
HETATM   26  O   UNL     1      21.591  50.370  48.967  1.00  0.00    -0.262 OA
BRANCH  24  27
HETATM   27  C   UNL     1      19.269  49.350  50.269  1.00  0.00     0.161 C 
BRANCH  27  28
HETATM   28  C   UNL     1      18.054  49.100  49.418  1.00  0.00    -0.041 A 
HETATM   29  C   UNL     1      17.381  50.161  48.798  1.00  0.00     0.009 A 
HETATM   30  C   UNL     1      16.247  49.921  48.018  1.00  0.00     0.001 A 
HETATM   31  C   UNL     1      15.772  48.622  47.857  1.00  0.00     0.000 A 
HETATM   32  C   UNL     1      16.427  47.559  48.475  1.00  0.00     0.001 A 
HETATM   33  C   UNL     1      17.562  47.796  49.252  1.00  0.00     0.009 A 
ENDBRANCH  27  28
ENDBRANCH  24  27
ENDBRANCH  20  23
ENDBRANCH   1  19
TORSDOF 8
ENDMDL
MODEL 8
REMARK VINA RESULT:      -8.5      2.259      2.943
REMARK  8 active torsions:
REMARK  status: ('A' for Active; 'I' for Inactive)
REMARK    1  A    between atoms: C_2  and  N_3 
REMARK    2  A    between atoms: N_3  and  N_4 
REMARK       I    between atoms: N_4  and  C_5 
REMARK    3  A    between atoms: C_5  and  C_6 
REMARK       I    between atoms: C_6  and  N_7 
REMARK    4  A    between atoms: N_7  and  C_8 
REMARK    5  A    between atoms: C_8  and  C_9 
REMARK    6  A    between atoms: C_17  and  C_18 
REMARK       I    between atoms: C_18  and  N_19 
REMARK    7  A    between atoms: N_19  and  C_20 
REMARK    8  A    between atoms: C_21  and  O_22 
ROOT
HETATM    1  N   UNL     1      25.037  46.268  49.871  1.00  0.00    -0.302 N 
HETATM    2  H   UNL     1      26.044  46.472  49.848  1.00  0.00     0.186 HD
ENDROOT
BRANCH   1   3
HETATM    3  C   UNL     1      24.638  45.458  50.920  1.00  0.00     0.027 C 
HETATM    4  C   UNL     1      23.687  44.354  50.497  1.00  0.00     0.070 C 
HETATM    5  C   UNL     1      24.942  45.545  52.231  1.00  0.00     0.100 C 
BRANCH   5   6
HETATM    6  C   UNL     1      25.756  46.585  52.920  1.00  0.00     0.247 C 
HETATM    7  N   UNL     1      26.826  46.182  53.670  1.00  0.00    -0.321 N 
HETATM    8  H   UNL     1      27.110  46.885  54.346  1.00  0.00     0.169 HD
HETATM    9  O   UNL     1      25.426  47.769  52.951  1.00  0.00    -0.268 OA
BRANCH   7  10
HETATM   10  C   UNL     1      27.590  45.001  53.686  1.00  0.00     0.070 A 
HETATM   11  C   UNL     1      28.493  44.817  54.747  1.00  0.00     0.095 A 
HETATM   12  C   UNL     1      29.346  43.714  54.786  1.00  0.00     0.041 A 
HETATM   13  C   UNL     1      29.289  42.764  53.769  1.00  0.00     0.026 A 
HETATM   14  C   UNL     1      28.399  42.940  52.711  1.00  0.00     0.036 A 
HETATM   15 CL   UNL     1      28.352  41.780  51.440  1.00  0.00    -0.084 Cl
HETATM   16  C   UNL     1      27.556  44.055  52.659  1.00  0.00     0.056 A 
BRANCH  11  17
HETATM   17  O   UNL     1      28.584  45.720  55.777  1.00  0.00    -0.354 OA
HETATM   18  C   UNL     1      29.890  45.700  56.361  1.00  0.00     0.210 C 
ENDBRANCH  11  17
ENDBRANCH   7  10
ENDBRANCH   5   6
ENDBRANCH   1   3
BRANCH   1  19
HETATM   19  N   UNL     1      24.281  47.347  49.406  1.00  0.00    -0.262 N 
HETATM   20  C   UNL     1      24.933  48.554  49.248  1.00  0.00     0.327 C 
HETATM   21  O   UNL     1      26.055  48.817  49.669  1.00  0.00    -0.261 OA
HETATM   22  H   UNL     1      23.464  47.128  48.822  1.00  0.00     0.190 HD
BRANCH  20  23
HETATM   23  C   UNL     1      24.136  49.607  48.455  1.00  0.00     0.311 C 
HETATM   24  N   UNL     1      22.967  49.986  49.074  1.00  0.00    -0.349 N 
HETATM   25  H   UNL     1      22.781  49.606  49.999  1.00  0.00     0.163 HD
HETATM   26  O   UNL     1      24.545  50.039  47.388  1.00  0.00    -0.262 OA
BRANCH  24  27
HETATM   27  C   UNL     1      22.118  51.009  48.525  1.00  0.00     0.161 C 
BRANCH  27  28
HETATM   28  C   UNL     1      20.720  50.907  49.073  1.00  0.00    -0.041 A 
HETATM   29  C   UNL     1      20.305  49.765  49.771  1.00  0.00     0.009 A 
HETATM   30  C   UNL     1      19.002  49.674  50.267  1.00  0.00     0.001 A 
HETATM   31  C   UNL     1      18.102  50.718  50.064  1.00  0.00     0.000 A 
HETATM   32  C   UNL     1      18.501  51.855  49.364  1.00  0.00     0.001 A 
HETATM   33  C   UNL     1      19.802  51.949  48.871  1.00  0.00     0.009 A 
ENDBRANCH  27  28
ENDBRANCH  24  27
ENDBRANCH  20  23
ENDBRANCH   1  19
TORSDOF 8
ENDMDL
MODEL 9
REMARK VINA RESULT:      -8.3      2.340      3.110
REMARK  8 active torsions:
REMARK  status: ('A' for Active; 'I' for Inactive)
REMARK    1  A    between atoms: C_2  and  N_3 
REMARK    2  A    between atoms: N_3  and  N_4 
REMARK       I    between atoms: N_4  and  C_5 
REMARK    3  A    between atoms: C_5  and  C_6 
REMARK       I    between atoms: C_6  and  N_7 
REMARK    4  A    between atoms: N_7  and  C_8 
REMARK    5  A    between atoms: C_8  and  C_9 
REMARK    6  A    between atoms: C_17  and  C_18 
REMARK       I    between atoms: C_18  and  N_19 
REMARK    7  A    between atoms: N_19  and  C_20 
REMARK    8  A    between atoms: C_21  and  O_22 
ROOT
HETATM    1  N   UNL     1      23.865  45.425  50.618  1.00  0.00    -0.302 N 
HETATM    2  H   UNL     1      23.179  45.296  51.373  1.00  0.00     0.186 HD
ENDROOT
BRANCH   1   3
HETATM    3  C   UNL     1      24.342  44.248  50.068  1.00  0.00     0.027 C 
HETATM    4  C   UNL     1      23.270  43.188  49.893  1.00  0.00     0.070 C 
HETATM    5  C   UNL     1      25.603  43.918  49.717  1.00  0.00     0.100 C 
BRANCH   5   6
HETATM    6  C   UNL     1      26.844  44.723  49.882  1.00  0.00     0.247 C 
HETATM    7  N   UNL     1      27.660  44.452  50.945  1.00  0.00    -0.321 N 
HETATM    8  H   UNL     1      28.276  45.229  51.167  1.00  0.00     0.169 HD
HETATM    9  O   UNL     1      27.093  45.705  49.182  1.00  0.00    -0.268 OA
BRANCH   7  10
HETATM   10  C   UNL     1      27.801  43.327  51.777  1.00  0.00     0.070 A 
HETATM   11  C   UNL     1      27.474  43.470  53.136  1.00  0.00     0.095 A 
HETATM   12  C   UNL     1      27.670  42.425  54.040  1.00  0.00     0.041 A 
HETATM   13  C   UNL     1      28.177  41.209  53.586  1.00  0.00     0.026 A 
HETATM   14  C   UNL     1      28.506  41.060  52.241  1.00  0.00     0.036 A 
HETATM   15 CL   UNL     1      29.160  39.566  51.688  1.00  0.00    -0.084 Cl
HETATM   16  C   UNL     1      28.330  42.112  51.336  1.00  0.00     0.056 A 
BRANCH  11  17
HETATM   17  O   UNL     1      26.966  44.645  53.633  1.00  0.00    -0.354 OA
HETATM   18  C   UNL     1      25.545  44.566  53.781  1.00  0.00     0.210 C 
ENDBRANCH  11  17
ENDBRANCH   7  10
ENDBRANCH   5   6
ENDBRANCH   1   3
BRANCH   1  19
HETATM   19  N   UNL     1      23.593  46.568  49.863  1.00  0.00    -0.262 N 
HETATM   20  C   UNL     1      24.391  47.673  50.080  1.00  0.00     0.327 C 
HETATM   21  O   UNL     1      25.178  47.811  51.012  1.00  0.00    -0.261 OA
HETATM   22  H   UNL     1      23.154  46.428  48.945  1.00  0.00     0.190 HD
BRANCH  20  23
HETATM   23  C   UNL     1      24.243  48.782  49.021  1.00  0.00     0.311 C 
HETATM   24  N   UNL     1      22.935  49.047  48.687  1.00  0.00    -0.349 N 
HETATM   25  H   UNL     1      22.211  48.558  49.207  1.00  0.00     0.163 HD
HETATM   26  O   UNL     1      25.222  49.346  48.555  1.00  0.00    -0.262 OA
BRANCH  24  27
HETATM   27  C   UNL     1      22.587  50.096  47.766  1.00  0.00     0.161 C 
BRANCH  27  28
HETATM   28  C   UNL     1      21.181  50.577  47.998  1.00  0.00    -0.041 A 
HETATM   29  C   UNL     1      20.172  50.325  47.059  1.00  0.00     0.009 A 
HETATM   30  C   UNL     1      18.871  50.785  47.276  1.00  0.00     0.001 A 
HETATM   31  C   UNL     1      18.568  51.506  48.429  1.00  0.00     0.000 A 
HETATM   32  C   UNL     1      19.564  51.770  49.367  1.00  0.00     0.001 A 
HETATM   33  C   UNL     1      20.864  51.309  49.153  1.00  0.00     0.009 A 
ENDBRANCH  27  28
ENDBRANCH  24  27
ENDBRANCH  20  23
ENDBRANCH   1  19
TORSDOF 8
ENDMDL
MODEL 10
REMARK VINA RESULT:      -8.1      1.920      3.136
REMARK  8 active torsions:
REMARK  status: ('A' for Active; 'I' for Inactive)
REMARK    1  A    between atoms: C_2  and  N_3 
REMARK    2  A    between atoms: N_3  and  N_4 
REMARK       I    between atoms: N_4  and  C_5 
REMARK    3  A    between atoms: C_5  and  C_6 
REMARK       I    between atoms: C_6  and  N_7 
REMARK    4  A    between atoms: N_7  and  C_8 
REMARK    5  A    between atoms: C_8  and  C_9 
REMARK    6  A    between atoms: C_17  and  C_18 
REMARK       I    between atoms: C_18  and  N_19 
REMARK    7  A    between atoms: N_19  and  C_20 
REMARK    8  A    between atoms: C_21  and  O_22 
ROOT
HETATM    1  N   UNL     1      25.171  47.249  51.040  1.00  0.00    -0.302 N 
HETATM    2  H   UNL     1      25.097  47.464  52.042  1.00  0.00     0.186 HD
ENDROOT
BRANCH   1   3
HETATM    3  C   UNL     1      26.091  46.262  50.731  1.00  0.00     0.027 C 
HETATM    4  C   UNL     1      27.001  46.631  49.574  1.00  0.00     0.070 C 
HETATM    5  C   UNL     1      26.251  45.039  51.279  1.00  0.00     0.100 C 
BRANCH   5   6
HETATM    6  C   UNL     1      25.432  44.394  52.342  1.00  0.00     0.247 C 
HETATM    7  N   UNL     1      26.077  43.704  53.331  1.00  0.00    -0.321 N 
HETATM    8  H   UNL     1      25.466  43.043  53.801  1.00  0.00     0.169 HD
HETATM    9  O   UNL     1      24.204  44.343  52.291  1.00  0.00    -0.268 OA
BRANCH   7  10
HETATM   10  C   UNL     1      27.400  43.731  53.807  1.00  0.00     0.070 A 
HETATM   11  C   UNL     1      28.244  42.661  53.465  1.00  0.00     0.095 A 
HETATM   12  C   UNL     1      29.542  42.574  53.969  1.00  0.00     0.041 A 
HETATM   13  C   UNL     1      30.021  43.576  54.811  1.00  0.00     0.026 A 
HETATM   14  C   UNL     1      29.190  44.639  55.158  1.00  0.00     0.036 A 
HETATM   15 CL   UNL     1      29.775  45.860  56.222  1.00  0.00    -0.084 Cl
HETATM   16  C   UNL     1      27.882  44.719  54.669  1.00  0.00     0.056 A 
BRANCH  11  17
HETATM   17  O   UNL     1      27.822  41.651  52.635  1.00  0.00    -0.354 OA
HETATM   18  C   UNL     1      28.850  40.672  52.457  1.00  0.00     0.210 C 
ENDBRANCH  11  17
ENDBRANCH   7  10
ENDBRANCH   5   6
ENDBRANCH   1   3
BRANCH   1  19
HETATM   19  N   UNL     1      23.940  47.379  50.392  1.00  0.00    -0.262 N 
HETATM   20  C   UNL     1      23.797  48.435  49.516  1.00  0.00     0.327 C 
HETATM   21  O   UNL     1      24.572  49.381  49.407  1.00  0.00    -0.261 OA
HETATM   22  H   UNL     1      23.393  46.520  50.252  1.00  0.00     0.190 HD
BRANCH  20  23
HETATM   23  C   UNL     1      22.548  48.350  48.617  1.00  0.00     0.311 C 
HETATM   24  N   UNL     1      21.461  47.789  49.246  1.00  0.00    -0.349 N 
HETATM   25  H   UNL     1      21.556  47.561  50.233  1.00  0.00     0.163 HD
HETATM   26  O   UNL     1      22.568  48.758  47.466  1.00  0.00    -0.262 OA
BRANCH  24  27
HETATM   27  C   UNL     1      20.181  47.685  48.597  1.00  0.00     0.161 C 
BRANCH  27  28
HETATM   28  C   UNL     1      20.182  46.587  47.568  1.00  0.00    -0.041 A 
HETATM   29  C   UNL     1      19.817  46.848  46.240  1.00  0.00     0.009 A 
HETATM   30  C   UNL     1      19.810  45.821  45.294  1.00  0.00     0.001 A 
HETATM   31  C   UNL     1      20.160  44.525  45.665  1.00  0.00     0.000 A 
HETATM   32  C   UNL     1      20.517  44.251  46.985  1.00  0.00     0.001 A 
HETATM   33  C   UNL     1      20.527  45.276  47.931  1.00  0.00     0.009 A 
ENDBRANCH  27  28
ENDBRANCH  24  27
ENDBRANCH  20  23
ENDBRANCH   1  19
TORSDOF 8
ENDMDL
