MODEL 1
REMARK VINA RESULT:      -9.2      0.000      0.000
REMARK  5 active torsions:
REMARK  status: ('A' for Active; 'I' for Inactive)
REMARK    1  A    between atoms: C_3  and  N_4 
REMARK       I    between atoms: N_4  and  C_5 
REMARK       I    between atoms: C_5  and  N_6 
REMARK    2  A    between atoms: N_6  and  C_7 
REMARK    3  A    between atoms: C_7  and  C_8 
REMARK    4  A    between atoms: C_10  and  N_11 
REMARK       I    between atoms: N_11  and  C_12 
REMARK    5  A    between atoms: C_12  and  C_13 
ROOT
HETATM    1  C   UNL     1      25.794  45.602  50.403  1.00  0.00    -0.038 A 
HETATM    2  C   UNL     1      24.555  46.268  50.425  1.00  0.00     0.038 A 
HETATM    3  C   UNL     1      24.435  47.583  49.969  1.00  0.00     0.035 A 
HETATM    4  C   UNL     1      25.576  48.241  49.495  1.00  0.00     0.029 A 
HETATM    5  C   UNL     1      26.814  47.596  49.478  1.00  0.00     0.003 A 
HETATM    6  C   UNL     1      26.924  46.284  49.934  1.00  0.00     0.009 A 
ENDROOT
BRANCH   1   7
HETATM    7  C   UNL     1      25.903  44.189  50.917  1.00  0.00     0.163 C 
BRANCH   7   8
HETATM    8  N   UNL     1      25.563  44.111  52.324  1.00  0.00    -0.339 N 
HETATM    9  C   UNL     1      26.349  44.131  53.435  1.00  0.00     0.321 C 
HETATM   10  N   UNL     1      27.650  44.497  53.248  1.00  0.00    -0.307 N 
HETATM   11  O   UNL     1      25.831  43.820  54.503  1.00  0.00    -0.247 OA
HETATM   12  H   UNL     1      27.858  44.949  52.376  1.00  0.00     0.170 HD
HETATM   13  H   UNL     1      24.616  43.823  52.539  1.00  0.00     0.164 HD
BRANCH  10  14
HETATM   14  C   UNL     1      28.691  44.486  54.208  1.00  0.00     0.059 A 
HETATM   15  C   UNL     1      29.616  43.424  54.207  1.00  0.00    -0.032 A 
HETATM   16  C   UNL     1      29.550  42.292  53.218  1.00  0.00     0.050 C 
HETATM   17  C   UNL     1      30.644  43.420  55.161  1.00  0.00     0.028 A 
HETATM   18  C   UNL     1      30.714  44.451  56.082  1.00  0.00     0.117 A 
HETATM   19  N   UNL     1      29.840  45.473  56.120  1.00  0.00    -0.271 NA
HETATM   20  C   UNL     1      28.854  45.469  55.186  1.00  0.00     0.146 A 
ENDBRANCH  10  14
ENDBRANCH   7   8
ENDBRANCH   1   7
BRANCH   3  21
HETATM   21  N   UNL     1      23.224  48.309  49.966  1.00  0.00    -0.323 N 
HETATM   22  C   UNL     1      22.368  48.509  48.898  1.00  0.00     0.256 C 
HETATM   23  O   UNL     1      22.541  48.146  47.740  1.00  0.00    -0.267 OA
HETATM   24  H   UNL     1      23.001  48.779  50.834  1.00  0.00     0.169 HD
BRANCH  22  25
HETATM   25  C   UNL     1      21.132  49.277  49.210  1.00  0.00     0.035 A 
HETATM   26  C   UNL     1      21.144  50.663  49.377  1.00  0.00     0.036 A 
HETATM   27  C   UNL     1      19.945  51.286  49.678  1.00  0.00     0.117 A 
HETATM   28  N   UNL     1      18.773  50.631  49.819  1.00  0.00    -0.273 NA
HETATM   29  C   UNL     1      18.796  49.289  49.673  1.00  0.00     0.117 A 
HETATM   30  C   UNL     1      19.940  48.572  49.375  1.00  0.00     0.036 A 
ENDBRANCH  22  25
ENDBRANCH   3  21
TORSDOF 5
ENDMDL
MODEL 2
REMARK VINA RESULT:      -9.1      1.569     10.217
REMARK  5 active torsions:
REMARK  status: ('A' for Active; 'I' for Inactive)
REMARK    1  A    between atoms: C_3  and  N_4 
REMARK       I    between atoms: N_4  and  C_5 
REMARK       I    between atoms: C_5  and  N_6 
REMARK    2  A    between atoms: N_6  and  C_7 
REMARK    3  A    between atoms: C_7  and  C_8 
REMARK    4  A    between atoms: C_10  and  N_11 
REMARK       I    between atoms: N_11  and  C_12 
REMARK    5  A    between atoms: C_12  and  C_13 
ROOT
HETATM    1  C   UNL     1      25.208  45.855  51.372  1.00  0.00    -0.038 A 
HETATM    2  C   UNL     1      26.178  45.865  52.391  1.00  0.00     0.038 A 
HETATM    3  C   UNL     1      26.606  44.678  52.990  1.00  0.00     0.035 A 
HETATM    4  C   UNL     1      26.045  43.467  52.568  1.00  0.00     0.029 A 
HETATM    5  C   UNL     1      25.073  43.444  51.566  1.00  0.00     0.003 A 
HETATM    6  C   UNL     1      24.653  44.632  50.974  1.00  0.00     0.009 A 
ENDROOT
BRANCH   1   7
HETATM    7  C   UNL     1      24.748  47.151  50.753  1.00  0.00     0.163 C 
BRANCH   7   8
HETATM    8  N   UNL     1      24.060  46.921  49.498  1.00  0.00    -0.339 N 
HETATM    9  C   UNL     1      22.965  47.521  48.957  1.00  0.00     0.321 C 
HETATM   10  N   UNL     1      22.545  48.670  49.561  1.00  0.00    -0.307 N 
HETATM   11  O   UNL     1      22.447  46.985  47.983  1.00  0.00    -0.247 OA
HETATM   12  H   UNL     1      23.203  49.105  50.182  1.00  0.00     0.170 HD
HETATM   13  H   UNL     1      24.306  46.072  49.004  1.00  0.00     0.164 HD
BRANCH  10  14
HETATM   14  C   UNL     1      21.378  49.416  49.270  1.00  0.00     0.059 A 
HETATM   15  C   UNL     1      21.506  50.705  48.715  1.00  0.00    -0.032 A 
HETATM   16  C   UNL     1      22.841  51.327  48.408  1.00  0.00     0.050 C 
HETATM   17  C   UNL     1      20.344  51.437  48.430  1.00  0.00     0.028 A 
HETATM   18  C   UNL     1      19.109  50.881  48.712  1.00  0.00     0.117 A 
HETATM   19  N   UNL     1      18.951  49.659  49.254  1.00  0.00    -0.271 NA
HETATM   20  C   UNL     1      20.083  48.958  49.518  1.00  0.00     0.146 A 
ENDBRANCH  10  14
ENDBRANCH   7   8
ENDBRANCH   1   7
BRANCH   3  21
HETATM   21  N   UNL     1      27.573  44.617  54.017  1.00  0.00    -0.323 N 
HETATM   22  C   UNL     1      28.876  44.163  53.918  1.00  0.00     0.256 C 
HETATM   23  O   UNL     1      29.408  43.667  52.932  1.00  0.00    -0.267 OA
HETATM   24  H   UNL     1      27.243  44.883  54.936  1.00  0.00     0.169 HD
BRANCH  22  25
HETATM   25  C   UNL     1      29.682  44.269  55.165  1.00  0.00     0.035 A 
HETATM   26  C   UNL     1      29.612  45.387  55.998  1.00  0.00     0.036 A 
HETATM   27  C   UNL     1      30.410  45.398  57.129  1.00  0.00     0.117 A 
HETATM   28  N   UNL     1      31.249  44.396  57.466  1.00  0.00    -0.273 NA
HETATM   29  C   UNL     1      31.312  43.338  56.630  1.00  0.00     0.117 A 
HETATM   30  C   UNL     1      30.559  43.229  55.476  1.00  0.00     0.036 A 
ENDBRANCH  22  25
ENDBRANCH   3  21
TORSDOF 5
ENDMDL
MODEL 3
REMARK VINA RESULT:      -9.0      2.265      9.666
REMARK  5 active torsions:
REMARK  status: ('A' for Active; 'I' for Inactive)
REMARK    1  A    between atoms: C_3  and  N_4 
REMARK       I    between atoms: N_4  and  C_5 
REMARK       I    between atoms: C_5  and  N_6 
REMARK    2  A    between atoms: N_6  and  C_7 
REMARK    3  A    between atoms: C_7  and  C_8 
REMARK    4  A    between atoms: C_10  and  N_11 
REMARK       I    between atoms: N_11  and  C_12 
REMARK    5  A    between atoms: C_12  and  C_13 
ROOT
HETATM    1  C   UNL     1      27.148  43.575  50.994  1.00  0.00    -0.038 A 
HETATM    2  C   UNL     1      27.824  43.930  52.176  1.00  0.00     0.038 A 
HETATM    3  C   UNL     1      28.673  43.027  52.820  1.00  0.00     0.035 A 
HETATM    4  C   UNL     1      28.837  41.748  52.277  1.00  0.00     0.029 A 
HETATM    5  C   UNL     1      28.163  41.378  51.112  1.00  0.00     0.003 A 
HETATM    6  C   UNL     1      27.319  42.285  50.475  1.00  0.00     0.009 A 
ENDROOT
BRANCH   1   7
HETATM    7  C   UNL     1      26.222  44.560  50.327  1.00  0.00     0.163 C 
BRANCH   7   8
HETATM    8  N   UNL     1      25.789  45.588  51.252  1.00  0.00    -0.339 N 
HETATM    9  C   UNL     1      25.183  46.787  51.036  1.00  0.00     0.321 C 
HETATM   10  N   UNL     1      24.692  46.998  49.780  1.00  0.00    -0.307 N 
HETATM   11  O   UNL     1      25.127  47.574  51.975  1.00  0.00    -0.247 OA
HETATM   12  H   UNL     1      24.599  46.182  49.202  1.00  0.00     0.170 HD
HETATM   13  H   UNL     1      26.133  45.507  52.201  1.00  0.00     0.164 HD
BRANCH  10  14
HETATM   14  C   UNL     1      24.128  48.191  49.268  1.00  0.00     0.059 A 
HETATM   15  C   UNL     1      24.981  49.212  48.807  1.00  0.00    -0.032 A 
HETATM   16  C   UNL     1      26.480  49.088  48.828  1.00  0.00     0.050 C 
HETATM   17  C   UNL     1      24.414  50.392  48.301  1.00  0.00     0.028 A 
HETATM   18  C   UNL     1      23.036  50.523  48.281  1.00  0.00     0.117 A 
HETATM   19  N   UNL     1      22.193  49.574  48.727  1.00  0.00    -0.271 NA
HETATM   20  C   UNL     1      22.755  48.434  49.206  1.00  0.00     0.146 A 
ENDBRANCH  10  14
ENDBRANCH   7   8
ENDBRANCH   1   7
BRANCH   3  21
HETATM   21  N   UNL     1      29.378  43.319  54.008  1.00  0.00    -0.323 N 
HETATM   22  C   UNL     1      29.290  44.465  54.777  1.00  0.00     0.256 C 
HETATM   23  O   UNL     1      28.629  45.467  54.529  1.00  0.00    -0.267 OA
HETATM   24  H   UNL     1      30.065  42.628  54.282  1.00  0.00     0.169 HD
BRANCH  22  25
HETATM   25  C   UNL     1      30.121  44.467  56.012  1.00  0.00     0.035 A 
HETATM   26  C   UNL     1      29.998  45.461  56.985  1.00  0.00     0.036 A 
HETATM   27  C   UNL     1      30.823  45.383  58.094  1.00  0.00     0.117 A 
HETATM   28  N   UNL     1      31.737  44.407  58.282  1.00  0.00    -0.273 NA
HETATM   29  C   UNL     1      31.849  43.473  57.313  1.00  0.00     0.117 A 
HETATM   30  C   UNL     1      31.075  43.461  56.169  1.00  0.00     0.036 A 
ENDBRANCH  22  25
ENDBRANCH   3  21
TORSDOF 5
ENDMDL
MODEL 4
REMARK VINA RESULT:      -9.0      1.748      1.916
REMARK  5 active torsions:
REMARK  status: ('A' for Active; 'I' for Inactive)
REMARK    1  A    between atoms: C_3  and  N_4 
REMARK       I    between atoms: N_4  and  C_5 
REMARK       I    between atoms: C_5  and  N_6 
REMARK    2  A    between atoms: N_6  and  C_7 
REMARK    3  A    between atoms: C_7  and  C_8 
REMARK    4  A    between atoms: C_10  and  N_11 
REMARK       I    between atoms: N_11  and  C_12 
REMARK    5  A    between atoms: C_12  and  C_13 
ROOT
HETATM    1  C   UNL     1      25.577  47.310  50.284  1.00  0.00    -0.038 A 
HETATM    2  C   UNL     1      24.307  47.767  49.889  1.00  0.00     0.038 A 
HETATM    3  C   UNL     1      24.168  48.873  49.047  1.00  0.00     0.035 A 
HETATM    4  C   UNL     1      25.319  49.534  48.604  1.00  0.00     0.029 A 
HETATM    5  C   UNL     1      26.586  49.098  48.997  1.00  0.00     0.003 A 
HETATM    6  C   UNL     1      26.715  47.994  49.837  1.00  0.00     0.009 A 
ENDROOT
BRANCH   1   7
HETATM    7  C   UNL     1      25.702  46.125  51.208  1.00  0.00     0.163 C 
BRANCH   7   8
HETATM    8  N   UNL     1      25.480  46.507  52.589  1.00  0.00    -0.339 N 
HETATM    9  C   UNL     1      26.238  46.315  53.702  1.00  0.00     0.321 C 
HETATM   10  N   UNL     1      27.518  45.889  53.495  1.00  0.00    -0.307 N 
HETATM   11  O   UNL     1      25.717  46.535  54.790  1.00  0.00    -0.247 OA
HETATM   12  H   UNL     1      27.867  45.987  52.558  1.00  0.00     0.170 HD
HETATM   13  H   UNL     1      24.543  46.814  52.821  1.00  0.00     0.164 HD
BRANCH  10  14
HETATM   14  C   UNL     1      28.465  45.507  54.475  1.00  0.00     0.059 A 
HETATM   15  C   UNL     1      29.107  44.258  54.361  1.00  0.00    -0.032 A 
HETATM   16  C   UNL     1      28.833  43.306  53.228  1.00  0.00     0.050 C 
HETATM   17  C   UNL     1      30.044  43.886  55.336  1.00  0.00     0.028 A 
HETATM   18  C   UNL     1      30.302  44.749  56.387  1.00  0.00     0.117 A 
HETATM   19  N   UNL     1      29.697  45.942  56.535  1.00  0.00    -0.271 NA
HETATM   20  C   UNL     1      28.798  46.293  55.579  1.00  0.00     0.146 A 
ENDBRANCH  10  14
ENDBRANCH   7   8
ENDBRANCH   1   7
BRANCH   3  21
HETATM   21  N   UNL     1      22.925  49.384  48.615  1.00  0.00    -0.323 N 
HETATM   22  C   UNL     1      22.151  50.347  49.238  1.00  0.00     0.256 C 
HETATM   23  O   UNL     1      22.375  50.885  50.316  1.00  0.00    -0.267 OA
HETATM   24  H   UNL     1      22.542  48.945  47.788  1.00  0.00     0.169 HD
BRANCH  22  25
HETATM   25  C   UNL     1      20.906  50.726  48.516  1.00  0.00     0.035 A 
HETATM   26  C   UNL     1      20.139  51.831  48.892  1.00  0.00     0.036 A 
HETATM   27  C   UNL     1      18.991  52.095  48.167  1.00  0.00     0.117 A 
HETATM   28  N   UNL     1      18.573  51.347  47.124  1.00  0.00    -0.273 NA
HETATM   29  C   UNL     1      19.322  50.272  46.797  1.00  0.00     0.117 A 
HETATM   30  C   UNL     1      20.483  49.920  47.458  1.00  0.00     0.036 A 
ENDBRANCH  22  25
ENDBRANCH   3  21
TORSDOF 5
ENDMDL
MODEL 5
REMARK VINA RESULT:      -9.0      4.805      8.346
REMARK  5 active torsions:
REMARK  status: ('A' for Active; 'I' for Inactive)
REMARK    1  A    between atoms: C_3  and  N_4 
REMARK       I    between atoms: N_4  and  C_5 
REMARK       I    between atoms: C_5  and  N_6 
REMARK    2  A    between atoms: N_6  and  C_7 
REMARK    3  A    between atoms: C_7  and  C_8 
REMARK    4  A    between atoms: C_10  and  N_11 
REMARK       I    between atoms: N_11  and  C_12 
REMARK    5  A    between atoms: C_12  and  C_13 
ROOT
HETATM    1  C   UNL     1      19.328  50.110  49.510  1.00  0.00    -0.038 A 
HETATM    2  C   UNL     1      18.208  50.777  50.039  1.00  0.00     0.038 A 
HETATM    3  C   UNL     1      17.873  52.067  49.622  1.00  0.00     0.035 A 
HETATM    4  C   UNL     1      18.680  52.700  48.670  1.00  0.00     0.029 A 
HETATM    5  C   UNL     1      19.801  52.056  48.145  1.00  0.00     0.003 A 
HETATM    6  C   UNL     1      20.127  50.769  48.566  1.00  0.00     0.009 A 
ENDROOT
BRANCH   1   7
HETATM    7  C   UNL     1      19.680  48.725  49.988  1.00  0.00     0.163 C 
BRANCH   7   8
HETATM    8  N   UNL     1      20.353  47.964  48.954  1.00  0.00    -0.339 N 
HETATM    9  C   UNL     1      21.671  47.868  48.631  1.00  0.00     0.321 C 
HETATM   10  N   UNL     1      22.554  48.385  49.534  1.00  0.00    -0.307 N 
HETATM   11  O   UNL     1      21.958  47.332  47.565  1.00  0.00    -0.247 OA
HETATM   12  H   UNL     1      22.188  48.566  50.451  1.00  0.00     0.170 HD
HETATM   13  H   UNL     1      19.760  47.568  48.234  1.00  0.00     0.164 HD
BRANCH  10  14
HETATM   14  C   UNL     1      23.956  48.515  49.386  1.00  0.00     0.059 A 
HETATM   15  C   UNL     1      24.471  49.592  48.638  1.00  0.00    -0.032 A 
HETATM   16  C   UNL     1      23.590  50.624  47.989  1.00  0.00     0.050 C 
HETATM   17  C   UNL     1      25.861  49.714  48.496  1.00  0.00     0.028 A 
HETATM   18  C   UNL     1      26.685  48.769  49.083  1.00  0.00     0.117 A 
HETATM   19  N   UNL     1      26.227  47.721  49.791  1.00  0.00    -0.271 NA
HETATM   20  C   UNL     1      24.879  47.619  49.927  1.00  0.00     0.146 A 
ENDBRANCH  10  14
ENDBRANCH   7   8
ENDBRANCH   1   7
BRANCH   3  21
HETATM   21  N   UNL     1      16.766  52.792  50.113  1.00  0.00    -0.323 N 
HETATM   22  C   UNL     1      15.556  53.009  49.479  1.00  0.00     0.256 C 
HETATM   23  O   UNL     1      15.250  52.664  48.343  1.00  0.00    -0.267 OA
HETATM   24  H   UNL     1      16.910  53.248  51.005  1.00  0.00     0.169 HD
BRANCH  22  25
HETATM   25  C   UNL     1      14.551  53.770  50.270  1.00  0.00     0.035 A 
HETATM   26  C   UNL     1      13.241  53.954  49.822  1.00  0.00     0.036 A 
HETATM   27  C   UNL     1      12.383  54.688  50.623  1.00  0.00     0.117 A 
HETATM   28  N   UNL     1      12.742  55.234  51.804  1.00  0.00    -0.273 NA
HETATM   29  C   UNL     1      14.021  55.060  52.200  1.00  0.00     0.117 A 
HETATM   30  C   UNL     1      14.956  54.346  51.474  1.00  0.00     0.036 A 
ENDBRANCH  22  25
ENDBRANCH   3  21
TORSDOF 5
ENDMDL
MODEL 6
REMARK VINA RESULT:      -8.6      2.007      2.559
REMARK  5 active torsions:
REMARK  status: ('A' for Active; 'I' for Inactive)
REMARK    1  A    between atoms: C_3  and  N_4 
REMARK       I    between atoms: N_4  and  C_5 
REMARK       I    between atoms: C_5  and  N_6 
REMARK    2  A    between atoms: N_6  and  C_7 
REMARK    3  A    between atoms: C_7  and  C_8 
REMARK    4  A    between atoms: C_10  and  N_11 
REMARK       I    between atoms: N_11  and  C_12 
REMARK    5  A    between atoms: C_12  and  C_13 
ROOT
HETATM    1  C   UNL     1      25.881  45.268  52.050  1.00  0.00    -0.038 A 
HETATM    2  C   UNL     1      24.812  46.017  51.526  1.00  0.00     0.038 A 
HETATM    3  C   UNL     1      24.569  46.060  50.151  1.00  0.00     0.035 A 
HETATM    4  C   UNL     1      25.415  45.350  49.292  1.00  0.00     0.029 A 
HETATM    5  C   UNL     1      26.486  44.612  49.798  1.00  0.00     0.003 A 
HETATM    6  C   UNL     1      26.721  44.574  51.170  1.00  0.00     0.009 A 
ENDROOT
BRANCH   1   7
HETATM    7  C   UNL     1      26.135  45.250  53.536  1.00  0.00     0.163 C 
BRANCH   7   8
HETATM    8  N   UNL     1      26.971  46.364  53.942  1.00  0.00    -0.339 N 
HETATM    9  C   UNL     1      28.034  46.421  54.789  1.00  0.00     0.321 C 
HETATM   10  N   UNL     1      28.566  45.224  55.172  1.00  0.00    -0.307 N 
HETATM   11  O   UNL     1      28.424  47.530  55.138  1.00  0.00    -0.247 OA
HETATM   12  H   UNL     1      28.298  44.428  54.621  1.00  0.00     0.170 HD
HETATM   13  H   UNL     1      26.626  47.288  53.709  1.00  0.00     0.164 HD
BRANCH  10  14
HETATM   14  C   UNL     1      29.589  45.005  56.126  1.00  0.00     0.059 A 
HETATM   15  C   UNL     1      30.547  44.000  55.888  1.00  0.00    -0.032 A 
HETATM   16  C   UNL     1      30.535  43.145  54.650  1.00  0.00     0.050 C 
HETATM   17  C   UNL     1      31.557  43.789  56.838  1.00  0.00     0.028 A 
HETATM   18  C   UNL     1      31.577  44.563  57.985  1.00  0.00     0.117 A 
HETATM   19  N   UNL     1      30.670  45.521  58.251  1.00  0.00    -0.271 NA
HETATM   20  C   UNL     1      29.702  45.720  57.319  1.00  0.00     0.146 A 
ENDBRANCH  10  14
ENDBRANCH   7   8
ENDBRANCH   1   7
BRANCH   3  21
HETATM   21  N   UNL     1      23.517  46.793  49.559  1.00  0.00    -0.323 N 
HETATM   22  C   UNL     1      23.484  48.151  49.296  1.00  0.00     0.256 C 
HETATM   23  O   UNL     1      24.340  48.977  49.590  1.00  0.00    -0.267 OA
HETATM   24  H   UNL     1      22.677  46.263  49.366  1.00  0.00     0.169 HD
BRANCH  22  25
HETATM   25  C   UNL     1      22.254  48.636  48.612  1.00  0.00     0.035 A 
HETATM   26  C   UNL     1      21.244  47.764  48.199  1.00  0.00     0.036 A 
HETATM   27  C   UNL     1      20.144  48.309  47.560  1.00  0.00     0.117 A 
HETATM   28  N   UNL     1      19.996  49.628  47.314  1.00  0.00    -0.273 NA
HETATM   29  C   UNL     1      20.999  50.444  47.705  1.00  0.00     0.117 A 
HETATM   30  C   UNL     1      22.138  50.001  48.348  1.00  0.00     0.036 A 
ENDBRANCH  22  25
ENDBRANCH   3  21
TORSDOF 5
ENDMDL
MODEL 7
REMARK VINA RESULT:      -8.5      2.210      3.600
REMARK  5 active torsions:
REMARK  status: ('A' for Active; 'I' for Inactive)
REMARK    1  A    between atoms: C_3  and  N_4 
REMARK       I    between atoms: N_4  and  C_5 
REMARK       I    between atoms: C_5  and  N_6 
REMARK    2  A    between atoms: N_6  and  C_7 
REMARK    3  A    between atoms: C_7  and  C_8 
REMARK    4  A    between atoms: C_10  and  N_11 
REMARK       I    between atoms: N_11  and  C_12 
REMARK    5  A    between atoms: C_12  and  C_13 
ROOT
HETATM    1  C   UNL     1      24.217  48.517  49.186  1.00  0.00    -0.038 A 
HETATM    2  C   UNL     1      22.839  48.233  49.144  1.00  0.00     0.038 A 
HETATM    3  C   UNL     1      21.950  49.074  48.470  1.00  0.00     0.035 A 
HETATM    4  C   UNL     1      22.449  50.219  47.839  1.00  0.00     0.029 A 
HETATM    5  C   UNL     1      23.812  50.520  47.883  1.00  0.00     0.003 A 
HETATM    6  C   UNL     1      24.691  49.675  48.557  1.00  0.00     0.009 A 
ENDROOT
BRANCH   1   7
HETATM    7  C   UNL     1      25.155  47.604  49.934  1.00  0.00     0.163 C 
BRANCH   7   8
HETATM    8  N   UNL     1      24.428  46.581  50.660  1.00  0.00    -0.339 N 
HETATM    9  C   UNL     1      24.867  45.571  51.458  1.00  0.00     0.321 C 
HETATM   10  N   UNL     1      26.177  45.623  51.834  1.00  0.00    -0.307 N 
HETATM   11  O   UNL     1      24.059  44.701  51.771  1.00  0.00    -0.247 OA
HETATM   12  H   UNL     1      26.637  46.506  51.703  1.00  0.00     0.170 HD
HETATM   13  H   UNL     1      23.451  46.470  50.417  1.00  0.00     0.164 HD
BRANCH  10  14
HETATM   14  C   UNL     1      26.903  44.645  52.557  1.00  0.00     0.059 A 
HETATM   15  C   UNL     1      27.438  44.979  53.817  1.00  0.00    -0.032 A 
HETATM   16  C   UNL     1      27.265  46.338  54.438  1.00  0.00     0.050 C 
HETATM   17  C   UNL     1      28.156  44.005  54.527  1.00  0.00     0.028 A 
HETATM   18  C   UNL     1      28.329  42.752  53.966  1.00  0.00     0.117 A 
HETATM   19  N   UNL     1      27.844  42.404  52.760  1.00  0.00    -0.271 NA
HETATM   20  C   UNL     1      27.144  43.354  52.087  1.00  0.00     0.146 A 
ENDBRANCH  10  14
ENDBRANCH   7   8
ENDBRANCH   1   7
BRANCH   3  21
HETATM   21  N   UNL     1      20.559  48.849  48.391  1.00  0.00    -0.323 N 
HETATM   22  C   UNL     1      19.581  49.323  49.248  1.00  0.00     0.256 C 
HETATM   23  O   UNL     1      19.755  49.973  50.272  1.00  0.00    -0.267 OA
HETATM   24  H   UNL     1      20.265  48.220  47.655  1.00  0.00     0.169 HD
BRANCH  22  25
HETATM   25  C   UNL     1      18.185  48.964  48.879  1.00  0.00     0.035 A 
HETATM   26  C   UNL     1      17.268  49.918  48.433  1.00  0.00     0.036 A 
HETATM   27  C   UNL     1      15.989  49.488  48.126  1.00  0.00     0.117 A 
HETATM   28  N   UNL     1      15.581  48.206  48.237  1.00  0.00    -0.273 NA
HETATM   29  C   UNL     1      16.482  47.310  48.693  1.00  0.00     0.117 A 
HETATM   30  C   UNL     1      17.782  47.636  49.028  1.00  0.00     0.036 A 
ENDBRANCH  22  25
ENDBRANCH   3  21
TORSDOF 5
ENDMDL
MODEL 8
REMARK VINA RESULT:      -8.4      2.350     10.291
REMARK  5 active torsions:
REMARK  status: ('A' for Active; 'I' for Inactive)
REMARK    1  A    between atoms: C_3  and  N_4 
REMARK       I    between atoms: N_4  and  C_5 
REMARK       I    between atoms: C_5  and  N_6 
REMARK    2  A    between atoms: N_6  and  C_7 
REMARK    3  A    between atoms: C_7  and  C_8 
REMARK    4  A    between atoms: C_10  and  N_11 
REMARK       I    between atoms: N_11  and  C_12 
REMARK    5  A    between atoms: C_12  and  C_13 
ROOT
HETATM    1  C   UNL     1      23.939  49.122  48.561  1.00  0.00    -0.038 A 
HETATM    2  C   UNL     1      24.281  48.097  49.462  1.00  0.00     0.038 A 
HETATM    3  C   UNL     1      25.606  47.898  49.858  1.00  0.00     0.035 A 
HETATM    4  C   UNL     1      26.601  48.731  49.335  1.00  0.00     0.029 A 
HETATM    5  C   UNL     1      26.277  49.744  48.430  1.00  0.00     0.003 A 
HETATM    6  C   UNL     1      24.954  49.937  48.042  1.00  0.00     0.009 A 
ENDROOT
BRANCH   1   7
HETATM    7  C   UNL     1      22.505  49.307  48.135  1.00  0.00     0.163 C 
BRANCH   7   8
HETATM    8  N   UNL     1      21.587  48.942  49.196  1.00  0.00    -0.339 N 
HETATM    9  C   UNL     1      20.257  49.182  49.349  1.00  0.00     0.321 C 
HETATM   10  N   UNL     1      19.598  49.653  48.251  1.00  0.00    -0.307 N 
HETATM   11  O   UNL     1      19.762  48.962  50.449  1.00  0.00    -0.247 OA
HETATM   12  H   UNL     1      20.078  49.552  47.374  1.00  0.00     0.170 HD
HETATM   13  H   UNL     1      22.009  48.603  50.053  1.00  0.00     0.164 HD
BRANCH  10  14
HETATM   14  C   UNL     1      18.253  50.089  48.178  1.00  0.00     0.059 A 
HETATM   15  C   UNL     1      17.972  51.467  48.254  1.00  0.00    -0.032 A 
HETATM   16  C   UNL     1      19.048  52.507  48.405  1.00  0.00     0.050 C 
HETATM   17  C   UNL     1      16.637  51.890  48.182  1.00  0.00     0.028 A 
HETATM   18  C   UNL     1      15.635  50.944  48.049  1.00  0.00     0.117 A 
HETATM   19  N   UNL     1      15.867  49.621  47.987  1.00  0.00    -0.271 NA
HETATM   20  C   UNL     1      17.165  49.225  48.051  1.00  0.00     0.146 A 
ENDBRANCH  10  14
ENDBRANCH   7   8
ENDBRANCH   1   7
BRANCH   3  21
HETATM   21  N   UNL     1      26.017  46.889  50.756  1.00  0.00    -0.323 N 
HETATM   22  C   UNL     1      25.819  46.851  52.125  1.00  0.00     0.256 C 
HETATM   23  O   UNL     1      25.306  47.722  52.817  1.00  0.00    -0.267 OA
HETATM   24  H   UNL     1      26.568  46.146  50.347  1.00  0.00     0.169 HD
BRANCH  22  25
HETATM   25  C   UNL     1      26.320  45.626  52.805  1.00  0.00     0.035 A 
HETATM   26  C   UNL     1      26.499  44.420  52.123  1.00  0.00     0.036 A 
HETATM   27  C   UNL     1      26.958  43.333  52.846  1.00  0.00     0.117 A 
HETATM   28  N   UNL     1      27.238  43.373  54.166  1.00  0.00    -0.273 NA
HETATM   29  C   UNL     1      27.033  44.546  54.804  1.00  0.00     0.117 A 
HETATM   30  C   UNL     1      26.577  45.689  54.175  1.00  0.00     0.036 A 
ENDBRANCH  22  25
ENDBRANCH   3  21
TORSDOF 5
ENDMDL
MODEL 9
REMARK VINA RESULT:      -7.9      2.508      2.982
REMARK  5 active torsions:
REMARK  status: ('A' for Active; 'I' for Inactive)
REMARK    1  A    between atoms: C_3  and  N_4 
REMARK       I    between atoms: N_4  and  C_5 
REMARK       I    between atoms: C_5  and  N_6 
REMARK    2  A    between atoms: N_6  and  C_7 
REMARK    3  A    between atoms: C_7  and  C_8 
REMARK    4  A    between atoms: C_10  and  N_11 
REMARK       I    between atoms: N_11  and  C_12 
REMARK    5  A    between atoms: C_12  and  C_13 
ROOT
HETATM    1  C   UNL     1      25.517  44.980  50.916  1.00  0.00    -0.038 A 
HETATM    2  C   UNL     1      24.272  44.869  50.271  1.00  0.00     0.038 A 
HETATM    3  C   UNL     1      23.661  45.982  49.687  1.00  0.00     0.035 A 
HETATM    4  C   UNL     1      24.304  47.223  49.762  1.00  0.00     0.029 A 
HETATM    5  C   UNL     1      25.534  47.349  50.409  1.00  0.00     0.003 A 
HETATM    6  C   UNL     1      26.136  46.234  50.988  1.00  0.00     0.009 A 
ENDROOT
BRANCH   1   7
HETATM    7  C   UNL     1      26.148  43.768  51.554  1.00  0.00     0.163 C 
BRANCH   7   8
HETATM    8  N   UNL     1      25.770  43.649  52.949  1.00  0.00    -0.339 N 
HETATM    9  C   UNL     1      26.476  43.880  54.088  1.00  0.00     0.321 C 
HETATM   10  N   UNL     1      27.663  44.536  53.941  1.00  0.00    -0.307 N 
HETATM   11  O   UNL     1      25.996  43.484  55.145  1.00  0.00    -0.247 OA
HETATM   12  H   UNL     1      27.801  45.003  53.063  1.00  0.00     0.170 HD
HETATM   13  H   UNL     1      24.907  43.152  53.135  1.00  0.00     0.164 HD
BRANCH  10  14
HETATM   14  C   UNL     1      28.632  44.794  54.941  1.00  0.00     0.059 A 
HETATM   15  C   UNL     1      29.800  44.008  54.986  1.00  0.00    -0.032 A 
HETATM   16  C   UNL     1      30.070  42.901  54.004  1.00  0.00     0.050 C 
HETATM   17  C   UNL     1      30.754  44.270  55.980  1.00  0.00     0.028 A 
HETATM   18  C   UNL     1      30.517  45.282  56.894  1.00  0.00     0.117 A 
HETATM   19  N   UNL     1      29.406  46.042  56.889  1.00  0.00    -0.271 NA
HETATM   20  C   UNL     1      28.494  45.783  55.916  1.00  0.00     0.146 A 
ENDBRANCH  10  14
ENDBRANCH   7   8
ENDBRANCH   1   7
BRANCH   3  21
HETATM   21  N   UNL     1      22.413  45.941  49.028  1.00  0.00    -0.323 N 
HETATM   22  C   UNL     1      21.651  44.823  48.742  1.00  0.00     0.256 C 
HETATM   23  O   UNL     1      21.954  43.654  48.952  1.00  0.00    -0.267 OA
HETATM   24  H   UNL     1      22.081  46.830  48.678  1.00  0.00     0.169 HD
BRANCH  22  25
HETATM   25  C   UNL     1      20.346  45.095  48.080  1.00  0.00     0.035 A 
HETATM   26  C   UNL     1      19.937  44.404  46.938  1.00  0.00     0.036 A 
HETATM   27  C   UNL     1      18.711  44.738  46.387  1.00  0.00     0.117 A 
HETATM   28  N   UNL     1      17.897  45.690  46.890  1.00  0.00    -0.273 NA
HETATM   29  C   UNL     1      18.330  46.358  47.981  1.00  0.00     0.117 A 
HETATM   30  C   UNL     1      19.536  46.103  48.605  1.00  0.00     0.036 A 
ENDBRANCH  22  25
ENDBRANCH   3  21
TORSDOF 5
ENDMDL
MODEL 10
REMARK VINA RESULT:      -7.8      2.479      9.962
REMARK  5 active torsions:
REMARK  status: ('A' for Active; 'I' for Inactive)
REMARK    1  A    between atoms: C_3  and  N_4 
REMARK       I    between atoms: N_4  and  C_5 
REMARK       I    between atoms: C_5  and  N_6 
REMARK    2  A    between atoms: N_6  and  C_7 
REMARK    3  A    between atoms: C_7  and  C_8 
REMARK    4  A    between atoms: C_10  and  N_11 
REMARK       I    between atoms: N_11  and  C_12 
REMARK    5  A    between atoms: C_12  and  C_13 
ROOT
HETATM    1  C   UNL     1      26.358  43.044  50.688  1.00  0.00    -0.038 A 
HETATM    2  C   UNL     1      27.007  43.574  51.818  1.00  0.00     0.038 A 
HETATM    3  C   UNL     1      27.713  42.749  52.696  1.00  0.00     0.035 A 
HETATM    4  C   UNL     1      27.760  41.374  52.442  1.00  0.00     0.029 A 
HETATM    5  C   UNL     1      27.110  40.833  51.331  1.00  0.00     0.003 A 
HETATM    6  C   UNL     1      26.409  41.663  50.460  1.00  0.00     0.009 A 
ENDROOT
BRANCH   1   7
HETATM    7  C   UNL     1      25.586  43.952  49.763  1.00  0.00     0.163 C 
BRANCH   7   8
HETATM    8  N   UNL     1      24.179  43.606  49.737  1.00  0.00    -0.339 N 
HETATM    9  C   UNL     1      23.088  44.328  49.363  1.00  0.00     0.321 C 
HETATM   10  N   UNL     1      23.335  45.494  48.698  1.00  0.00    -0.307 N 
HETATM   11  O   UNL     1      21.983  43.881  49.652  1.00  0.00    -0.247 OA
HETATM   12  H   UNL     1      24.262  45.601  48.329  1.00  0.00     0.170 HD
HETATM   13  H   UNL     1      23.918  42.761  50.231  1.00  0.00     0.164 HD
BRANCH  10  14
HETATM   14  C   UNL     1      22.392  46.475  48.307  1.00  0.00     0.059 A 
HETATM   15  C   UNL     1      22.573  47.808  48.726  1.00  0.00    -0.032 A 
HETATM   16  C   UNL     1      23.739  48.241  49.573  1.00  0.00     0.050 C 
HETATM   17  C   UNL     1      21.635  48.774  48.335  1.00  0.00     0.028 A 
HETATM   18  C   UNL     1      20.554  48.390  47.560  1.00  0.00     0.117 A 
HETATM   19  N   UNL     1      20.342  47.124  47.155  1.00  0.00    -0.271 NA
HETATM   20  C   UNL     1      21.263  46.201  47.534  1.00  0.00     0.146 A 
ENDBRANCH  10  14
ENDBRANCH   7   8
ENDBRANCH   1   7
BRANCH   3  21
HETATM   21  N   UNL     1      28.385  43.215  53.847  1.00  0.00    -0.323 N 
HETATM   22  C   UNL     1      29.751  43.319  54.039  1.00  0.00     0.256 C 
HETATM   23  O   UNL     1      30.630  42.961  53.264  1.00  0.00    -0.267 OA
HETATM   24  H   UNL     1      27.788  43.438  54.633  1.00  0.00     0.169 HD
BRANCH  22  25
HETATM   25  C   UNL     1      30.167  43.899  55.345  1.00  0.00     0.035 A 
HETATM   26  C   UNL     1      31.074  43.251  56.187  1.00  0.00     0.036 A 
HETATM   27  C   UNL     1      31.390  43.864  57.387  1.00  0.00     0.117 A 
HETATM   28  N   UNL     1      30.871  45.045  57.786  1.00  0.00    -0.273 NA
HETATM   29  C   UNL     1      29.979  45.636  56.962  1.00  0.00     0.117 A 
HETATM   30  C   UNL     1      29.596  45.107  55.744  1.00  0.00     0.036 A 
ENDBRANCH  22  25
ENDBRANCH   3  21
TORSDOF 5
ENDMDL
