MODEL 1
REMARK VINA RESULT:      -8.4      0.000      0.000
REMARK  10 active torsions:
REMARK  status: ('A' for Active; 'I' for Inactive)
REMARK    1  A    between atoms: C_2  and  C_3 
REMARK    2  A    between atoms: C_3  and  N_4 
REMARK    3  A    between atoms: C_7  and  C_8 
REMARK       I    between atoms: C_8  and  N_9 
REMARK    4  A    between atoms: N_9  and  C_10 
REMARK    5  A    between atoms: C_10  and  C_11 
REMARK    6  A    between atoms: C_11  and  O_12 
REMARK    7  A    between atoms: C_11  and  C_13 
REMARK    8  A    between atoms: C_13  and  O_14 
REMARK    9  A    between atoms: O_14  and  C_15 
REMARK   10  A    between atoms: C_23  and  C_24 
ROOT
HETATM    1  C   UNL     1      27.410  43.959  51.392  1.00  0.00     0.255 C 
HETATM    2  N   UNL     1      26.193  43.333  51.469  1.00  0.00    -0.354 N 
HETATM    3  O   UNL     1      27.775  44.588  50.405  1.00  0.00    -0.268 OA
HETATM    4  H   UNL     1      25.923  42.895  52.341  1.00  0.00     0.162 HD
ENDROOT
BRANCH   2   5
HETATM    5  C   UNL     1      25.149  43.580  50.491  1.00  0.00     0.156 C 
BRANCH   5   6
HETATM    6  C   UNL     1      24.183  44.678  50.939  1.00  0.00     0.160 C 
BRANCH   6   7
HETATM    7  O   UNL     1      22.844  44.153  50.934  1.00  0.00    -0.392 OA
HETATM    8  H   UNL     1      22.535  44.216  51.858  1.00  0.00     0.210 HD
ENDBRANCH   6   7
BRANCH   6   9
HETATM    9  C   UNL     1      24.249  45.908  50.028  1.00  0.00     0.209 C 
BRANCH   9  10
HETATM   10  O   UNL     1      25.290  46.755  50.529  1.00  0.00    -0.349 OA
BRANCH  10  11
HETATM   11  C   UNL     1      25.604  47.853  49.776  1.00  0.00     0.069 A 
HETATM   12  C   UNL     1      24.504  48.504  49.208  1.00  0.00     0.043 A 
HETATM   13  C   UNL     1      24.672  49.641  48.407  1.00  0.00    -0.059 A 
HETATM   14  C   UNL     1      23.492  50.333  47.793  1.00  0.00     0.048 C 
HETATM   15  C   UNL     1      25.967  50.109  48.159  1.00  0.00     0.007 A 
HETATM   16  C   UNL     1      27.067  49.463  48.720  1.00  0.00     0.003 A 
HETATM   17  C   UNL     1      26.888  48.339  49.530  1.00  0.00     0.037 A 
ENDBRANCH  10  11
ENDBRANCH   9  10
ENDBRANCH   6   9
ENDBRANCH   5   6
ENDBRANCH   2   5
BRANCH   1  18
HETATM   18  C   UNL     1      28.280  43.749  52.528  1.00  0.00     0.075 A 
HETATM   19  C   UNL     1      29.513  43.066  52.448  1.00  0.00     0.158 A 
HETATM   20  N   UNL     1      30.187  43.075  53.593  1.00  0.00    -0.183 NA
HETATM   21  N   UNL     1      29.433  43.843  54.405  1.00  0.00    -0.268 N 
HETATM   22  C   UNL     1      28.230  44.225  53.834  1.00  0.00     0.052 A 
BRANCH  21  23
HETATM   23  C   UNL     1      29.979  44.216  55.713  1.00  0.00     0.106 C 
HETATM   24  C   UNL     1      30.407  45.686  55.759  1.00  0.00     0.034 C 
BRANCH  23  25
HETATM   25  C   UNL     1      31.065  43.240  56.203  1.00  0.00     0.022 C 
HETATM   26  C   UNL     1      31.816  43.658  57.461  1.00  0.00     0.007 C 
ENDBRANCH  23  25
ENDBRANCH  21  23
BRANCH  22  27
HETATM   27  C   UNL     1      27.174  45.084  54.539  1.00  0.00     0.038 A 
HETATM   28  C   UNL     1      27.297  46.588  54.599  1.00  0.00     0.011 A 
HETATM   29  C   UNL     1      26.242  45.968  53.747  1.00  0.00     0.011 A 
ENDBRANCH  22  27
ENDBRANCH   1  18
TORSDOF 10
ENDMDL
MODEL 2
REMARK VINA RESULT:      -8.3      1.148      2.112
REMARK  10 active torsions:
REMARK  status: ('A' for Active; 'I' for Inactive)
REMARK    1  A    between atoms: C_2  and  C_3 
REMARK    2  A    between atoms: C_3  and  N_4 
REMARK    3  A    between atoms: C_7  and  C_8 
REMARK       I    between atoms: C_8  and  N_9 
REMARK    4  A    between atoms: N_9  and  C_10 
REMARK    5  A    between atoms: C_10  and  C_11 
REMARK    6  A    between atoms: C_11  and  O_12 
REMARK    7  A    between atoms: C_11  and  C_13 
REMARK    8  A    between atoms: C_13  and  O_14 
REMARK    9  A    between atoms: O_14  and  C_15 
REMARK   10  A    between atoms: C_23  and  C_24 
ROOT
HETATM    1  C   UNL     1      27.155  44.421  52.324  1.00  0.00     0.255 C 
HETATM    2  N   UNL     1      25.847  44.033  52.465  1.00  0.00    -0.354 N 
HETATM    3  O   UNL     1      27.781  44.290  51.278  1.00  0.00    -0.268 OA
HETATM    4  H   UNL     1      25.367  44.239  53.332  1.00  0.00     0.162 HD
ENDROOT
BRANCH   2   5
HETATM    5  C   UNL     1      25.035  43.673  51.317  1.00  0.00     0.156 C 
BRANCH   5   6
HETATM    6  C   UNL     1      23.953  44.713  51.024  1.00  0.00     0.160 C 
BRANCH   6   7
HETATM    7  O   UNL     1      22.761  44.036  50.588  1.00  0.00    -0.392 OA
HETATM    8  H   UNL     1      23.069  43.218  50.151  1.00  0.00     0.210 HD
ENDBRANCH   6   7
BRANCH   6   9
HETATM    9  C   UNL     1      24.391  45.711  49.948  1.00  0.00     0.209 C 
BRANCH   9  10
HETATM   10  O   UNL     1      25.253  46.667  50.578  1.00  0.00    -0.349 OA
BRANCH  10  11
HETATM   11  C   UNL     1      25.617  47.752  49.829  1.00  0.00     0.069 A 
HETATM   12  C   UNL     1      24.549  48.456  49.265  1.00  0.00     0.043 A 
HETATM   13  C   UNL     1      24.770  49.587  48.470  1.00  0.00    -0.059 A 
HETATM   14  C   UNL     1      23.623  50.336  47.860  1.00  0.00     0.048 C 
HETATM   15  C   UNL     1      26.084  49.996  48.223  1.00  0.00     0.007 A 
HETATM   16  C   UNL     1      27.154  49.297  48.780  1.00  0.00     0.003 A 
HETATM   17  C   UNL     1      26.923  48.179  49.585  1.00  0.00     0.037 A 
ENDBRANCH  10  11
ENDBRANCH   9  10
ENDBRANCH   6   9
ENDBRANCH   5   6
ENDBRANCH   2   5
BRANCH   1  18
HETATM   18  C   UNL     1      27.780  44.916  53.531  1.00  0.00     0.075 A 
HETATM   19  C   UNL     1      27.414  46.128  54.156  1.00  0.00     0.158 A 
HETATM   20  N   UNL     1      28.054  46.337  55.301  1.00  0.00    -0.183 NA
HETATM   21  N   UNL     1      28.780  45.214  55.473  1.00  0.00    -0.268 N 
HETATM   22  C   UNL     1      28.706  44.344  54.397  1.00  0.00     0.052 A 
BRANCH  21  23
HETATM   23  C   UNL     1      29.481  45.028  56.746  1.00  0.00     0.106 C 
HETATM   24  C   UNL     1      29.062  46.068  57.790  1.00  0.00     0.034 C 
BRANCH  23  25
HETATM   25  C   UNL     1      31.007  44.908  56.572  1.00  0.00     0.022 C 
HETATM   26  C   UNL     1      31.652  43.674  57.190  1.00  0.00     0.007 C 
ENDBRANCH  23  25
ENDBRANCH  21  23
BRANCH  22  27
HETATM   27  C   UNL     1      29.446  43.004  54.317  1.00  0.00     0.038 A 
HETATM   28  C   UNL     1      28.958  41.890  53.421  1.00  0.00     0.011 A 
HETATM   29  C   UNL     1      30.214  42.618  53.077  1.00  0.00     0.011 A 
ENDBRANCH  22  27
ENDBRANCH   1  18
TORSDOF 10
ENDMDL
MODEL 3
REMARK VINA RESULT:      -8.0      2.086      7.815
REMARK  10 active torsions:
REMARK  status: ('A' for Active; 'I' for Inactive)
REMARK    1  A    between atoms: C_2  and  C_3 
REMARK    2  A    between atoms: C_3  and  N_4 
REMARK    3  A    between atoms: C_7  and  C_8 
REMARK       I    between atoms: C_8  and  N_9 
REMARK    4  A    between atoms: N_9  and  C_10 
REMARK    5  A    between atoms: C_10  and  C_11 
REMARK    6  A    between atoms: C_11  and  O_12 
REMARK    7  A    between atoms: C_11  and  C_13 
REMARK    8  A    between atoms: C_13  and  O_14 
REMARK    9  A    between atoms: O_14  and  C_15 
REMARK   10  A    between atoms: C_23  and  C_24 
ROOT
HETATM    1  C   UNL     1      25.417  44.204  51.905  1.00  0.00     0.255 C 
HETATM    2  N   UNL     1      26.262  43.394  51.191  1.00  0.00    -0.354 N 
HETATM    3  O   UNL     1      24.769  43.809  52.867  1.00  0.00    -0.268 OA
HETATM    4  H   UNL     1      26.825  43.802  50.455  1.00  0.00     0.162 HD
ENDROOT
BRANCH   2   5
HETATM    5  C   UNL     1      26.641  42.079  51.675  1.00  0.00     0.156 C 
BRANCH   5   6
HETATM    6  C   UNL     1      28.126  41.786  51.455  1.00  0.00     0.160 C 
BRANCH   6   7
HETATM    7  O   UNL     1      28.382  40.407  51.772  1.00  0.00    -0.392 OA
HETATM    8  H   UNL     1      28.604  40.394  52.723  1.00  0.00     0.210 HD
ENDBRANCH   6   7
BRANCH   6   9
HETATM    9  C   UNL     1      29.023  42.679  52.317  1.00  0.00     0.209 C 
BRANCH   9  10
HETATM   10  O   UNL     1      28.313  42.952  53.532  1.00  0.00    -0.349 OA
BRANCH  10  11
HETATM   11  C   UNL     1      28.912  43.811  54.412  1.00  0.00     0.069 A 
HETATM   12  C   UNL     1      29.977  43.259  55.132  1.00  0.00     0.043 A 
HETATM   13  C   UNL     1      30.682  44.020  56.073  1.00  0.00    -0.059 A 
HETATM   14  C   UNL     1      31.818  43.425  56.850  1.00  0.00     0.048 C 
HETATM   15  C   UNL     1      30.291  45.343  56.305  1.00  0.00     0.007 A 
HETATM   16  C   UNL     1      29.229  45.897  55.593  1.00  0.00     0.003 A 
HETATM   17  C   UNL     1      28.542  45.135  54.645  1.00  0.00     0.037 A 
ENDBRANCH  10  11
ENDBRANCH   9  10
ENDBRANCH   6   9
ENDBRANCH   5   6
ENDBRANCH   2   5
BRANCH   1  18
HETATM   18  C   UNL     1      25.272  45.546  51.385  1.00  0.00     0.075 A 
HETATM   19  C   UNL     1      25.846  46.683  51.996  1.00  0.00     0.158 A 
HETATM   20  N   UNL     1      25.663  47.797  51.297  1.00  0.00    -0.183 NA
HETATM   21  N   UNL     1      25.041  47.376  50.176  1.00  0.00    -0.268 N 
HETATM   22  C   UNL     1      24.718  46.029  50.204  1.00  0.00     0.052 A 
BRANCH  21  23
HETATM   23  C   UNL     1      24.845  48.336  49.087  1.00  0.00     0.106 C 
HETATM   24  C   UNL     1      26.092  49.193  48.845  1.00  0.00     0.034 C 
BRANCH  23  25
HETATM   25  C   UNL     1      23.552  49.157  49.245  1.00  0.00     0.022 C 
HETATM   26  C   UNL     1      23.389  50.331  48.288  1.00  0.00     0.007 C 
ENDBRANCH  23  25
ENDBRANCH  21  23
BRANCH  22  27
HETATM   27  C   UNL     1      23.992  45.291  49.074  1.00  0.00     0.038 A 
HETATM   28  C   UNL     1      22.824  44.376  49.356  1.00  0.00     0.011 A 
HETATM   29  C   UNL     1      22.590  45.680  48.672  1.00  0.00     0.011 A 
ENDBRANCH  22  27
ENDBRANCH   1  18
TORSDOF 10
ENDMDL
MODEL 4
REMARK VINA RESULT:      -7.9      2.200      7.619
REMARK  10 active torsions:
REMARK  status: ('A' for Active; 'I' for Inactive)
REMARK    1  A    between atoms: C_2  and  C_3 
REMARK    2  A    between atoms: C_3  and  N_4 
REMARK    3  A    between atoms: C_7  and  C_8 
REMARK       I    between atoms: C_8  and  N_9 
REMARK    4  A    between atoms: N_9  and  C_10 
REMARK    5  A    between atoms: C_10  and  C_11 
REMARK    6  A    between atoms: C_11  and  O_12 
REMARK    7  A    between atoms: C_11  and  C_13 
REMARK    8  A    between atoms: C_13  and  O_14 
REMARK    9  A    between atoms: O_14  and  C_15 
REMARK   10  A    between atoms: C_23  and  C_24 
ROOT
HETATM    1  C   UNL     1      24.929  43.753  51.021  1.00  0.00     0.255 C 
HETATM    2  N   UNL     1      25.962  43.073  50.429  1.00  0.00    -0.354 N 
HETATM    3  O   UNL     1      24.349  43.345  52.021  1.00  0.00    -0.268 OA
HETATM    4  H   UNL     1      26.447  43.502  49.651  1.00  0.00     0.162 HD
ENDROOT
BRANCH   2   5
HETATM    5  C   UNL     1      26.608  41.952  51.086  1.00  0.00     0.156 C 
BRANCH   5   6
HETATM    6  C   UNL     1      27.950  42.339  51.709  1.00  0.00     0.160 C 
BRANCH   6   7
HETATM    7  O   UNL     1      28.918  41.321  51.403  1.00  0.00    -0.392 OA
HETATM    8  H   UNL     1      29.717  41.557  51.914  1.00  0.00     0.210 HD
ENDBRANCH   6   7
BRANCH   6   9
HETATM    9  C   UNL     1      27.851  42.505  53.229  1.00  0.00     0.209 C 
BRANCH   9  10
HETATM   10  O   UNL     1      29.169  42.330  53.764  1.00  0.00    -0.349 OA
BRANCH  10  11
HETATM   11  C   UNL     1      29.596  43.269  54.662  1.00  0.00     0.069 A 
HETATM   12  C   UNL     1      28.840  44.446  54.678  1.00  0.00     0.043 A 
HETATM   13  C   UNL     1      29.163  45.499  55.544  1.00  0.00    -0.059 A 
HETATM   14  C   UNL     1      28.356  46.763  55.555  1.00  0.00     0.048 C 
HETATM   15  C   UNL     1      30.274  45.369  56.384  1.00  0.00     0.007 A 
HETATM   16  C   UNL     1      31.033  44.200  56.370  1.00  0.00     0.003 A 
HETATM   17  C   UNL     1      30.693  43.150  55.514  1.00  0.00     0.037 A 
ENDBRANCH  10  11
ENDBRANCH   9  10
ENDBRANCH   6   9
ENDBRANCH   5   6
ENDBRANCH   2   5
BRANCH   1  18
HETATM   18  C   UNL     1      24.506  44.949  50.328  1.00  0.00     0.075 A 
HETATM   19  C   UNL     1      23.511  44.958  49.327  1.00  0.00     0.158 A 
HETATM   20  N   UNL     1      23.218  46.179  48.895  1.00  0.00    -0.183 NA
HETATM   21  N   UNL     1      23.961  46.985  49.680  1.00  0.00    -0.268 N 
HETATM   22  C   UNL     1      24.814  46.292  50.523  1.00  0.00     0.052 A 
BRANCH  21  23
HETATM   23  C   UNL     1      23.744  48.432  49.593  1.00  0.00     0.106 C 
HETATM   24  C   UNL     1      22.320  48.774  49.145  1.00  0.00     0.034 C 
BRANCH  23  25
HETATM   25  C   UNL     1      24.837  49.149  48.779  1.00  0.00     0.022 C 
HETATM   26  C   UNL     1      24.359  50.268  47.864  1.00  0.00     0.007 C 
ENDBRANCH  23  25
ENDBRANCH  21  23
BRANCH  22  27
HETATM   27  C   UNL     1      25.784  46.956  51.507  1.00  0.00     0.038 A 
HETATM   28  C   UNL     1      25.452  47.078  52.975  1.00  0.00     0.011 A 
HETATM   29  C   UNL     1      26.522  46.136  52.537  1.00  0.00     0.011 A 
ENDBRANCH  22  27
ENDBRANCH   1  18
TORSDOF 10
ENDMDL
MODEL 5
REMARK VINA RESULT:      -7.8      2.007      3.168
REMARK  10 active torsions:
REMARK  status: ('A' for Active; 'I' for Inactive)
REMARK    1  A    between atoms: C_2  and  C_3 
REMARK    2  A    between atoms: C_3  and  N_4 
REMARK    3  A    between atoms: C_7  and  C_8 
REMARK       I    between atoms: C_8  and  N_9 
REMARK    4  A    between atoms: N_9  and  C_10 
REMARK    5  A    between atoms: C_10  and  C_11 
REMARK    6  A    between atoms: C_11  and  O_12 
REMARK    7  A    between atoms: C_11  and  C_13 
REMARK    8  A    between atoms: C_13  and  O_14 
REMARK    9  A    between atoms: O_14  and  C_15 
REMARK   10  A    between atoms: C_23  and  C_24 
ROOT
HETATM    1  C   UNL     1      26.008  44.921  52.628  1.00  0.00     0.255 C 
HETATM    2  N   UNL     1      26.439  45.508  51.465  1.00  0.00    -0.354 N 
HETATM    3  O   UNL     1      24.835  44.625  52.830  1.00  0.00    -0.268 OA
HETATM    4  H   UNL     1      27.431  45.656  51.332  1.00  0.00     0.162 HD
ENDROOT
BRANCH   2   5
HETATM    5  C   UNL     1      25.585  45.589  50.295  1.00  0.00     0.156 C 
BRANCH   5   6
HETATM    6  C   UNL     1      25.379  47.029  49.825  1.00  0.00     0.160 C 
BRANCH   6   7
HETATM    7  O   UNL     1      26.012  47.921  50.759  1.00  0.00    -0.392 OA
HETATM    8  H   UNL     1      26.916  48.062  50.416  1.00  0.00     0.210 HD
ENDBRANCH   6   7
BRANCH   6   9
HETATM    9  C   UNL     1      23.895  47.389  49.707  1.00  0.00     0.209 C 
BRANCH   9  10
HETATM   10  O   UNL     1      23.788  48.812  49.834  1.00  0.00    -0.349 OA
BRANCH  10  11
HETATM   11  C   UNL     1      22.728  49.407  49.207  1.00  0.00     0.069 A 
HETATM   12  C   UNL     1      21.866  48.520  48.554  1.00  0.00     0.043 A 
HETATM   13  C   UNL     1      20.739  48.986  47.865  1.00  0.00    -0.059 A 
HETATM   14  C   UNL     1      19.819  48.035  47.159  1.00  0.00     0.048 C 
HETATM   15  C   UNL     1      20.496  50.363  47.814  1.00  0.00     0.007 A 
HETATM   16  C   UNL     1      21.354  51.252  48.460  1.00  0.00     0.003 A 
HETATM   17  C   UNL     1      22.466  50.776  49.159  1.00  0.00     0.037 A 
ENDBRANCH  10  11
ENDBRANCH   9  10
ENDBRANCH   6   9
ENDBRANCH   5   6
ENDBRANCH   2   5
BRANCH   1  18
HETATM   18  C   UNL     1      27.023  44.757  53.644  1.00  0.00     0.075 A 
HETATM   19  C   UNL     1      27.640  43.521  53.935  1.00  0.00     0.158 A 
HETATM   20  N   UNL     1      28.608  43.623  54.839  1.00  0.00    -0.183 NA
HETATM   21  N   UNL     1      28.689  44.948  55.077  1.00  0.00    -0.268 N 
HETATM   22  C   UNL     1      27.705  45.680  54.431  1.00  0.00     0.052 A 
BRANCH  21  23
HETATM   23  C   UNL     1      29.793  45.439  55.905  1.00  0.00     0.106 C 
HETATM   24  C   UNL     1      30.980  44.471  55.913  1.00  0.00     0.034 C 
BRANCH  23  25
HETATM   25  C   UNL     1      29.335  45.867  57.312  1.00  0.00     0.022 C 
HETATM   26  C   UNL     1      30.281  45.518  58.454  1.00  0.00     0.007 C 
ENDBRANCH  23  25
ENDBRANCH  21  23
BRANCH  22  27
HETATM   27  C   UNL     1      27.549  47.201  54.539  1.00  0.00     0.038 A 
HETATM   28  C   UNL     1      26.195  47.861  54.431  1.00  0.00     0.011 A 
HETATM   29  C   UNL     1      26.895  47.826  55.747  1.00  0.00     0.011 A 
ENDBRANCH  22  27
ENDBRANCH   1  18
TORSDOF 10
ENDMDL
MODEL 6
REMARK VINA RESULT:      -7.8     12.256     15.098
REMARK  10 active torsions:
REMARK  status: ('A' for Active; 'I' for Inactive)
REMARK    1  A    between atoms: C_2  and  C_3 
REMARK    2  A    between atoms: C_3  and  N_4 
REMARK    3  A    between atoms: C_7  and  C_8 
REMARK       I    between atoms: C_8  and  N_9 
REMARK    4  A    between atoms: N_9  and  C_10 
REMARK    5  A    between atoms: C_10  and  C_11 
REMARK    6  A    between atoms: C_11  and  O_12 
REMARK    7  A    between atoms: C_11  and  C_13 
REMARK    8  A    between atoms: C_13  and  O_14 
REMARK    9  A    between atoms: O_14  and  C_15 
REMARK   10  A    between atoms: C_23  and  C_24 
ROOT
HETATM    1  C   UNL     1      32.094  52.423  39.841  1.00  0.00     0.255 C 
HETATM    2  N   UNL     1      33.314  52.254  39.238  1.00  0.00    -0.354 N 
HETATM    3  O   UNL     1      31.877  53.297  40.672  1.00  0.00    -0.268 OA
HETATM    4  H   UNL     1      33.404  51.561  38.505  1.00  0.00     0.162 HD
ENDROOT
BRANCH   2   5
HETATM    5  C   UNL     1      34.361  53.252  39.351  1.00  0.00     0.156 C 
BRANCH   5   6
HETATM    6  C   UNL     1      35.738  52.626  39.576  1.00  0.00     0.160 C 
BRANCH   6   7
HETATM    7  O   UNL     1      36.544  52.837  38.404  1.00  0.00    -0.392 OA
HETATM    8  H   UNL     1      35.946  52.696  37.645  1.00  0.00     0.210 HD
ENDBRANCH   6   7
BRANCH   6   9
HETATM    9  C   UNL     1      35.646  51.124  39.865  1.00  0.00     0.209 C 
BRANCH   9  10
HETATM   10  O   UNL     1      35.606  50.964  41.288  1.00  0.00    -0.349 OA
BRANCH  10  11
HETATM   11  C   UNL     1      34.407  50.590  41.830  1.00  0.00     0.069 A 
HETATM   12  C   UNL     1      33.965  51.400  42.881  1.00  0.00     0.043 A 
HETATM   13  C   UNL     1      32.755  51.135  43.536  1.00  0.00    -0.059 A 
HETATM   14  C   UNL     1      32.286  52.000  44.668  1.00  0.00     0.048 C 
HETATM   15  C   UNL     1      31.998  50.028  43.140  1.00  0.00     0.007 A 
HETATM   16  C   UNL     1      32.435  49.216  42.095  1.00  0.00     0.003 A 
HETATM   17  C   UNL     1      33.635  49.497  41.438  1.00  0.00     0.037 A 
ENDBRANCH  10  11
ENDBRANCH   9  10
ENDBRANCH   6   9
ENDBRANCH   5   6
ENDBRANCH   2   5
BRANCH   1  18
HETATM   18  C   UNL     1      31.097  51.434  39.494  1.00  0.00     0.075 A 
HETATM   19  C   UNL     1      31.274  50.476  38.472  1.00  0.00     0.158 A 
HETATM   20  N   UNL     1      30.270  49.611  38.391  1.00  0.00    -0.183 NA
HETATM   21  N   UNL     1      29.471  49.947  39.424  1.00  0.00    -0.268 N 
HETATM   22  C   UNL     1      29.888  51.089  40.089  1.00  0.00     0.052 A 
BRANCH  21  23
HETATM   23  C   UNL     1      28.342  49.070  39.744  1.00  0.00     0.106 C 
HETATM   24  C   UNL     1      28.802  47.731  40.331  1.00  0.00     0.034 C 
BRANCH  23  25
HETATM   25  C   UNL     1      27.353  48.923  38.572  1.00  0.00     0.022 C 
HETATM   26  C   UNL     1      26.697  50.210  38.090  1.00  0.00     0.007 C 
ENDBRANCH  23  25
ENDBRANCH  21  23
BRANCH  22  27
HETATM   27  C   UNL     1      29.158  51.706  41.287  1.00  0.00     0.038 A 
HETATM   28  C   UNL     1      28.426  53.022  41.167  1.00  0.00     0.011 A 
HETATM   29  C   UNL     1      27.650  51.759  41.330  1.00  0.00     0.011 A 
ENDBRANCH  22  27
ENDBRANCH   1  18
TORSDOF 10
ENDMDL
MODEL 7
REMARK VINA RESULT:      -7.8     12.034     14.281
REMARK  10 active torsions:
REMARK  status: ('A' for Active; 'I' for Inactive)
REMARK    1  A    between atoms: C_2  and  C_3 
REMARK    2  A    between atoms: C_3  and  N_4 
REMARK    3  A    between atoms: C_7  and  C_8 
REMARK       I    between atoms: C_8  and  N_9 
REMARK    4  A    between atoms: N_9  and  C_10 
REMARK    5  A    between atoms: C_10  and  C_11 
REMARK    6  A    between atoms: C_11  and  O_12 
REMARK    7  A    between atoms: C_11  and  C_13 
REMARK    8  A    between atoms: C_13  and  O_14 
REMARK    9  A    between atoms: O_14  and  C_15 
REMARK   10  A    between atoms: C_23  and  C_24 
ROOT
HETATM    1  C   UNL     1      29.086  51.952  38.308  1.00  0.00     0.255 C 
HETATM    2  N   UNL     1      28.369  50.787  38.215  1.00  0.00    -0.354 N 
HETATM    3  O   UNL     1      28.613  53.050  38.037  1.00  0.00    -0.268 OA
HETATM    4  H   UNL     1      28.797  49.924  38.526  1.00  0.00     0.162 HD
ENDROOT
BRANCH   2   5
HETATM    5  C   UNL     1      26.929  50.796  38.033  1.00  0.00     0.156 C 
BRANCH   5   6
HETATM    6  C   UNL     1      26.210  49.912  39.054  1.00  0.00     0.160 C 
BRANCH   6   7
HETATM    7  O   UNL     1      26.235  50.563  40.335  1.00  0.00    -0.392 OA
HETATM    8  H   UNL     1      26.323  51.517  40.143  1.00  0.00     0.210 HD
ENDBRANCH   6   7
BRANCH   6   9
HETATM    9  C   UNL     1      26.859  48.530  39.175  1.00  0.00     0.209 C 
BRANCH   9  10
HETATM   10  O   UNL     1      27.544  48.487  40.433  1.00  0.00    -0.349 OA
BRANCH  10  11
HETATM   11  C   UNL     1      28.905  48.366  40.387  1.00  0.00     0.069 A 
HETATM   12  C   UNL     1      29.565  48.754  41.557  1.00  0.00     0.043 A 
HETATM   13  C   UNL     1      30.961  48.687  41.654  1.00  0.00    -0.059 A 
HETATM   14  C   UNL     1      31.668  49.111  42.907  1.00  0.00     0.048 C 
HETATM   15  C   UNL     1      31.697  48.248  40.549  1.00  0.00     0.007 A 
HETATM   16  C   UNL     1      31.045  47.862  39.378  1.00  0.00     0.003 A 
HETATM   17  C   UNL     1      29.652  47.917  39.297  1.00  0.00     0.037 A 
ENDBRANCH  10  11
ENDBRANCH   9  10
ENDBRANCH   6   9
ENDBRANCH   5   6
ENDBRANCH   2   5
BRANCH   1  18
HETATM   18  C   UNL     1      30.479  51.787  38.662  1.00  0.00     0.075 A 
HETATM   19  C   UNL     1      31.437  51.208  37.802  1.00  0.00     0.158 A 
HETATM   20  N   UNL     1      32.669  51.244  38.297  1.00  0.00    -0.183 NA
HETATM   21  N   UNL     1      32.533  51.930  39.450  1.00  0.00    -0.268 N 
HETATM   22  C   UNL     1      31.215  52.227  39.757  1.00  0.00     0.052 A 
BRANCH  21  23
HETATM   23  C   UNL     1      33.746  52.315  40.177  1.00  0.00     0.106 C 
HETATM   24  C   UNL     1      34.704  53.133  39.304  1.00  0.00     0.034 C 
BRANCH  23  25
HETATM   25  C   UNL     1      34.419  51.123  40.883  1.00  0.00     0.022 C 
HETATM   26  C   UNL     1      34.642  51.278  42.382  1.00  0.00     0.007 C 
ENDBRANCH  23  25
ENDBRANCH  21  23
BRANCH  22  27
HETATM   27  C   UNL     1      30.771  52.980  41.015  1.00  0.00     0.038 A 
HETATM   28  C   UNL     1      29.665  52.451  41.898  1.00  0.00     0.011 A 
HETATM   29  C   UNL     1      31.073  52.436  42.391  1.00  0.00     0.011 A 
ENDBRANCH  22  27
ENDBRANCH   1  18
TORSDOF 10
ENDMDL
MODEL 8
REMARK VINA RESULT:      -7.7      2.081      3.474
REMARK  10 active torsions:
REMARK  status: ('A' for Active; 'I' for Inactive)
REMARK    1  A    between atoms: C_2  and  C_3 
REMARK    2  A    between atoms: C_3  and  N_4 
REMARK    3  A    between atoms: C_7  and  C_8 
REMARK       I    between atoms: C_8  and  N_9 
REMARK    4  A    between atoms: N_9  and  C_10 
REMARK    5  A    between atoms: C_10  and  C_11 
REMARK    6  A    between atoms: C_11  and  O_12 
REMARK    7  A    between atoms: C_11  and  C_13 
REMARK    8  A    between atoms: C_13  and  O_14 
REMARK    9  A    between atoms: O_14  and  C_15 
REMARK   10  A    between atoms: C_23  and  C_24 
ROOT
HETATM    1  C   UNL     1      26.298  45.330  53.349  1.00  0.00     0.255 C 
HETATM    2  N   UNL     1      26.460  45.989  52.158  1.00  0.00    -0.354 N 
HETATM    3  O   UNL     1      25.305  44.661  53.612  1.00  0.00    -0.268 OA
HETATM    4  H   UNL     1      27.338  46.460  51.976  1.00  0.00     0.162 HD
ENDROOT
BRANCH   2   5
HETATM    5  C   UNL     1      25.586  45.738  51.027  1.00  0.00     0.156 C 
BRANCH   5   6
HETATM    6  C   UNL     1      25.513  46.931  50.074  1.00  0.00     0.160 C 
BRANCH   6   7
HETATM    7  O   UNL     1      26.290  48.012  50.617  1.00  0.00    -0.392 OA
HETATM    8  H   UNL     1      25.776  48.822  50.435  1.00  0.00     0.210 HD
ENDBRANCH   6   7
BRANCH   6   9
HETATM    9  C   UNL     1      24.073  47.403  49.853  1.00  0.00     0.209 C 
BRANCH   9  10
HETATM   10  O   UNL     1      24.108  48.827  49.700  1.00  0.00    -0.349 OA
BRANCH  10  11
HETATM   11  C   UNL     1      22.998  49.414  49.158  1.00  0.00     0.069 A 
HETATM   12  C   UNL     1      22.168  48.543  48.446  1.00  0.00     0.043 A 
HETATM   13  C   UNL     1      20.996  49.004  47.832  1.00  0.00    -0.059 A 
HETATM   14  C   UNL     1      20.111  48.070  47.062  1.00  0.00     0.048 C 
HETATM   15  C   UNL     1      20.675  50.363  47.918  1.00  0.00     0.007 A 
HETATM   16  C   UNL     1      21.500  51.236  48.624  1.00  0.00     0.003 A 
HETATM   17  C   UNL     1      22.658  50.764  49.247  1.00  0.00     0.037 A 
ENDBRANCH  10  11
ENDBRANCH   9  10
ENDBRANCH   6   9
ENDBRANCH   5   6
ENDBRANCH   2   5
BRANCH   1  18
HETATM   18  C   UNL     1      27.347  45.552  54.320  1.00  0.00     0.075 A 
HETATM   19  C   UNL     1      27.465  46.737  55.079  1.00  0.00     0.158 A 
HETATM   20  N   UNL     1      28.445  46.685  55.974  1.00  0.00    -0.183 NA
HETATM   21  N   UNL     1      28.916  45.426  55.864  1.00  0.00    -0.268 N 
HETATM   22  C   UNL     1      28.333  44.713  54.829  1.00  0.00     0.052 A 
BRANCH  21  23
HETATM   23  C   UNL     1      29.901  44.964  56.845  1.00  0.00     0.106 C 
HETATM   24  C   UNL     1      30.136  45.995  57.953  1.00  0.00     0.034 C 
BRANCH  23  25
HETATM   25  C   UNL     1      31.198  44.454  56.190  1.00  0.00     0.022 C 
HETATM   26  C   UNL     1      31.961  43.387  56.965  1.00  0.00     0.007 C 
ENDBRANCH  23  25
ENDBRANCH  21  23
BRANCH  22  27
HETATM   27  C   UNL     1      28.692  43.268  54.465  1.00  0.00     0.038 A 
HETATM   28  C   UNL     1      28.252  42.655  53.157  1.00  0.00     0.011 A 
HETATM   29  C   UNL     1      29.693  42.971  53.375  1.00  0.00     0.011 A 
ENDBRANCH  22  27
ENDBRANCH   1  18
TORSDOF 10
ENDMDL
MODEL 9
REMARK VINA RESULT:      -7.6      3.520      9.577
REMARK  10 active torsions:
REMARK  status: ('A' for Active; 'I' for Inactive)
REMARK    1  A    between atoms: C_2  and  C_3 
REMARK    2  A    between atoms: C_3  and  N_4 
REMARK    3  A    between atoms: C_7  and  C_8 
REMARK       I    between atoms: C_8  and  N_9 
REMARK    4  A    between atoms: N_9  and  C_10 
REMARK    5  A    between atoms: C_10  and  C_11 
REMARK    6  A    between atoms: C_11  and  O_12 
REMARK    7  A    between atoms: C_11  and  C_13 
REMARK    8  A    between atoms: C_13  and  O_14 
REMARK    9  A    between atoms: O_14  and  C_15 
REMARK   10  A    between atoms: C_23  and  C_24 
ROOT
HETATM    1  C   UNL     1      23.677  47.776  49.503  1.00  0.00     0.255 C 
HETATM    2  N   UNL     1      23.996  46.634  50.190  1.00  0.00    -0.354 N 
HETATM    3  O   UNL     1      24.419  48.751  49.448  1.00  0.00    -0.268 OA
HETATM    4  H   UNL     1      23.372  45.838  50.132  1.00  0.00     0.162 HD
ENDROOT
BRANCH   2   5
HETATM    5  C   UNL     1      25.338  46.399  50.690  1.00  0.00     0.156 C 
BRANCH   5   6
HETATM    6  C   UNL     1      25.449  45.081  51.457  1.00  0.00     0.160 C 
BRANCH   6   7
HETATM    7  O   UNL     1      24.165  44.756  52.016  1.00  0.00    -0.392 OA
HETATM    8  H   UNL     1      24.156  45.161  52.906  1.00  0.00     0.210 HD
ENDBRANCH   6   7
BRANCH   6   9
HETATM    9  C   UNL     1      26.488  45.156  52.581  1.00  0.00     0.209 C 
BRANCH   9  10
HETATM   10  O   UNL     1      27.235  43.934  52.555  1.00  0.00    -0.349 OA
BRANCH  10  11
HETATM   11  C   UNL     1      28.311  43.854  53.395  1.00  0.00     0.069 A 
HETATM   12  C   UNL     1      28.303  44.782  54.442  1.00  0.00     0.043 A 
HETATM   13  C   UNL     1      29.344  44.822  55.378  1.00  0.00    -0.059 A 
HETATM   14  C   UNL     1      29.338  45.823  56.495  1.00  0.00     0.048 C 
HETATM   15  C   UNL     1      30.414  43.931  55.241  1.00  0.00     0.007 A 
HETATM   16  C   UNL     1      30.429  43.006  54.199  1.00  0.00     0.003 A 
HETATM   17  C   UNL     1      29.378  42.964  53.279  1.00  0.00     0.037 A 
ENDBRANCH  10  11
ENDBRANCH   9  10
ENDBRANCH   6   9
ENDBRANCH   5   6
ENDBRANCH   2   5
BRANCH   1  18
HETATM   18  C   UNL     1      22.355  47.789  48.916  1.00  0.00     0.075 A 
HETATM   19  C   UNL     1      21.750  46.653  48.336  1.00  0.00     0.158 A 
HETATM   20  N   UNL     1      20.499  46.872  47.946  1.00  0.00    -0.183 NA
HETATM   21  N   UNL     1      20.251  48.134  48.352  1.00  0.00    -0.268 N 
HETATM   22  C   UNL     1      21.363  48.764  48.887  1.00  0.00     0.052 A 
BRANCH  21  23
HETATM   23  C   UNL     1      18.883  48.644  48.239  1.00  0.00     0.106 C 
HETATM   24  C   UNL     1      17.932  47.962  49.228  1.00  0.00     0.034 C 
BRANCH  23  25
HETATM   25  C   UNL     1      18.367  48.646  46.788  1.00  0.00     0.022 C 
HETATM   26  C   UNL     1      18.764  49.849  45.942  1.00  0.00     0.007 C 
ENDBRANCH  23  25
ENDBRANCH  21  23
BRANCH  22  27
HETATM   27  C   UNL     1      21.371  50.205  49.409  1.00  0.00     0.038 A 
HETATM   28  C   UNL     1      22.305  51.244  48.834  1.00  0.00     0.011 A 
HETATM   29  C   UNL     1      20.841  51.337  48.562  1.00  0.00     0.011 A 
ENDBRANCH  22  27
ENDBRANCH   1  18
TORSDOF 10
ENDMDL
MODEL 10
REMARK VINA RESULT:      -7.6      3.709      7.492
REMARK  10 active torsions:
REMARK  status: ('A' for Active; 'I' for Inactive)
REMARK    1  A    between atoms: C_2  and  C_3 
REMARK    2  A    between atoms: C_3  and  N_4 
REMARK    3  A    between atoms: C_7  and  C_8 
REMARK       I    between atoms: C_8  and  N_9 
REMARK    4  A    between atoms: N_9  and  C_10 
REMARK    5  A    between atoms: C_10  and  C_11 
REMARK    6  A    between atoms: C_11  and  O_12 
REMARK    7  A    between atoms: C_11  and  C_13 
REMARK    8  A    between atoms: C_13  and  O_14 
REMARK    9  A    between atoms: O_14  and  C_15 
REMARK   10  A    between atoms: C_23  and  C_24 
ROOT
HETATM    1  C   UNL     1      26.377  43.101  50.851  1.00  0.00     0.255 C 
HETATM    2  N   UNL     1      25.451  43.306  51.841  1.00  0.00    -0.354 N 
HETATM    3  O   UNL     1      26.984  44.016  50.305  1.00  0.00    -0.268 OA
HETATM    4  H   UNL     1      25.043  42.503  52.302  1.00  0.00     0.162 HD
ENDROOT
BRANCH   2   5
HETATM    5  C   UNL     1      25.306  44.597  52.489  1.00  0.00     0.156 C 
BRANCH   5   6
HETATM    6  C   UNL     1      26.008  44.647  53.847  1.00  0.00     0.160 C 
BRANCH   6   7
HETATM    7  O   UNL     1      25.066  45.076  54.845  1.00  0.00    -0.392 OA
HETATM    8  H   UNL     1      24.207  45.139  54.384  1.00  0.00     0.210 HD
ENDBRANCH   6   7
BRANCH   6   9
HETATM    9  C   UNL     1      27.208  45.599  53.838  1.00  0.00     0.209 C 
BRANCH   9  10
HETATM   10  O   UNL     1      28.380  44.813  54.088  1.00  0.00    -0.349 OA
BRANCH  10  11
HETATM   11  C   UNL     1      29.016  45.022  55.281  1.00  0.00     0.069 A 
HETATM   12  C   UNL     1      30.093  44.164  55.525  1.00  0.00     0.043 A 
HETATM   13  C   UNL     1      30.836  44.258  56.709  1.00  0.00    -0.059 A 
HETATM   14  C   UNL     1      31.986  43.332  56.972  1.00  0.00     0.048 C 
HETATM   15  C   UNL     1      30.471  45.212  57.664  1.00  0.00     0.007 A 
HETATM   16  C   UNL     1      29.397  46.068  57.428  1.00  0.00     0.003 A 
HETATM   17  C   UNL     1      28.672  45.977  56.237  1.00  0.00     0.037 A 
ENDBRANCH  10  11
ENDBRANCH   9  10
ENDBRANCH   6   9
ENDBRANCH   5   6
ENDBRANCH   2   5
BRANCH   1  18
HETATM   18  C   UNL     1      26.526  41.727  50.427  1.00  0.00     0.075 A 
HETATM   19  C   UNL     1      25.813  41.166  49.344  1.00  0.00     0.158 A 
HETATM   20  N   UNL     1      26.176  39.917  49.074  1.00  0.00    -0.183 NA
HETATM   21  N   UNL     1      27.196  39.687  49.926  1.00  0.00    -0.268 N 
HETATM   22  C   UNL     1      27.408  40.726  50.818  1.00  0.00     0.052 A 
BRANCH  21  23
HETATM   23  C   UNL     1      27.961  38.446  49.775  1.00  0.00     0.106 C 
HETATM   24  C   UNL     1      29.068  38.579  48.724  1.00  0.00     0.034 C 
BRANCH  23  25
HETATM   25  C   UNL     1      27.060  37.214  49.571  1.00  0.00     0.022 C 
HETATM   26  C   UNL     1      27.018  36.647  48.158  1.00  0.00     0.007 C 
ENDBRANCH  23  25
ENDBRANCH  21  23
BRANCH  22  27
HETATM   27  C   UNL     1      28.487  40.722  51.906  1.00  0.00     0.038 A 
HETATM   28  C   UNL     1      29.125  42.005  52.383  1.00  0.00     0.011 A 
HETATM   29  C   UNL     1      28.197  41.264  53.285  1.00  0.00     0.011 A 
ENDBRANCH  22  27
ENDBRANCH   1  18
TORSDOF 10
ENDMDL
