MODEL 1
REMARK VINA RESULT:      -9.5      0.000      0.000
REMARK  8 active torsions:
REMARK  status: ('A' for Active; 'I' for Inactive)
REMARK    1  A    between atoms: C_7  and  C_8 
REMARK       I    between atoms: C_8  and  N_9 
REMARK    2  A    between atoms: N_9  and  N_10 
REMARK    3  A    between atoms: N_10  and  C_11 
REMARK    4  A    between atoms: C_11  and  N_12 
REMARK    5  A    between atoms: N_12  and  C_13 
REMARK    6  A    between atoms: N_15  and  C_16 
REMARK    7  A    between atoms: C_16  and  C_17 
REMARK    8  A    between atoms: C_29  and  C_30 
ROOT
HETATM    1  C   UNL     1      22.957  47.595  49.056  1.00  0.00     0.290 C 
HETATM    2  N   UNL     1      23.925  47.991  49.957  1.00  0.00    -0.262 N 
HETATM    3  O   UNL     1      22.959  46.529  48.447  1.00  0.00    -0.264 OA
HETATM    4  H   UNL     1      23.767  48.848  50.486  1.00  0.00     0.190 HD
ENDROOT
BRANCH   2   5
HETATM    5  N   UNL     1      24.921  47.116  50.388  1.00  0.00    -0.273 N 
HETATM    6  H   UNL     1      24.629  46.272  50.893  1.00  0.00     0.189 HD
BRANCH   5   7
HETATM    7  C   UNL     1      26.183  47.150  49.859  1.00  0.00     0.192 C 
HETATM    8  S   UNL     1      26.976  48.550  49.374  1.00  0.00    -0.039 SA
BRANCH   7   9
HETATM    9  N   UNL     1      26.836  45.961  49.706  1.00  0.00    -0.315 N 
HETATM   10  H   UNL     1      27.268  45.814  48.804  1.00  0.00     0.170 HD
BRANCH   9  11
HETATM   11  C   UNL     1      26.891  44.909  50.595  1.00  0.00     0.151 A 
HETATM   12  N   UNL     1      26.787  45.034  51.922  1.00  0.00    -0.154 NA
HETATM   13  N   UNL     1      26.855  43.767  52.382  1.00  0.00    -0.275 N 
HETATM   14  C   UNL     1      27.016  42.843  51.390  1.00  0.00     0.116 A 
HETATM   15  C   UNL     1      27.048  43.557  50.215  1.00  0.00     0.071 A 
BRANCH  13  16
HETATM   16  C   UNL     1      26.831  43.507  53.816  1.00  0.00     0.192 C 
BRANCH  16  17
HETATM   17  C   UNL     1      28.146  43.830  54.463  1.00  0.00     0.000 A 
HETATM   18  C   UNL     1      28.305  45.013  55.190  1.00  0.00     0.124 A 
HETATM   19  F   UNL     1      27.271  45.857  55.318  1.00  0.00    -0.205 F 
HETATM   20  C   UNL     1      29.517  45.336  55.793  1.00  0.00     0.043 A 
HETATM   21  C   UNL     1      30.600  44.469  55.671  1.00  0.00     0.003 A 
HETATM   22  C   UNL     1      30.465  43.287  54.941  1.00  0.00     0.001 A 
HETATM   23  C   UNL     1      29.246  42.970  54.335  1.00  0.00     0.012 A 
ENDBRANCH  16  17
ENDBRANCH  13  16
ENDBRANCH   9  11
ENDBRANCH   7   9
ENDBRANCH   5   7
ENDBRANCH   2   5
BRANCH   1  24
HETATM   24  C   UNL     1      21.908  48.615  48.897  1.00  0.00     0.150 A 
HETATM   25  N   UNL     1      20.749  48.343  48.252  1.00  0.00    -0.165 NA
HETATM   26  N   UNL     1      20.051  49.483  48.367  1.00  0.00    -0.240 N 
HETATM   27  C   UNL     1      20.737  50.503  48.959  1.00  0.00     0.123 A 
HETATM   28  C   UNL     1      18.704  49.607  47.855  1.00  0.00     0.221 C 
HETATM   29  N   UNL     1      20.209  51.739  49.072  1.00  0.00    -0.371 N 
HETATM   30  C   UNL     1      21.936  49.964  49.351  1.00  0.00     0.089 A 
HETATM   31  C   UNL     1      18.951  52.126  48.441  1.00  0.00     0.081 C 
HETATM   32  H   UNL     1      20.735  52.491  49.515  1.00  0.00     0.161 HD
HETATM   33  C   UNL     1      17.937  52.525  49.507  1.00  0.00     0.032 C 
HETATM   34  C   UNL     1      18.438  51.066  47.451  1.00  0.00     0.061 C 
BRANCH  28  35
HETATM   35  C   UNL     1      17.723  49.048  48.859  1.00  0.00     0.409 C 
HETATM   36  F   UNL     1      16.500  49.617  48.744  1.00  0.00    -0.169 F 
HETATM   37  F   UNL     1      17.554  47.714  48.779  1.00  0.00    -0.169 F 
HETATM   38  F   UNL     1      18.148  49.315  50.122  1.00  0.00    -0.169 F 
ENDBRANCH  28  35
ENDBRANCH   1  24
TORSDOF 8
ENDMDL
MODEL 2
REMARK VINA RESULT:      -9.5      1.791      2.039
REMARK  8 active torsions:
REMARK  status: ('A' for Active; 'I' for Inactive)
REMARK    1  A    between atoms: C_7  and  C_8 
REMARK       I    between atoms: C_8  and  N_9 
REMARK    2  A    between atoms: N_9  and  N_10 
REMARK    3  A    between atoms: N_10  and  C_11 
REMARK    4  A    between atoms: C_11  and  N_12 
REMARK    5  A    between atoms: N_12  and  C_13 
REMARK    6  A    between atoms: N_15  and  C_16 
REMARK    7  A    between atoms: C_16  and  C_17 
REMARK    8  A    between atoms: C_29  and  C_30 
ROOT
HETATM    1  C   UNL     1      23.771  49.047  49.386  1.00  0.00     0.290 C 
HETATM    2  N   UNL     1      23.626  47.840  50.040  1.00  0.00    -0.262 N 
HETATM    3  O   UNL     1      24.847  49.575  49.118  1.00  0.00    -0.264 OA
HETATM    4  H   UNL     1      22.689  47.444  50.113  1.00  0.00     0.190 HD
ENDROOT
BRANCH   2   5
HETATM    5  N   UNL     1      24.720  47.019  50.306  1.00  0.00    -0.273 N 
HETATM    6  H   UNL     1      25.591  47.469  50.610  1.00  0.00     0.189 HD
BRANCH   5   7
HETATM    7  C   UNL     1      24.571  45.677  50.529  1.00  0.00     0.192 C 
HETATM    8  S   UNL     1      24.636  44.498  49.334  1.00  0.00    -0.039 SA
BRANCH   7   9
HETATM    9  N   UNL     1      24.344  45.271  51.813  1.00  0.00    -0.315 N 
HETATM   10  H   UNL     1      23.376  45.104  52.053  1.00  0.00     0.170 HD
BRANCH   9  11
HETATM   11  C   UNL     1      25.261  45.161  52.837  1.00  0.00     0.151 A 
HETATM   12  N   UNL     1      26.277  46.006  53.036  1.00  0.00    -0.154 NA
HETATM   13  N   UNL     1      26.881  45.543  54.152  1.00  0.00    -0.275 N 
HETATM   14  C   UNL     1      26.289  44.420  54.655  1.00  0.00     0.116 A 
HETATM   15  C   UNL     1      25.236  44.144  53.817  1.00  0.00     0.071 A 
BRANCH  13  16
HETATM   16  C   UNL     1      28.086  46.191  54.655  1.00  0.00     0.192 C 
BRANCH  16  17
HETATM   17  C   UNL     1      29.109  45.190  55.109  1.00  0.00     0.000 A 
HETATM   18  C   UNL     1      29.762  45.353  56.333  1.00  0.00     0.124 A 
HETATM   19  F   UNL     1      29.463  46.404  57.110  1.00  0.00    -0.205 F 
HETATM   20  C   UNL     1      30.718  44.442  56.772  1.00  0.00     0.043 A 
HETATM   21  C   UNL     1      31.038  43.343  55.977  1.00  0.00     0.003 A 
HETATM   22  C   UNL     1      30.404  43.168  54.746  1.00  0.00     0.001 A 
HETATM   23  C   UNL     1      29.447  44.088  54.310  1.00  0.00     0.012 A 
ENDBRANCH  16  17
ENDBRANCH  13  16
ENDBRANCH   9  11
ENDBRANCH   7   9
ENDBRANCH   5   7
ENDBRANCH   2   5
BRANCH   1  24
HETATM   24  C   UNL     1      22.471  49.646  49.045  1.00  0.00     0.150 A 
HETATM   25  N   UNL     1      21.443  48.893  48.588  1.00  0.00    -0.165 NA
HETATM   26  N   UNL     1      20.443  49.777  48.452  1.00  0.00    -0.240 N 
HETATM   27  C   UNL     1      20.800  51.071  48.697  1.00  0.00     0.123 A 
HETATM   28  C   UNL     1      19.119  49.371  48.032  1.00  0.00     0.221 C 
HETATM   29  N   UNL     1      19.934  52.089  48.520  1.00  0.00    -0.371 N 
HETATM   30  C   UNL     1      22.104  51.019  49.123  1.00  0.00     0.089 A 
HETATM   31  C   UNL     1      18.620  51.918  47.910  1.00  0.00     0.081 C 
HETATM   32  H   UNL     1      20.217  53.050  48.707  1.00  0.00     0.161 HD
HETATM   33  C   UNL     1      17.531  52.294  48.909  1.00  0.00     0.032 C 
HETATM   34  C   UNL     1      18.441  50.526  47.279  1.00  0.00     0.061 C 
BRANCH  28  35
HETATM   35  C   UNL     1      18.341  48.859  49.221  1.00  0.00     0.409 C 
HETATM   36  F   UNL     1      17.008  49.041  49.072  1.00  0.00    -0.169 F 
HETATM   37  F   UNL     1      18.540  47.553  49.487  1.00  0.00    -0.169 F 
HETATM   38  F   UNL     1      18.695  49.545  50.339  1.00  0.00    -0.169 F 
ENDBRANCH  28  35
ENDBRANCH   1  24
TORSDOF 8
ENDMDL
MODEL 3
REMARK VINA RESULT:      -9.4      2.465      3.095
REMARK  8 active torsions:
REMARK  status: ('A' for Active; 'I' for Inactive)
REMARK    1  A    between atoms: C_7  and  C_8 
REMARK       I    between atoms: C_8  and  N_9 
REMARK    2  A    between atoms: N_9  and  N_10 
REMARK    3  A    between atoms: N_10  and  C_11 
REMARK    4  A    between atoms: C_11  and  N_12 
REMARK    5  A    between atoms: N_12  and  C_13 
REMARK    6  A    between atoms: N_15  and  C_16 
REMARK    7  A    between atoms: C_16  and  C_17 
REMARK    8  A    between atoms: C_29  and  C_30 
ROOT
HETATM    1  C   UNL     1      19.754  45.809  48.719  1.00  0.00     0.290 C 
HETATM    2  N   UNL     1      21.080  45.858  49.098  1.00  0.00    -0.262 N 
HETATM    3  O   UNL     1      19.161  44.792  48.370  1.00  0.00    -0.264 OA
HETATM    4  H   UNL     1      21.441  46.735  49.474  1.00  0.00     0.190 HD
ENDROOT
BRANCH   2   5
HETATM    5  N   UNL     1      21.829  44.697  49.282  1.00  0.00    -0.273 N 
HETATM    6  H   UNL     1      21.386  43.801  49.048  1.00  0.00     0.189 HD
BRANCH   5   7
HETATM    7  C   UNL     1      23.193  44.735  49.400  1.00  0.00     0.192 C 
HETATM    8  S   UNL     1      24.239  43.605  48.727  1.00  0.00    -0.039 SA
BRANCH   7   9
HETATM    9  N   UNL     1      23.736  45.758  50.123  1.00  0.00    -0.315 N 
HETATM   10  H   UNL     1      23.500  46.688  49.806  1.00  0.00     0.170 HD
BRANCH   9  11
HETATM   11  C   UNL     1      24.638  45.669  51.162  1.00  0.00     0.151 A 
HETATM   12  N   UNL     1      24.560  44.779  52.157  1.00  0.00    -0.154 NA
HETATM   13  N   UNL     1      25.651  45.028  52.912  1.00  0.00    -0.275 N 
HETATM   14  C   UNL     1      26.409  46.059  52.435  1.00  0.00     0.116 A 
HETATM   15  C   UNL     1      25.772  46.500  51.300  1.00  0.00     0.071 A 
BRANCH  13  16
HETATM   16  C   UNL     1      25.878  44.276  54.139  1.00  0.00     0.192 C 
BRANCH  16  17
HETATM   17  C   UNL     1      27.323  43.905  54.306  1.00  0.00     0.000 A 
HETATM   18  C   UNL     1      28.186  44.730  55.032  1.00  0.00     0.124 A 
HETATM   19  F   UNL     1      27.715  45.854  55.592  1.00  0.00    -0.205 F 
HETATM   20  C   UNL     1      29.531  44.409  55.194  1.00  0.00     0.043 A 
HETATM   21  C   UNL     1      30.035  43.243  54.620  1.00  0.00     0.003 A 
HETATM   22  C   UNL     1      29.192  42.411  53.883  1.00  0.00     0.001 A 
HETATM   23  C   UNL     1      27.843  42.741  53.721  1.00  0.00     0.012 A 
ENDBRANCH  16  17
ENDBRANCH  13  16
ENDBRANCH   9  11
ENDBRANCH   7   9
ENDBRANCH   5   7
ENDBRANCH   2   5
BRANCH   1  24
HETATM   24  C   UNL     1      19.119  47.136  48.775  1.00  0.00     0.150 A 
HETATM   25  N   UNL     1      19.759  48.205  49.303  1.00  0.00    -0.165 NA
HETATM   26  N   UNL     1      18.892  49.212  49.120  1.00  0.00    -0.240 N 
HETATM   27  C   UNL     1      17.691  48.830  48.597  1.00  0.00     0.123 A 
HETATM   28  C   UNL     1      19.211  50.571  49.498  1.00  0.00     0.221 C 
HETATM   29  N   UNL     1      16.680  49.707  48.432  1.00  0.00    -0.371 N 
HETATM   30  C   UNL     1      17.816  47.491  48.324  1.00  0.00     0.089 A 
HETATM   31  C   UNL     1      16.724  51.075  48.937  1.00  0.00     0.081 C 
HETATM   32  H   UNL     1      15.788  49.405  48.042  1.00  0.00     0.161 HD
HETATM   33  C   UNL     1      16.631  52.060  47.777  1.00  0.00     0.032 C 
HETATM   34  C   UNL     1      17.922  51.319  49.873  1.00  0.00     0.061 C 
BRANCH  28  35
HETATM   35  C   UNL     1      20.018  51.230  48.403  1.00  0.00     0.409 C 
HETATM   36  F   UNL     1      19.786  52.561  48.333  1.00  0.00    -0.169 F 
HETATM   37  F   UNL     1      21.349  51.061  48.525  1.00  0.00    -0.169 F 
HETATM   38  F   UNL     1      19.666  50.718  47.194  1.00  0.00    -0.169 F 
ENDBRANCH  28  35
ENDBRANCH   1  24
TORSDOF 8
ENDMDL
MODEL 4
REMARK VINA RESULT:      -9.3      1.804      2.050
REMARK  8 active torsions:
REMARK  status: ('A' for Active; 'I' for Inactive)
REMARK    1  A    between atoms: C_7  and  C_8 
REMARK       I    between atoms: C_8  and  N_9 
REMARK    2  A    between atoms: N_9  and  N_10 
REMARK    3  A    between atoms: N_10  and  C_11 
REMARK    4  A    between atoms: C_11  and  N_12 
REMARK    5  A    between atoms: N_12  and  C_13 
REMARK    6  A    between atoms: N_15  and  C_16 
REMARK    7  A    between atoms: C_16  and  C_17 
REMARK    8  A    between atoms: C_29  and  C_30 
ROOT
HETATM    1  C   UNL     1      23.048  48.065  49.332  1.00  0.00     0.290 C 
HETATM    2  N   UNL     1      22.713  46.758  49.040  1.00  0.00    -0.262 N 
HETATM    3  O   UNL     1      24.133  48.430  49.777  1.00  0.00    -0.264 OA
HETATM    4  H   UNL     1      21.824  46.583  48.573  1.00  0.00     0.190 HD
ENDROOT
BRANCH   2   5
HETATM    5  N   UNL     1      23.664  45.739  49.068  1.00  0.00    -0.273 N 
HETATM    6  H   UNL     1      24.516  45.866  48.511  1.00  0.00     0.189 HD
BRANCH   5   7
HETATM    7  C   UNL     1      23.672  44.794  50.058  1.00  0.00     0.192 C 
HETATM    8  S   UNL     1      22.928  43.291  49.947  1.00  0.00    -0.039 SA
BRANCH   7   9
HETATM    9  N   UNL     1      24.322  45.100  51.219  1.00  0.00    -0.315 N 
HETATM   10  H   UNL     1      23.883  45.810  51.789  1.00  0.00     0.170 HD
BRANCH   9  11
HETATM   11  C   UNL     1      25.544  44.629  51.650  1.00  0.00     0.151 A 
HETATM   12  N   UNL     1      25.746  44.006  52.815  1.00  0.00    -0.154 NA
HETATM   13  N   UNL     1      27.060  43.694  52.802  1.00  0.00    -0.275 N 
HETATM   14  C   UNL     1      27.700  44.115  51.672  1.00  0.00     0.116 A 
HETATM   15  C   UNL     1      26.741  44.732  50.906  1.00  0.00     0.071 A 
BRANCH  13  16
HETATM   16  C   UNL     1      27.668  43.042  53.955  1.00  0.00     0.192 C 
BRANCH  16  17
HETATM   17  C   UNL     1      28.528  43.990  54.741  1.00  0.00     0.000 A 
HETATM   18  C   UNL     1      29.866  43.681  55.000  1.00  0.00     0.124 A 
HETATM   19  F   UNL     1      30.385  42.536  54.534  1.00  0.00    -0.205 F 
HETATM   20  C   UNL     1      30.680  44.541  55.732  1.00  0.00     0.043 A 
HETATM   21  C   UNL     1      30.156  45.735  56.221  1.00  0.00     0.003 A 
HETATM   22  C   UNL     1      28.820  46.058  55.981  1.00  0.00     0.001 A 
HETATM   23  C   UNL     1      28.007  45.189  55.248  1.00  0.00     0.012 A 
ENDBRANCH  16  17
ENDBRANCH  13  16
ENDBRANCH   9  11
ENDBRANCH   7   9
ENDBRANCH   5   7
ENDBRANCH   2   5
BRANCH   1  24
HETATM   24  C   UNL     1      21.938  48.990  49.053  1.00  0.00     0.150 A 
HETATM   25  N   UNL     1      20.800  48.568  48.453  1.00  0.00    -0.165 NA
HETATM   26  N   UNL     1      20.032  49.669  48.429  1.00  0.00    -0.240 N 
HETATM   27  C   UNL     1      20.652  50.795  48.885  1.00  0.00     0.123 A 
HETATM   28  C   UNL     1      18.681  49.644  47.913  1.00  0.00     0.221 C 
HETATM   29  N   UNL     1      20.047  52.000  48.846  1.00  0.00    -0.371 N 
HETATM   30  C   UNL     1      21.881  50.384  49.335  1.00  0.00     0.089 A 
HETATM   31  C   UNL     1      18.770  52.227  48.178  1.00  0.00     0.081 C 
HETATM   32  H   UNL     1      20.525  52.833  49.189  1.00  0.00     0.161 HD
HETATM   33  C   UNL     1      17.731  52.692  49.192  1.00  0.00     0.032 C 
HETATM   34  C   UNL     1      18.326  51.022  47.332  1.00  0.00     0.061 C 
BRANCH  28  35
HETATM   35  C   UNL     1      17.733  49.156  48.984  1.00  0.00     0.409 C 
HETATM   36  F   UNL     1      16.484  49.648  48.819  1.00  0.00    -0.169 F 
HETATM   37  F   UNL     1      17.631  47.814  49.056  1.00  0.00    -0.169 F 
HETATM   38  F   UNL     1      18.152  49.584  50.205  1.00  0.00    -0.169 F 
ENDBRANCH  28  35
ENDBRANCH   1  24
TORSDOF 8
ENDMDL
MODEL 5
REMARK VINA RESULT:      -9.3      2.491      3.461
REMARK  8 active torsions:
REMARK  status: ('A' for Active; 'I' for Inactive)
REMARK    1  A    between atoms: C_7  and  C_8 
REMARK       I    between atoms: C_8  and  N_9 
REMARK    2  A    between atoms: N_9  and  N_10 
REMARK    3  A    between atoms: N_10  and  C_11 
REMARK    4  A    between atoms: C_11  and  N_12 
REMARK    5  A    between atoms: N_12  and  C_13 
REMARK    6  A    between atoms: N_15  and  C_16 
REMARK    7  A    between atoms: C_16  and  C_17 
REMARK    8  A    between atoms: C_29  and  C_30 
ROOT
HETATM    1  C   UNL     1      24.805  46.527  49.556  1.00  0.00     0.290 C 
HETATM    2  N   UNL     1      24.804  45.170  49.301  1.00  0.00    -0.262 N 
HETATM    3  O   UNL     1      25.746  47.150  50.038  1.00  0.00    -0.264 OA
HETATM    4  H   UNL     1      24.009  44.777  48.798  1.00  0.00     0.190 HD
ENDROOT
BRANCH   2   5
HETATM    5  N   UNL     1      25.964  44.406  49.417  1.00  0.00    -0.273 N 
HETATM    6  H   UNL     1      26.694  44.536  48.708  1.00  0.00     0.189 HD
BRANCH   5   7
HETATM    7  C   UNL     1      26.304  43.796  50.595  1.00  0.00     0.192 C 
HETATM    8  S   UNL     1      27.404  42.533  50.731  1.00  0.00    -0.039 SA
BRANCH   7   9
HETATM    9  N   UNL     1      25.698  44.240  51.735  1.00  0.00    -0.315 N 
HETATM   10  H   UNL     1      24.724  44.494  51.640  1.00  0.00     0.170 HD
BRANCH   9  11
HETATM   11  C   UNL     1      26.280  44.472  52.963  1.00  0.00     0.151 A 
HETATM   12  N   UNL     1      27.285  45.328  53.174  1.00  0.00    -0.154 NA
HETATM   13  N   UNL     1      27.504  45.262  54.505  1.00  0.00    -0.275 N 
HETATM   14  C   UNL     1      26.680  44.379  55.141  1.00  0.00     0.116 A 
HETATM   15  C   UNL     1      25.876  43.845  54.163  1.00  0.00     0.071 A 
BRANCH  13  16
HETATM   16  C   UNL     1      28.585  46.032  55.106  1.00  0.00     0.192 C 
BRANCH  16  17
HETATM   17  C   UNL     1      29.573  45.148  55.811  1.00  0.00     0.000 A 
HETATM   18  C   UNL     1      29.999  45.456  57.106  1.00  0.00     0.124 A 
HETATM   19  F   UNL     1      29.512  46.542  57.724  1.00  0.00    -0.205 F 
HETATM   20  C   UNL     1      30.919  44.655  57.776  1.00  0.00     0.043 A 
HETATM   21  C   UNL     1      31.432  43.522  57.148  1.00  0.00     0.003 A 
HETATM   22  C   UNL     1      31.027  43.203  55.852  1.00  0.00     0.001 A 
HETATM   23  C   UNL     1      30.106  44.013  55.183  1.00  0.00     0.012 A 
ENDBRANCH  16  17
ENDBRANCH  13  16
ENDBRANCH   9  11
ENDBRANCH   7   9
ENDBRANCH   5   7
ENDBRANCH   2   5
BRANCH   1  24
HETATM   24  C   UNL     1      23.527  47.155  49.184  1.00  0.00     0.150 A 
HETATM   25  N   UNL     1      23.127  48.326  49.734  1.00  0.00    -0.165 NA
HETATM   26  N   UNL     1      21.969  48.586  49.109  1.00  0.00    -0.240 N 
HETATM   27  C   UNL     1      21.552  47.598  48.265  1.00  0.00     0.123 A 
HETATM   28  C   UNL     1      21.222  49.799  49.364  1.00  0.00     0.221 C 
HETATM   29  N   UNL     1      20.365  47.667  47.628  1.00  0.00    -0.371 N 
HETATM   30  C   UNL     1      22.560  46.667  48.260  1.00  0.00     0.089 A 
HETATM   31  C   UNL     1      19.374  48.702  47.903  1.00  0.00     0.081 C 
HETATM   32  H   UNL     1      20.068  46.920  47.002  1.00  0.00     0.161 HD
HETATM   33  C   UNL     1      19.128  49.531  46.647  1.00  0.00     0.032 C 
HETATM   34  C   UNL     1      19.723  49.535  49.148  1.00  0.00     0.061 C 
BRANCH  28  35
HETATM   35  C   UNL     1      21.783  50.929  48.532  1.00  0.00     0.409 C 
HETATM   36  F   UNL     1      22.237  50.498  47.332  1.00  0.00    -0.169 F 
HETATM   37  F   UNL     1      20.907  51.925  48.296  1.00  0.00    -0.169 F 
HETATM   38  F   UNL     1      22.850  51.486  49.164  1.00  0.00    -0.169 F 
ENDBRANCH  28  35
ENDBRANCH   1  24
TORSDOF 8
ENDMDL
MODEL 6
REMARK VINA RESULT:      -9.2      2.628     11.573
REMARK  8 active torsions:
REMARK  status: ('A' for Active; 'I' for Inactive)
REMARK    1  A    between atoms: C_7  and  C_8 
REMARK       I    between atoms: C_8  and  N_9 
REMARK    2  A    between atoms: N_9  and  N_10 
REMARK    3  A    between atoms: N_10  and  C_11 
REMARK    4  A    between atoms: C_11  and  N_12 
REMARK    5  A    between atoms: N_12  and  C_13 
REMARK    6  A    between atoms: N_15  and  C_16 
REMARK    7  A    between atoms: C_16  and  C_17 
REMARK    8  A    between atoms: C_29  and  C_30 
ROOT
HETATM    1  C   UNL     1      26.360  46.663  53.832  1.00  0.00     0.290 C 
HETATM    2  N   UNL     1      26.134  46.281  52.525  1.00  0.00    -0.262 N 
HETATM    3  O   UNL     1      25.686  47.482  54.451  1.00  0.00    -0.264 OA
HETATM    4  H   UNL     1      26.688  45.514  52.146  1.00  0.00     0.190 HD
ENDROOT
BRANCH   2   5
HETATM    5  N   UNL     1      24.989  46.680  51.837  1.00  0.00    -0.273 N 
HETATM    6  H   UNL     1      24.274  47.199  52.360  1.00  0.00     0.189 HD
BRANCH   5   7
HETATM    7  C   UNL     1      24.956  46.730  50.469  1.00  0.00     0.192 C 
HETATM    8  S   UNL     1      24.736  45.397  49.471  1.00  0.00    -0.039 SA
BRANCH   7   9
HETATM    9  N   UNL     1      25.123  47.950  49.878  1.00  0.00    -0.315 N 
HETATM   10  H   UNL     1      25.979  48.433  50.113  1.00  0.00     0.170 HD
BRANCH   9  11
HETATM   11  C   UNL     1      24.226  48.632  49.085  1.00  0.00     0.151 A 
HETATM   12  N   UNL     1      22.944  48.288  48.925  1.00  0.00    -0.154 NA
HETATM   13  N   UNL     1      22.443  49.242  48.110  1.00  0.00    -0.275 N 
HETATM   14  C   UNL     1      23.372  50.169  47.734  1.00  0.00     0.116 A 
HETATM   15  C   UNL     1      24.544  49.795  48.348  1.00  0.00     0.071 A 
BRANCH  13  16
HETATM   16  C   UNL     1      21.059  49.167  47.662  1.00  0.00     0.192 C 
BRANCH  16  17
HETATM   17  C   UNL     1      20.179  50.128  48.408  1.00  0.00     0.000 A 
HETATM   18  C   UNL     1      19.498  49.717  49.556  1.00  0.00     0.124 A 
HETATM   19  F   UNL     1      19.642  48.460  50.000  1.00  0.00    -0.205 F 
HETATM   20  C   UNL     1      18.672  50.589  50.261  1.00  0.00     0.043 A 
HETATM   21  C   UNL     1      18.514  51.900  49.814  1.00  0.00     0.003 A 
HETATM   22  C   UNL     1      19.178  52.327  48.664  1.00  0.00     0.001 A 
HETATM   23  C   UNL     1      20.003  51.445  47.959  1.00  0.00     0.012 A 
ENDBRANCH  16  17
ENDBRANCH  13  16
ENDBRANCH   9  11
ENDBRANCH   7   9
ENDBRANCH   5   7
ENDBRANCH   2   5
BRANCH   1  24
HETATM   24  C   UNL     1      27.523  45.972  54.410  1.00  0.00     0.150 A 
HETATM   25  N   UNL     1      28.446  46.635  55.146  1.00  0.00    -0.165 NA
HETATM   26  N   UNL     1      29.294  45.669  55.531  1.00  0.00    -0.240 N 
HETATM   27  C   UNL     1      29.025  44.442  54.998  1.00  0.00     0.123 A 
HETATM   28  C   UNL     1      30.418  45.943  56.399  1.00  0.00     0.221 C 
HETATM   29  N   UNL     1      29.833  43.384  55.215  1.00  0.00    -0.371 N 
HETATM   30  C   UNL     1      27.857  44.593  54.293  1.00  0.00     0.089 A 
HETATM   31  C   UNL     1      31.122  43.494  55.890  1.00  0.00     0.081 C 
HETATM   32  H   UNL     1      29.619  42.475  54.808  1.00  0.00     0.161 HD
HETATM   33  C   UNL     1      31.111  42.662  57.168  1.00  0.00     0.032 C 
HETATM   34  C   UNL     1      31.556  44.956  56.095  1.00  0.00     0.061 C 
BRANCH  28  35
HETATM   35  C   UNL     1      29.962  45.946  57.840  1.00  0.00     0.409 C 
HETATM   36  F   UNL     1      28.691  46.391  57.968  1.00  0.00    -0.169 F 
HETATM   37  F   UNL     1      30.029  44.741  58.439  1.00  0.00    -0.169 F 
HETATM   38  F   UNL     1      30.736  46.791  58.570  1.00  0.00    -0.169 F 
ENDBRANCH  28  35
ENDBRANCH   1  24
TORSDOF 8
ENDMDL
MODEL 7
REMARK VINA RESULT:      -8.8      2.402      2.988
REMARK  8 active torsions:
REMARK  status: ('A' for Active; 'I' for Inactive)
REMARK    1  A    between atoms: C_7  and  C_8 
REMARK       I    between atoms: C_8  and  N_9 
REMARK    2  A    between atoms: N_9  and  N_10 
REMARK    3  A    between atoms: N_10  and  C_11 
REMARK    4  A    between atoms: C_11  and  N_12 
REMARK    5  A    between atoms: N_12  and  C_13 
REMARK    6  A    between atoms: N_15  and  C_16 
REMARK    7  A    between atoms: C_16  and  C_17 
REMARK    8  A    between atoms: C_29  and  C_30 
ROOT
HETATM    1  C   UNL     1      20.580  46.056  48.764  1.00  0.00     0.290 C 
HETATM    2  N   UNL     1      21.907  46.289  49.065  1.00  0.00    -0.262 N 
HETATM    3  O   UNL     1      20.107  44.961  48.476  1.00  0.00    -0.264 OA
HETATM    4  H   UNL     1      22.169  47.218  49.396  1.00  0.00     0.190 HD
ENDROOT
BRANCH   2   5
HETATM    5  N   UNL     1      22.809  45.241  49.238  1.00  0.00    -0.273 N 
HETATM    6  H   UNL     1      22.506  44.300  48.963  1.00  0.00     0.189 HD
BRANCH   5   7
HETATM    7  C   UNL     1      24.149  45.469  49.401  1.00  0.00     0.192 C 
HETATM    8  S   UNL     1      24.803  46.840  50.119  1.00  0.00    -0.039 SA
BRANCH   7   9
HETATM    9  N   UNL     1      25.012  44.517  48.939  1.00  0.00    -0.315 N 
HETATM   10  H   UNL     1      25.175  44.526  47.941  1.00  0.00     0.170 HD
BRANCH   9  11
HETATM   11  C   UNL     1      25.603  43.497  49.653  1.00  0.00     0.151 A 
HETATM   12  N   UNL     1      26.779  43.596  50.282  1.00  0.00    -0.154 NA
HETATM   13  N   UNL     1      26.944  42.392  50.870  1.00  0.00    -0.275 N 
HETATM   14  C   UNL     1      25.918  41.527  50.619  1.00  0.00     0.116 A 
HETATM   15  C   UNL     1      25.033  42.216  49.824  1.00  0.00     0.071 A 
BRANCH  13  16
HETATM   16  C   UNL     1      28.163  42.103  51.614  1.00  0.00     0.192 C 
BRANCH  16  17
HETATM   17  C   UNL     1      28.286  42.964  52.838  1.00  0.00     0.000 A 
HETATM   18  C   UNL     1      29.534  43.182  53.426  1.00  0.00     0.124 A 
HETATM   19  F   UNL     1      30.629  42.626  52.886  1.00  0.00    -0.205 F 
HETATM   20  C   UNL     1      29.671  43.971  54.565  1.00  0.00     0.043 A 
HETATM   21  C   UNL     1      28.544  44.557  55.136  1.00  0.00     0.003 A 
HETATM   22  C   UNL     1      27.287  44.344  54.569  1.00  0.00     0.001 A 
HETATM   23  C   UNL     1      27.155  43.547  53.428  1.00  0.00     0.012 A 
ENDBRANCH  16  17
ENDBRANCH  13  16
ENDBRANCH   9  11
ENDBRANCH   7   9
ENDBRANCH   5   7
ENDBRANCH   2   5
BRANCH   1  24
HETATM   24  C   UNL     1      19.781  47.291  48.819  1.00  0.00     0.150 A 
HETATM   25  N   UNL     1      20.286  48.438  49.330  1.00  0.00    -0.165 NA
HETATM   26  N   UNL     1      19.295  49.324  49.152  1.00  0.00    -0.240 N 
HETATM   27  C   UNL     1      18.145  48.787  48.649  1.00  0.00     0.123 A 
HETATM   28  C   UNL     1      19.442  50.717  49.516  1.00  0.00     0.221 C 
HETATM   29  N   UNL     1      17.028  49.526  48.493  1.00  0.00    -0.371 N 
HETATM   30  C   UNL     1      18.437  47.473  48.384  1.00  0.00     0.089 A 
HETATM   31  C   UNL     1      16.904  50.893  48.987  1.00  0.00     0.081 C 
HETATM   32  H   UNL     1      16.177  49.109  48.118  1.00  0.00     0.161 HD
HETATM   33  C   UNL     1      16.670  51.847  47.821  1.00  0.00     0.032 C 
HETATM   34  C   UNL     1      18.072  51.296  49.904  1.00  0.00     0.061 C 
BRANCH  28  35
HETATM   35  C   UNL     1      20.143  51.463  48.405  1.00  0.00     0.409 C 
HETATM   36  F   UNL     1      19.749  52.756  48.335  1.00  0.00    -0.169 F 
HETATM   37  F   UNL     1      21.487  51.459  48.503  1.00  0.00    -0.169 F 
HETATM   38  F   UNL     1      19.836  50.906  47.204  1.00  0.00    -0.169 F 
ENDBRANCH  28  35
ENDBRANCH   1  24
TORSDOF 8
ENDMDL
MODEL 8
REMARK VINA RESULT:      -8.7      2.618     10.461
REMARK  8 active torsions:
REMARK  status: ('A' for Active; 'I' for Inactive)
REMARK    1  A    between atoms: C_7  and  C_8 
REMARK       I    between atoms: C_8  and  N_9 
REMARK    2  A    between atoms: N_9  and  N_10 
REMARK    3  A    between atoms: N_10  and  C_11 
REMARK    4  A    between atoms: C_11  and  N_12 
REMARK    5  A    between atoms: N_12  and  C_13 
REMARK    6  A    between atoms: N_15  and  C_16 
REMARK    7  A    between atoms: C_16  and  C_17 
REMARK    8  A    between atoms: C_29  and  C_30 
ROOT
HETATM    1  C   UNL     1      24.601  47.051  50.494  1.00  0.00     0.290 C 
HETATM    2  N   UNL     1      23.717  46.144  49.945  1.00  0.00    -0.262 N 
HETATM    3  O   UNL     1      24.727  48.217  50.131  1.00  0.00    -0.264 OA
HETATM    4  H   UNL     1      23.620  45.235  50.396  1.00  0.00     0.190 HD
ENDROOT
BRANCH   2   5
HETATM    5  N   UNL     1      22.751  46.537  49.020  1.00  0.00    -0.273 N 
HETATM    6  H   UNL     1      22.798  47.497  48.659  1.00  0.00     0.189 HD
BRANCH   5   7
HETATM    7  C   UNL     1      22.006  45.620  48.329  1.00  0.00     0.192 C 
HETATM    8  S   UNL     1      22.485  44.890  46.894  1.00  0.00    -0.039 SA
BRANCH   7   9
HETATM    9  N   UNL     1      20.784  45.285  48.839  1.00  0.00    -0.315 N 
HETATM   10  H   UNL     1      20.770  44.466  49.431  1.00  0.00     0.170 HD
BRANCH   9  11
HETATM   11  C   UNL     1      19.567  45.870  48.564  1.00  0.00     0.151 A 
HETATM   12  N   UNL     1      19.175  47.058  49.035  1.00  0.00    -0.154 NA
HETATM   13  N   UNL     1      17.955  47.247  48.488  1.00  0.00    -0.275 N 
HETATM   14  C   UNL     1      17.554  46.208  47.699  1.00  0.00     0.116 A 
HETATM   15  C   UNL     1      18.580  45.294  47.733  1.00  0.00     0.071 A 
BRANCH  13  16
HETATM   16  C   UNL     1      17.179  48.434  48.824  1.00  0.00     0.192 C 
BRANCH  16  17
HETATM   17  C   UNL     1      18.019  49.677  48.788  1.00  0.00     0.000 A 
HETATM   18  C   UNL     1      18.610  50.165  49.957  1.00  0.00     0.124 A 
HETATM   19  F   UNL     1      18.434  49.509  51.113  1.00  0.00    -0.205 F 
HETATM   20  C   UNL     1      19.389  51.319  49.949  1.00  0.00     0.043 A 
HETATM   21  C   UNL     1      19.584  52.010  48.755  1.00  0.00     0.003 A 
HETATM   22  C   UNL     1      18.994  51.545  47.579  1.00  0.00     0.001 A 
HETATM   23  C   UNL     1      18.211  50.387  47.594  1.00  0.00     0.012 A 
ENDBRANCH  16  17
ENDBRANCH  13  16
ENDBRANCH   9  11
ENDBRANCH   7   9
ENDBRANCH   5   7
ENDBRANCH   2   5
BRANCH   1  24
HETATM   24  C   UNL     1      25.395  46.453  51.579  1.00  0.00     0.150 A 
HETATM   25  N   UNL     1      25.482  45.112  51.736  1.00  0.00    -0.165 NA
HETATM   26  N   UNL     1      26.322  44.971  52.772  1.00  0.00    -0.240 N 
HETATM   27  C   UNL     1      26.697  46.147  53.355  1.00  0.00     0.123 A 
HETATM   28  C   UNL     1      26.740  43.668  53.243  1.00  0.00     0.221 C 
HETATM   29  N   UNL     1      27.468  46.174  54.461  1.00  0.00    -0.371 N 
HETATM   30  C   UNL     1      26.143  47.135  52.581  1.00  0.00     0.089 A 
HETATM   31  C   UNL     1      27.826  44.974  55.210  1.00  0.00     0.081 C 
HETATM   32  H   UNL     1      27.738  47.061  54.885  1.00  0.00     0.161 HD
HETATM   33  C   UNL     1      29.339  44.788  55.199  1.00  0.00     0.032 C 
HETATM   34  C   UNL     1      27.038  43.735  54.749  1.00  0.00     0.061 C 
BRANCH  28  35
HETATM   35  C   UNL     1      27.891  43.166  52.402  1.00  0.00     0.409 C 
HETATM   36  F   UNL     1      27.463  42.498  51.305  1.00  0.00    -0.169 F 
HETATM   37  F   UNL     1      28.727  44.135  51.980  1.00  0.00    -0.169 F 
HETATM   38  F   UNL     1      28.639  42.285  53.116  1.00  0.00    -0.169 F 
ENDBRANCH  28  35
ENDBRANCH   1  24
TORSDOF 8
ENDMDL
MODEL 9
REMARK VINA RESULT:      -8.7      2.078      2.763
REMARK  8 active torsions:
REMARK  status: ('A' for Active; 'I' for Inactive)
REMARK    1  A    between atoms: C_7  and  C_8 
REMARK       I    between atoms: C_8  and  N_9 
REMARK    2  A    between atoms: N_9  and  N_10 
REMARK    3  A    between atoms: N_10  and  C_11 
REMARK    4  A    between atoms: C_11  and  N_12 
REMARK    5  A    between atoms: N_12  and  C_13 
REMARK    6  A    between atoms: N_15  and  C_16 
REMARK    7  A    between atoms: C_16  and  C_17 
REMARK    8  A    between atoms: C_29  and  C_30 
ROOT
HETATM    1  C   UNL     1      22.864  48.924  49.334  1.00  0.00     0.290 C 
HETATM    2  N   UNL     1      23.253  47.601  49.398  1.00  0.00    -0.262 N 
HETATM    3  O   UNL     1      23.618  49.885  49.460  1.00  0.00    -0.264 OA
HETATM    4  H   UNL     1      22.562  46.886  49.171  1.00  0.00     0.190 HD
ENDROOT
BRANCH   2   5
HETATM    5  N   UNL     1      24.598  47.239  49.444  1.00  0.00    -0.273 N 
HETATM    6  H   UNL     1      25.283  47.974  49.649  1.00  0.00     0.189 HD
BRANCH   5   7
HETATM    7  C   UNL     1      24.983  45.934  49.591  1.00  0.00     0.192 C 
HETATM    8  S   UNL     1      24.205  44.624  48.884  1.00  0.00    -0.039 SA
BRANCH   7   9
HETATM    9  N   UNL     1      26.072  45.682  50.376  1.00  0.00    -0.315 N 
HETATM   10  H   UNL     1      26.965  45.941  49.979  1.00  0.00     0.170 HD
BRANCH   9  11
HETATM   11  C   UNL     1      26.102  45.032  51.592  1.00  0.00     0.151 A 
HETATM   12  N   UNL     1      27.177  44.419  52.096  1.00  0.00    -0.154 NA
HETATM   13  N   UNL     1      26.767  43.964  53.300  1.00  0.00    -0.275 N 
HETATM   14  C   UNL     1      25.461  44.255  53.567  1.00  0.00     0.116 A 
HETATM   15  C   UNL     1      24.999  44.945  52.471  1.00  0.00     0.071 A 
BRANCH  13  16
HETATM   16  C   UNL     1      27.672  43.181  54.132  1.00  0.00     0.192 C 
BRANCH  16  17
HETATM   17  C   UNL     1      28.635  44.055  54.883  1.00  0.00     0.000 A 
HETATM   18  C   UNL     1      29.940  43.622  55.127  1.00  0.00     0.124 A 
HETATM   19  F   UNL     1      30.337  42.422  54.676  1.00  0.00    -0.205 F 
HETATM   20  C   UNL     1      30.848  44.412  55.826  1.00  0.00     0.043 A 
HETATM   21  C   UNL     1      30.452  45.661  56.299  1.00  0.00     0.003 A 
HETATM   22  C   UNL     1      29.150  46.109  56.073  1.00  0.00     0.001 A 
HETATM   23  C   UNL     1      28.242  45.309  55.374  1.00  0.00     0.012 A 
ENDBRANCH  16  17
ENDBRANCH  13  16
ENDBRANCH   9  11
ENDBRANCH   7   9
ENDBRANCH   5   7
ENDBRANCH   2   5
BRANCH   1  24
HETATM   24  C   UNL     1      21.417  49.059  49.100  1.00  0.00     0.150 A 
HETATM   25  N   UNL     1      20.746  50.182  49.446  1.00  0.00    -0.165 NA
HETATM   26  N   UNL     1      19.494  49.941  49.028  1.00  0.00    -0.240 N 
HETATM   27  C   UNL     1      19.302  48.686  48.527  1.00  0.00     0.123 A 
HETATM   28  C   UNL     1      18.444  50.929  49.153  1.00  0.00     0.221 C 
HETATM   29  N   UNL     1      18.082  48.256  48.145  1.00  0.00    -0.371 N 
HETATM   30  C   UNL     1      20.540  48.096  48.523  1.00  0.00     0.089 A 
HETATM   31  C   UNL     1      16.861  49.020  48.379  1.00  0.00     0.081 C 
HETATM   32  H   UNL     1      17.955  47.315  47.774  1.00  0.00     0.161 HD
HETATM   33  C   UNL     1      16.210  49.378  47.048  1.00  0.00     0.032 C 
HETATM   34  C   UNL     1      17.088  50.223  49.311  1.00  0.00     0.061 C 
BRANCH  28  35
HETATM   35  C   UNL     1      18.513  51.897  47.996  1.00  0.00     0.409 C 
HETATM   36  F   UNL     1      19.356  52.927  48.245  1.00  0.00    -0.169 F 
HETATM   37  F   UNL     1      18.898  51.337  46.833  1.00  0.00    -0.169 F 
HETATM   38  F   UNL     1      17.291  52.451  47.780  1.00  0.00    -0.169 F 
ENDBRANCH  28  35
ENDBRANCH   1  24
TORSDOF 8
ENDMDL
MODEL 10
REMARK VINA RESULT:      -8.6     13.858     15.062
REMARK  8 active torsions:
REMARK  status: ('A' for Active; 'I' for Inactive)
REMARK    1  A    between atoms: C_7  and  C_8 
REMARK       I    between atoms: C_8  and  N_9 
REMARK    2  A    between atoms: N_9  and  N_10 
REMARK    3  A    between atoms: N_10  and  C_11 
REMARK    4  A    between atoms: C_11  and  N_12 
REMARK    5  A    between atoms: N_12  and  C_13 
REMARK    6  A    between atoms: N_15  and  C_16 
REMARK    7  A    between atoms: C_16  and  C_17 
REMARK    8  A    between atoms: C_29  and  C_30 
ROOT
HETATM    1  C   UNL     1      32.572  51.643  43.973  1.00  0.00     0.290 C 
HETATM    2  N   UNL     1      33.789  51.867  43.362  1.00  0.00    -0.262 N 
HETATM    3  O   UNL     1      32.387  51.635  45.187  1.00  0.00    -0.264 OA
HETATM    4  H   UNL     1      33.807  51.960  42.347  1.00  0.00     0.190 HD
ENDROOT
BRANCH   2   5
HETATM    5  N   UNL     1      34.904  52.282  44.089  1.00  0.00    -0.273 N 
HETATM    6  H   UNL     1      34.786  52.436  45.097  1.00  0.00     0.189 HD
BRANCH   5   7
HETATM    7  C   UNL     1      36.174  52.134  43.600  1.00  0.00     0.192 C 
HETATM    8  S   UNL     1      36.584  52.212  41.972  1.00  0.00    -0.039 SA
BRANCH   7   9
HETATM    9  N   UNL     1      37.174  51.896  44.499  1.00  0.00    -0.315 N 
HETATM   10  H   UNL     1      37.381  50.922  44.673  1.00  0.00     0.170 HD
BRANCH   9  11
HETATM   11  C   UNL     1      37.857  52.818  45.263  1.00  0.00     0.151 A 
HETATM   12  N   UNL     1      38.654  52.508  46.290  1.00  0.00    -0.154 NA
HETATM   13  N   UNL     1      39.134  53.698  46.710  1.00  0.00    -0.275 N 
HETATM   14  C   UNL     1      38.653  54.755  45.992  1.00  0.00     0.116 A 
HETATM   15  C   UNL     1      37.814  54.214  45.046  1.00  0.00     0.071 A 
BRANCH  13  16
HETATM   16  C   UNL     1      40.012  53.764  47.872  1.00  0.00     0.192 C 
BRANCH  16  17
HETATM   17  C   UNL     1      41.415  54.138  47.490  1.00  0.00     0.000 A 
HETATM   18  C   UNL     1      42.233  53.223  46.822  1.00  0.00     0.124 A 
HETATM   19  F   UNL     1      41.756  52.009  46.512  1.00  0.00    -0.205 F 
HETATM   20  C   UNL     1      43.539  53.545  46.463  1.00  0.00     0.043 A 
HETATM   21  C   UNL     1      44.049  54.803  46.777  1.00  0.00     0.003 A 
HETATM   22  C   UNL     1      43.250  55.728  47.452  1.00  0.00     0.001 A 
HETATM   23  C   UNL     1      41.941  55.397  47.812  1.00  0.00     0.012 A 
ENDBRANCH  16  17
ENDBRANCH  13  16
ENDBRANCH   9  11
ENDBRANCH   7   9
ENDBRANCH   5   7
ENDBRANCH   2   5
BRANCH   1  24
HETATM   24  C   UNL     1      31.503  51.403  42.991  1.00  0.00     0.150 A 
HETATM   25  N   UNL     1      30.648  52.385  42.621  1.00  0.00    -0.165 NA
HETATM   26  N   UNL     1      29.879  51.798  41.692  1.00  0.00    -0.240 N 
HETATM   27  C   UNL     1      30.124  50.467  41.520  1.00  0.00     0.123 A 
HETATM   28  C   UNL     1      28.851  52.528  40.982  1.00  0.00     0.221 C 
HETATM   29  N   UNL     1      29.379  49.713  40.686  1.00  0.00    -0.371 N 
HETATM   30  C   UNL     1      31.201  50.183  42.322  1.00  0.00     0.089 A 
HETATM   31  C   UNL     1      28.171  50.206  40.034  1.00  0.00     0.081 C 
HETATM   32  H   UNL     1      29.574  48.719  40.570  1.00  0.00     0.161 HD
HETATM   33  C   UNL     1      28.351  50.178  38.520  1.00  0.00     0.032 C 
HETATM   34  C   UNL     1      27.717  51.568  40.587  1.00  0.00     0.061 C 
BRANCH  28  35
HETATM   35  C   UNL     1      29.465  53.278  39.823  1.00  0.00     0.409 C 
HETATM   36  F   UNL     1      28.624  53.355  38.765  1.00  0.00    -0.169 F 
HETATM   37  F   UNL     1      29.848  54.535  40.123  1.00  0.00    -0.169 F 
HETATM   38  F   UNL     1      30.573  52.626  39.381  1.00  0.00    -0.169 F 
ENDBRANCH  28  35
ENDBRANCH   1  24
TORSDOF 8
ENDMDL
