MODEL 1
REMARK VINA RESULT:      -8.5      0.000      0.000
REMARK  9 active torsions:
REMARK  status: ('A' for Active; 'I' for Inactive)
REMARK    1  A    between atoms: C_3  and  C_4 
REMARK    2  A    between atoms: C_4  and  C_5 
REMARK       I    between atoms: C_5  and  N_6 
REMARK    3  A    between atoms: N_6  and  C_7 
REMARK    4  A    between atoms: C_16  and  N_17 
REMARK       I    between atoms: N_17  and  C_18 
REMARK    5  A    between atoms: C_18  and  C_19 
REMARK    6  A    between atoms: C_19  and  S_20 
REMARK    7  A    between atoms: C_26  and  C_27 
REMARK    8  A    between atoms: C_27  and  O_28 
REMARK    9  A    between atoms: C_30  and  O_31 
ROOT
HETATM    1  C   UNL     1      24.639  44.166  54.044  1.00  0.00     0.016 C 
HETATM    2  C   UNL     1      25.674  44.669  52.979  1.00  0.00    -0.030 C 
HETATM    3  C   UNL     1      26.865  43.577  53.015  1.00  0.00     0.056 C 
HETATM    4  C   UNL     1      26.669  42.522  51.942  1.00  0.00     0.056 A 
HETATM    5  C   UNL     1      25.584  42.459  51.095  1.00  0.00     0.012 A 
HETATM    6  S   UNL     1      25.699  41.106  50.070  1.00  0.00    -0.055 SA
HETATM    7  C   UNL     1      27.187  40.704  50.789  1.00  0.00     0.173 A 
HETATM    8  N   UNL     1      27.602  41.518  51.735  1.00  0.00    -0.227 NA
HETATM    9  C   UNL     1      24.451  43.411  51.048  1.00  0.00     0.055 C 
HETATM   10  C   UNL     1      24.883  44.795  51.594  1.00  0.00     0.012 C 
HETATM   11  C   UNL     1      25.511  45.762  50.502  1.00  0.00     0.008 C 
HETATM   12  C   UNL     1      24.456  46.045  49.393  1.00  0.00     0.020 C 
HETATM   13  C   UNL     1      25.873  47.123  51.165  1.00  0.00     0.128 C 
HETATM   14  C   UNL     1      26.750  46.960  52.402  1.00  0.00     0.033 C 
HETATM   15  C   UNL     1      26.081  46.086  53.463  1.00  0.00     0.013 C 
ENDROOT
BRANCH   3  16
HETATM   16  C   UNL     1      28.310  44.111  53.048  1.00  0.00     0.114 C 
BRANCH  16  17
HETATM   17  C   UNL     1      29.051  43.760  54.328  1.00  0.00     0.218 C 
HETATM   18  N   UNL     1      29.081  44.777  55.251  1.00  0.00    -0.356 N 
HETATM   19  H   UNL     1      29.075  45.709  54.839  1.00  0.00     0.162 HD
HETATM   20  O   UNL     1      29.533  42.646  54.518  1.00  0.00    -0.274 OA
BRANCH  18  21
HETATM   21  C   UNL     1      29.701  44.616  56.544  1.00  0.00     0.084 C 
HETATM   22  C   UNL     1      31.188  44.291  56.473  1.00  0.00     0.025 C 
HETATM   23  C   UNL     1      31.678  44.604  57.882  1.00  0.00     0.002 C 
HETATM   24  C   UNL     1      30.787  45.738  58.390  1.00  0.00     0.002 C 
HETATM   25  C   UNL     1      29.679  45.909  57.353  1.00  0.00     0.025 C 
ENDBRANCH  18  21
ENDBRANCH  16  17
ENDBRANCH   3  16
BRANCH  11  26
HETATM   26  C   UNL     1      26.754  45.171  49.795  1.00  0.00     0.176 C 
BRANCH  26  27
HETATM   27  O   UNL     1      27.537  46.185  49.170  1.00  0.00    -0.400 OA
HETATM   28  H   UNL     1      28.420  46.170  49.578  1.00  0.00     0.209 HD
ENDBRANCH  26  27
ENDBRANCH  11  26
BRANCH   7  29
HETATM   29  N   UNL     1      27.940  39.630  50.399  1.00  0.00    -0.305 N 
HETATM   30  C   UNL     1      28.666  39.487  49.238  1.00  0.00     0.232 C 
HETATM   31  O   UNL     1      28.759  40.298  48.321  1.00  0.00    -0.272 OA
HETATM   32  H   UNL     1      27.877  38.829  51.017  1.00  0.00     0.171 HD
BRANCH  30  33
HETATM   33  C   UNL     1      29.476  38.197  49.197  1.00  0.00     0.176 C 
BRANCH  33  34
HETATM   34  S   UNL     1      30.380  37.886  50.751  1.00  0.00    -0.164 SA
HETATM   35  C   UNL     1      29.534  36.370  51.268  1.00  0.00     0.090 C 
ENDBRANCH  33  34
ENDBRANCH  30  33
ENDBRANCH   7  29
BRANCH  13  36
HETATM   36  O   UNL     1      24.685  47.810  51.575  1.00  0.00    -0.395 OA
HETATM   37  H   UNL     1      24.909  48.325  52.369  1.00  0.00     0.210 HD
ENDBRANCH  13  36
TORSDOF 9
ENDMDL
MODEL 2
REMARK VINA RESULT:      -8.0      7.287      9.917
REMARK  9 active torsions:
REMARK  status: ('A' for Active; 'I' for Inactive)
REMARK    1  A    between atoms: C_3  and  C_4 
REMARK    2  A    between atoms: C_4  and  C_5 
REMARK       I    between atoms: C_5  and  N_6 
REMARK    3  A    between atoms: N_6  and  C_7 
REMARK    4  A    between atoms: C_16  and  N_17 
REMARK       I    between atoms: N_17  and  C_18 
REMARK    5  A    between atoms: C_18  and  C_19 
REMARK    6  A    between atoms: C_19  and  S_20 
REMARK    7  A    between atoms: C_26  and  C_27 
REMARK    8  A    between atoms: C_27  and  O_28 
REMARK    9  A    between atoms: C_30  and  O_31 
ROOT
HETATM    1  C   UNL     1      19.030  49.268  50.687  1.00  0.00     0.016 C 
HETATM    2  C   UNL     1      19.238  49.959  49.295  1.00  0.00    -0.030 C 
HETATM    3  C   UNL     1      20.623  49.344  48.734  1.00  0.00     0.056 C 
HETATM    4  C   UNL     1      20.363  48.164  47.816  1.00  0.00     0.056 A 
HETATM    5  C   UNL     1      19.118  47.640  47.550  1.00  0.00     0.012 A 
HETATM    6  S   UNL     1      19.240  46.292  46.518  1.00  0.00    -0.055 SA
HETATM    7  C   UNL     1      20.927  46.503  46.465  1.00  0.00     0.173 A 
HETATM    8  N   UNL     1      21.398  47.515  47.159  1.00  0.00    -0.227 NA
HETATM    9  C   UNL     1      17.824  48.142  48.068  1.00  0.00     0.055 C 
HETATM   10  C   UNL     1      17.932  49.646  48.426  1.00  0.00     0.012 C 
HETATM   11  C   UNL     1      17.629  50.629  47.217  1.00  0.00     0.008 C 
HETATM   12  C   UNL     1      16.171  50.407  46.722  1.00  0.00     0.020 C 
HETATM   13  C   UNL     1      17.739  52.102  47.710  1.00  0.00     0.128 C 
HETATM   14  C   UNL     1      19.064  52.392  48.407  1.00  0.00     0.033 C 
HETATM   15  C   UNL     1      19.287  51.477  49.611  1.00  0.00     0.013 C 
ENDROOT
BRANCH   3  16
HETATM   16  C   UNL     1      21.643  50.332  48.136  1.00  0.00     0.114 C 
BRANCH  16  17
HETATM   17  C   UNL     1      22.951  50.389  48.909  1.00  0.00     0.218 C 
HETATM   18  N   UNL     1      23.817  49.364  48.613  1.00  0.00    -0.356 N 
HETATM   19  H   UNL     1      23.355  48.496  48.347  1.00  0.00     0.162 HD
HETATM   20  O   UNL     1      23.208  51.301  49.689  1.00  0.00    -0.274 OA
BRANCH  18  21
HETATM   21  C   UNL     1      25.126  49.274  49.214  1.00  0.00     0.084 C 
HETATM   22  C   UNL     1      25.569  47.844  49.503  1.00  0.00     0.025 C 
HETATM   23  C   UNL     1      27.074  47.981  49.698  1.00  0.00     0.002 C 
HETATM   24  C   UNL     1      27.505  49.144  48.804  1.00  0.00     0.002 C 
HETATM   25  C   UNL     1      26.220  49.780  48.280  1.00  0.00     0.025 C 
ENDBRANCH  18  21
ENDBRANCH  16  17
ENDBRANCH   3  16
BRANCH  11  26
HETATM   26  C   UNL     1      18.554  50.411  45.996  1.00  0.00     0.176 C 
BRANCH  26  27
HETATM   27  O   UNL     1      18.216  51.279  44.917  1.00  0.00    -0.400 OA
HETATM   28  H   UNL     1      17.245  51.327  44.871  1.00  0.00     0.209 HD
ENDBRANCH  26  27
ENDBRANCH  11  26
BRANCH   7  29
HETATM   29  N   UNL     1      21.757  45.705  45.724  1.00  0.00    -0.305 N 
HETATM   30  C   UNL     1      22.617  44.732  46.181  1.00  0.00     0.232 C 
HETATM   31  O   UNL     1      22.812  44.408  47.349  1.00  0.00    -0.272 OA
HETATM   32  H   UNL     1      21.780  45.930  44.736  1.00  0.00     0.171 HD
BRANCH  30  33
HETATM   33  C   UNL     1      23.299  43.965  45.054  1.00  0.00     0.176 C 
BRANCH  33  34
HETATM   34  S   UNL     1      23.192  44.829  43.451  1.00  0.00    -0.164 SA
HETATM   35  C   UNL     1      24.917  44.653  42.925  1.00  0.00     0.090 C 
ENDBRANCH  33  34
ENDBRANCH  30  33
ENDBRANCH   7  29
BRANCH  13  36
HETATM   36  O   UNL     1      16.695  52.393  48.647  1.00  0.00    -0.395 OA
HETATM   37  H   UNL     1      16.391  51.545  49.013  1.00  0.00     0.210 HD
ENDBRANCH  13  36
TORSDOF 9
ENDMDL
MODEL 3
REMARK VINA RESULT:      -7.4      6.812      9.650
REMARK  9 active torsions:
REMARK  status: ('A' for Active; 'I' for Inactive)
REMARK    1  A    between atoms: C_3  and  C_4 
REMARK    2  A    between atoms: C_4  and  C_5 
REMARK       I    between atoms: C_5  and  N_6 
REMARK    3  A    between atoms: N_6  and  C_7 
REMARK    4  A    between atoms: C_16  and  N_17 
REMARK       I    between atoms: N_17  and  C_18 
REMARK    5  A    between atoms: C_18  and  C_19 
REMARK    6  A    between atoms: C_19  and  S_20 
REMARK    7  A    between atoms: C_26  and  C_27 
REMARK    8  A    between atoms: C_27  and  O_28 
REMARK    9  A    between atoms: C_30  and  O_31 
ROOT
HETATM    1  C   UNL     1      18.765  49.351  51.211  1.00  0.00     0.016 C 
HETATM    2  C   UNL     1      19.111  49.755  49.736  1.00  0.00    -0.030 C 
HETATM    3  C   UNL     1      20.247  48.701  49.277  1.00  0.00     0.056 C 
HETATM    4  C   UNL     1      19.635  47.528  48.535  1.00  0.00     0.056 A 
HETATM    5  C   UNL     1      18.284  47.345  48.339  1.00  0.00     0.012 A 
HETATM    6  S   UNL     1      17.987  45.889  47.511  1.00  0.00    -0.055 SA
HETATM    7  C   UNL     1      19.663  45.605  47.438  1.00  0.00     0.173 A 
HETATM    8  N   UNL     1      20.423  46.529  47.984  1.00  0.00    -0.227 NA
HETATM    9  C   UNL     1      17.202  48.260  48.772  1.00  0.00     0.055 C 
HETATM   10  C   UNL     1      17.740  49.706  48.913  1.00  0.00     0.012 C 
HETATM   11  C   UNL     1      17.684  50.558  47.574  1.00  0.00     0.008 C 
HETATM   12  C   UNL     1      16.205  50.690  47.106  1.00  0.00     0.020 C 
HETATM   13  C   UNL     1      18.219  51.993  47.853  1.00  0.00     0.128 C 
HETATM   14  C   UNL     1      19.595  51.990  48.509  1.00  0.00     0.033 C 
HETATM   15  C   UNL     1      19.594  51.226  49.833  1.00  0.00     0.013 C 
ENDROOT
BRANCH   3  16
HETATM   16  C   UNL     1      21.482  49.269  48.551  1.00  0.00     0.114 C 
BRANCH  16  17
HETATM   17  C   UNL     1      22.767  49.132  49.352  1.00  0.00     0.218 C 
HETATM   18  N   UNL     1      23.151  47.831  49.569  1.00  0.00    -0.356 N 
HETATM   19  H   UNL     1      22.374  47.176  49.632  1.00  0.00     0.162 HD
HETATM   20  O   UNL     1      23.411  50.110  49.721  1.00  0.00    -0.274 OA
BRANCH  18  21
HETATM   21  C   UNL     1      24.368  47.503  50.272  1.00  0.00     0.084 C 
HETATM   22  C   UNL     1      24.529  46.013  50.553  1.00  0.00     0.025 C 
HETATM   23  C   UNL     1      26.012  45.880  50.875  1.00  0.00     0.002 C 
HETATM   24  C   UNL     1      26.714  46.963  50.055  1.00  0.00     0.002 C 
HETATM   25  C   UNL     1      25.610  47.823  49.447  1.00  0.00     0.025 C 
ENDBRANCH  18  21
ENDBRANCH  16  17
ENDBRANCH   3  16
BRANCH  11  26
HETATM   26  C   UNL     1      18.468  49.920  46.402  1.00  0.00     0.176 C 
BRANCH  26  27
HETATM   27  O   UNL     1      17.593  49.355  45.429  1.00  0.00    -0.400 OA
HETATM   28  H   UNL     1      18.144  48.930  44.749  1.00  0.00     0.209 HD
ENDBRANCH  26  27
ENDBRANCH  11  26
BRANCH   7  29
HETATM   29  N   UNL     1      20.210  44.511  46.824  1.00  0.00    -0.305 N 
HETATM   30  C   UNL     1      20.589  44.387  45.507  1.00  0.00     0.232 C 
HETATM   31  O   UNL     1      20.489  45.237  44.627  1.00  0.00    -0.272 OA
HETATM   32  H   UNL     1      20.260  43.684  47.409  1.00  0.00     0.171 HD
BRANCH  30  33
HETATM   33  C   UNL     1      21.270  43.057  45.205  1.00  0.00     0.176 C 
BRANCH  33  34
HETATM   34  S   UNL     1      22.236  43.097  43.659  1.00  0.00    -0.164 SA
HETATM   35  C   UNL     1      23.872  42.724  44.342  1.00  0.00     0.090 C 
ENDBRANCH  33  34
ENDBRANCH  30  33
ENDBRANCH   7  29
BRANCH  13  36
HETATM   36  O   UNL     1      17.332  52.694  48.732  1.00  0.00    -0.395 OA
HETATM   37  H   UNL     1      17.025  53.488  48.261  1.00  0.00     0.210 HD
ENDBRANCH  13  36
TORSDOF 9
ENDMDL
MODEL 4
REMARK VINA RESULT:      -7.4     13.546     16.062
REMARK  9 active torsions:
REMARK  status: ('A' for Active; 'I' for Inactive)
REMARK    1  A    between atoms: C_3  and  C_4 
REMARK    2  A    between atoms: C_4  and  C_5 
REMARK       I    between atoms: C_5  and  N_6 
REMARK    3  A    between atoms: N_6  and  C_7 
REMARK    4  A    between atoms: C_16  and  N_17 
REMARK       I    between atoms: N_17  and  C_18 
REMARK    5  A    between atoms: C_18  and  C_19 
REMARK    6  A    between atoms: C_19  and  S_20 
REMARK    7  A    between atoms: C_26  and  C_27 
REMARK    8  A    between atoms: C_27  and  O_28 
REMARK    9  A    between atoms: C_30  and  O_31 
ROOT
HETATM    1  C   UNL     1      30.069  53.525  40.210  1.00  0.00     0.016 C 
HETATM    2  C   UNL     1      30.603  52.052  40.140  1.00  0.00    -0.030 C 
HETATM    3  C   UNL     1      32.203  52.186  40.319  1.00  0.00     0.056 C 
HETATM    4  C   UNL     1      32.608  51.987  41.767  1.00  0.00     0.056 A 
HETATM    5  C   UNL     1      31.726  51.789  42.807  1.00  0.00     0.012 A 
HETATM    6  S   UNL     1      32.557  51.660  44.286  1.00  0.00    -0.055 SA
HETATM    7  C   UNL     1      34.032  51.845  43.458  1.00  0.00     0.173 A 
HETATM    8  N   UNL     1      33.940  51.988  42.154  1.00  0.00    -0.227 NA
HETATM    9  C   UNL     1      30.251  51.697  42.701  1.00  0.00     0.055 C 
HETATM   10  C   UNL     1      29.838  51.232  41.282  1.00  0.00     0.012 C 
HETATM   11  C   UNL     1      29.773  49.657  41.103  1.00  0.00     0.008 C 
HETATM   12  C   UNL     1      28.711  49.068  42.077  1.00  0.00     0.020 C 
HETATM   13  C   UNL     1      29.318  49.320  39.652  1.00  0.00     0.128 C 
HETATM   14  C   UNL     1      30.170  50.013  38.594  1.00  0.00     0.033 C 
HETATM   15  C   UNL     1      30.148  51.533  38.751  1.00  0.00     0.013 C 
ENDROOT
BRANCH   3  16
HETATM   16  C   UNL     1      33.090  51.379  39.351  1.00  0.00     0.114 C 
BRANCH  16  17
HETATM   17  C   UNL     1      34.464  51.995  39.139  1.00  0.00     0.218 C 
HETATM   18  N   UNL     1      35.504  51.128  39.372  1.00  0.00    -0.356 N 
HETATM   19  H   UNL     1      35.304  50.423  40.080  1.00  0.00     0.162 HD
HETATM   20  O   UNL     1      34.607  53.151  38.750  1.00  0.00    -0.274 OA
BRANCH  18  21
HETATM   21  C   UNL     1      36.880  51.519  39.180  1.00  0.00     0.084 C 
HETATM   22  C   UNL     1      37.746  51.338  40.421  1.00  0.00     0.025 C 
HETATM   23  C   UNL     1      39.163  51.383  39.864  1.00  0.00     0.002 C 
HETATM   24  C   UNL     1      39.072  50.809  38.450  1.00  0.00     0.002 C 
HETATM   25  C   UNL     1      37.585  50.642  38.150  1.00  0.00     0.025 C 
ENDBRANCH  18  21
ENDBRANCH  16  17
ENDBRANCH   3  16
BRANCH  11  26
HETATM   26  C   UNL     1      31.110  48.943  41.417  1.00  0.00     0.176 C 
BRANCH  26  27
HETATM   27  O   UNL     1      31.122  48.402  42.735  1.00  0.00    -0.400 OA
HETATM   28  H   UNL     1      30.446  48.873  43.253  1.00  0.00     0.209 HD
ENDBRANCH  26  27
ENDBRANCH  11  26
BRANCH   7  29
HETATM   29  N   UNL     1      35.249  51.812  44.082  1.00  0.00    -0.305 N 
HETATM   30  C   UNL     1      36.351  52.595  43.820  1.00  0.00     0.232 C 
HETATM   31  O   UNL     1      36.451  53.462  42.957  1.00  0.00    -0.272 OA
HETATM   32  H   UNL     1      35.352  51.066  44.760  1.00  0.00     0.171 HD
BRANCH  30  33
HETATM   33  C   UNL     1      37.496  52.358  44.797  1.00  0.00     0.176 C 
BRANCH  33  34
HETATM   34  S   UNL     1      39.037  51.851  43.962  1.00  0.00    -0.164 SA
HETATM   35  C   UNL     1      38.717  50.071  43.844  1.00  0.00     0.090 C 
ENDBRANCH  33  34
ENDBRANCH  30  33
ENDBRANCH   7  29
BRANCH  13  36
HETATM   36  O   UNL     1      27.964  49.736  39.445  1.00  0.00    -0.395 OA
HETATM   37  H   UNL     1      27.906  50.672  39.705  1.00  0.00     0.210 HD
ENDBRANCH  13  36
TORSDOF 9
ENDMDL
MODEL 5
REMARK VINA RESULT:      -7.1     10.286     14.553
REMARK  9 active torsions:
REMARK  status: ('A' for Active; 'I' for Inactive)
REMARK    1  A    between atoms: C_3  and  C_4 
REMARK    2  A    between atoms: C_4  and  C_5 
REMARK       I    between atoms: C_5  and  N_6 
REMARK    3  A    between atoms: N_6  and  C_7 
REMARK    4  A    between atoms: C_16  and  N_17 
REMARK       I    between atoms: N_17  and  C_18 
REMARK    5  A    between atoms: C_18  and  C_19 
REMARK    6  A    between atoms: C_19  and  S_20 
REMARK    7  A    between atoms: C_26  and  C_27 
REMARK    8  A    between atoms: C_27  and  O_28 
REMARK    9  A    between atoms: C_30  and  O_31 
ROOT
HETATM    1  C   UNL     1      18.937  50.724  45.328  1.00  0.00     0.016 C 
HETATM    2  C   UNL     1      18.236  49.880  46.448  1.00  0.00    -0.030 C 
HETATM    3  C   UNL     1      18.444  50.739  47.801  1.00  0.00     0.056 C 
HETATM    4  C   UNL     1      17.240  51.621  48.077  1.00  0.00     0.056 A 
HETATM    5  C   UNL     1      16.145  51.731  47.250  1.00  0.00     0.012 A 
HETATM    6  S   UNL     1      15.030  52.855  47.873  1.00  0.00    -0.055 SA
HETATM    7  C   UNL     1      16.051  53.105  49.211  1.00  0.00     0.173 A 
HETATM    8  N   UNL     1      17.160  52.399  49.222  1.00  0.00    -0.227 NA
HETATM    9  C   UNL     1      15.924  50.996  45.983  1.00  0.00     0.055 C 
HETATM   10  C   UNL     1      16.720  49.667  45.982  1.00  0.00     0.012 C 
HETATM   11  C   UNL     1      15.945  48.439  46.624  1.00  0.00     0.008 C 
HETATM   12  C   UNL     1      14.646  48.165  45.812  1.00  0.00     0.020 C 
HETATM   13  C   UNL     1      16.833  47.164  46.535  1.00  0.00     0.128 C 
HETATM   14  C   UNL     1      18.224  47.374  47.124  1.00  0.00     0.033 C 
HETATM   15  C   UNL     1      18.971  48.513  46.431  1.00  0.00     0.013 C 
ENDROOT
BRANCH   3  16
HETATM   16  C   UNL     1      18.906  49.975  49.057  1.00  0.00     0.114 C 
BRANCH  16  17
HETATM   17  C   UNL     1      20.329  50.309  49.476  1.00  0.00     0.218 C 
HETATM   18  N   UNL     1      21.283  49.525  48.874  1.00  0.00    -0.356 N 
HETATM   19  H   UNL     1      20.965  48.582  48.654  1.00  0.00     0.162 HD
HETATM   20  O   UNL     1      20.582  51.230  50.246  1.00  0.00    -0.274 OA
BRANCH  18  21
HETATM   21  C   UNL     1      22.693  49.721  49.112  1.00  0.00     0.084 C 
HETATM   22  C   UNL     1      23.474  48.422  49.268  1.00  0.00     0.025 C 
HETATM   23  C   UNL     1      24.919  48.861  49.065  1.00  0.00     0.002 C 
HETATM   24  C   UNL     1      24.862  50.042  48.096  1.00  0.00     0.002 C 
HETATM   25  C   UNL     1      23.385  50.388  47.928  1.00  0.00     0.025 C 
ENDBRANCH  18  21
ENDBRANCH  16  17
ENDBRANCH   3  16
BRANCH  11  26
HETATM   26  C   UNL     1      15.512  48.680  48.090  1.00  0.00     0.176 C 
BRANCH  26  27
HETATM   27  O   UNL     1      15.799  47.555  48.916  1.00  0.00    -0.400 OA
HETATM   28  H   UNL     1      15.854  46.772  48.340  1.00  0.00     0.209 HD
ENDBRANCH  26  27
ENDBRANCH  11  26
BRANCH   7  29
HETATM   29  N   UNL     1      15.741  53.953  50.239  1.00  0.00    -0.305 N 
HETATM   30  C   UNL     1      14.652  53.895  51.080  1.00  0.00     0.232 C 
HETATM   31  O   UNL     1      13.741  53.073  51.050  1.00  0.00    -0.272 OA
HETATM   32  H   UNL     1      16.358  54.753  50.321  1.00  0.00     0.171 HD
BRANCH  30  33
HETATM   33  C   UNL     1      14.697  54.942  52.186  1.00  0.00     0.176 C 
BRANCH  33  34
HETATM   34  S   UNL     1      15.018  56.622  51.550  1.00  0.00    -0.164 SA
HETATM   35  C   UNL     1      13.457  56.890  50.670  1.00  0.00     0.090 C 
ENDBRANCH  33  34
ENDBRANCH  30  33
ENDBRANCH   7  29
BRANCH  13  36
HETATM   36  O   UNL     1      17.007  46.772  45.169  1.00  0.00    -0.395 OA
HETATM   37  H   UNL     1      16.312  47.214  44.651  1.00  0.00     0.210 HD
ENDBRANCH  13  36
TORSDOF 9
ENDMDL
MODEL 6
REMARK VINA RESULT:      -7.0      7.049     11.575
REMARK  9 active torsions:
REMARK  status: ('A' for Active; 'I' for Inactive)
REMARK    1  A    between atoms: C_3  and  C_4 
REMARK    2  A    between atoms: C_4  and  C_5 
REMARK       I    between atoms: C_5  and  N_6 
REMARK    3  A    between atoms: N_6  and  C_7 
REMARK    4  A    between atoms: C_16  and  N_17 
REMARK       I    between atoms: N_17  and  C_18 
REMARK    5  A    between atoms: C_18  and  C_19 
REMARK    6  A    between atoms: C_19  and  S_20 
REMARK    7  A    between atoms: C_26  and  C_27 
REMARK    8  A    between atoms: C_27  and  O_28 
REMARK    9  A    between atoms: C_30  and  O_31 
ROOT
HETATM    1  C   UNL     1      19.002  49.341  45.459  1.00  0.00     0.016 C 
HETATM    2  C   UNL     1      18.751  49.098  46.988  1.00  0.00    -0.030 C 
HETATM    3  C   UNL     1      19.522  47.716  47.316  1.00  0.00     0.056 C 
HETATM    4  C   UNL     1      20.915  47.982  47.854  1.00  0.00     0.056 A 
HETATM    5  C   UNL     1      21.479  49.233  47.979  1.00  0.00     0.012 A 
HETATM    6  S   UNL     1      23.071  49.119  48.569  1.00  0.00    -0.055 SA
HETATM    7  C   UNL     1      22.906  47.427  48.648  1.00  0.00     0.173 A 
HETATM    8  N   UNL     1      21.741  46.949  48.270  1.00  0.00    -0.227 NA
HETATM    9  C   UNL     1      20.830  50.525  47.657  1.00  0.00     0.055 C 
HETATM   10  C   UNL     1      19.290  50.396  47.753  1.00  0.00     0.012 C 
HETATM   11  C   UNL     1      18.700  50.663  49.202  1.00  0.00     0.008 C 
HETATM   12  C   UNL     1      19.040  52.117  49.640  1.00  0.00     0.020 C 
HETATM   13  C   UNL     1      17.148  50.535  49.160  1.00  0.00     0.128 C 
HETATM   14  C   UNL     1      16.684  49.215  48.553  1.00  0.00     0.033 C 
HETATM   15  C   UNL     1      17.208  49.028  47.129  1.00  0.00     0.013 C 
ENDROOT
BRANCH   3  16
HETATM   16  C   UNL     1      18.764  46.669  48.157  1.00  0.00     0.114 C 
BRANCH  16  17
HETATM   17  C   UNL     1      18.636  45.321  47.466  1.00  0.00     0.218 C 
HETATM   18  N   UNL     1      18.228  45.404  46.157  1.00  0.00    -0.356 N 
HETATM   19  H   UNL     1      17.620  46.199  45.963  1.00  0.00     0.162 HD
HETATM   20  O   UNL     1      18.920  44.269  48.032  1.00  0.00    -0.274 OA
BRANCH  18  21
HETATM   21  C   UNL     1      18.091  44.233  45.324  1.00  0.00     0.084 C 
HETATM   22  C   UNL     1      16.692  44.054  44.746  1.00  0.00     0.025 C 
HETATM   23  C   UNL     1      16.913  43.065  43.608  1.00  0.00     0.002 C 
HETATM   24  C   UNL     1      18.328  43.331  43.095  1.00  0.00     0.002 C 
HETATM   25  C   UNL     1      18.961  44.314  44.075  1.00  0.00     0.025 C 
ENDBRANCH  18  21
ENDBRANCH  16  17
ENDBRANCH   3  16
BRANCH  11  26
HETATM   26  C   UNL     1      19.278  49.723  50.287  1.00  0.00     0.176 C 
BRANCH  26  27
HETATM   27  O   UNL     1      18.367  49.543  51.368  1.00  0.00    -0.400 OA
HETATM   28  H   UNL     1      17.472  49.727  51.033  1.00  0.00     0.209 HD
ENDBRANCH  26  27
ENDBRANCH  11  26
BRANCH   7  29
HETATM   29  N   UNL     1      23.896  46.600  49.105  1.00  0.00    -0.305 N 
HETATM   30  C   UNL     1      24.682  46.767  50.223  1.00  0.00     0.232 C 
HETATM   31  O   UNL     1      24.653  47.706  51.013  1.00  0.00    -0.272 OA
HETATM   32  H   UNL     1      24.108  45.822  48.491  1.00  0.00     0.171 HD
BRANCH  30  33
HETATM   33  C   UNL     1      25.604  45.581  50.485  1.00  0.00     0.176 C 
BRANCH  33  34
HETATM   34  S   UNL     1      24.985  44.491  51.809  1.00  0.00    -0.164 SA
HETATM   35  C   UNL     1      25.917  45.184  53.200  1.00  0.00     0.090 C 
ENDBRANCH  33  34
ENDBRANCH  30  33
ENDBRANCH   7  29
BRANCH  13  36
HETATM   36  O   UNL     1      16.583  51.587  48.370  1.00  0.00    -0.395 OA
HETATM   37  H   UNL     1      15.762  51.869  48.810  1.00  0.00     0.210 HD
ENDBRANCH  13  36
TORSDOF 9
ENDMDL
MODEL 7
REMARK VINA RESULT:      -6.9     12.058     16.373
REMARK  9 active torsions:
REMARK  status: ('A' for Active; 'I' for Inactive)
REMARK    1  A    between atoms: C_3  and  C_4 
REMARK    2  A    between atoms: C_4  and  C_5 
REMARK       I    between atoms: C_5  and  N_6 
REMARK    3  A    between atoms: N_6  and  C_7 
REMARK    4  A    between atoms: C_16  and  N_17 
REMARK       I    between atoms: N_17  and  C_18 
REMARK    5  A    between atoms: C_18  and  C_19 
REMARK    6  A    between atoms: C_19  and  S_20 
REMARK    7  A    between atoms: C_26  and  C_27 
REMARK    8  A    between atoms: C_27  and  O_28 
REMARK    9  A    between atoms: C_30  and  O_31 
ROOT
HETATM    1  C   UNL     1      19.924  52.130  48.292  1.00  0.00     0.016 C 
HETATM    2  C   UNL     1      18.814  51.075  48.630  1.00  0.00    -0.030 C 
HETATM    3  C   UNL     1      17.419  51.849  48.368  1.00  0.00     0.056 C 
HETATM    4  C   UNL     1      16.894  51.568  46.972  1.00  0.00     0.056 A 
HETATM    5  C   UNL     1      17.552  50.812  46.026  1.00  0.00     0.012 A 
HETATM    6  S   UNL     1      16.671  50.771  44.571  1.00  0.00    -0.055 SA
HETATM    7  C   UNL     1      15.464  51.730  45.290  1.00  0.00     0.173 A 
HETATM    8  N   UNL     1      15.675  52.069  46.543  1.00  0.00    -0.227 NA
HETATM    9  C   UNL     1      18.847  50.116  46.204  1.00  0.00     0.055 C 
HETATM   10  C   UNL     1      19.092  49.802  47.701  1.00  0.00     0.012 C 
HETATM   11  C   UNL     1      18.483  48.420  48.189  1.00  0.00     0.008 C 
HETATM   12  C   UNL     1      19.137  47.256  47.390  1.00  0.00     0.020 C 
HETATM   13  C   UNL     1      18.822  48.208  49.693  1.00  0.00     0.128 C 
HETATM   14  C   UNL     1      18.407  49.391  50.562  1.00  0.00     0.033 C 
HETATM   15  C   UNL     1      19.071  50.691  50.111  1.00  0.00     0.013 C 
ENDROOT
BRANCH   3  16
HETATM   16  C   UNL     1      16.323  51.708  49.441  1.00  0.00     0.114 C 
BRANCH  16  17
HETATM   17  C   UNL     1      15.626  53.020  49.766  1.00  0.00     0.218 C 
HETATM   18  N   UNL     1      14.520  53.269  48.990  1.00  0.00    -0.356 N 
HETATM   19  H   UNL     1      14.576  52.876  48.052  1.00  0.00     0.162 HD
HETATM   20  O   UNL     1      16.008  53.753  50.673  1.00  0.00    -0.274 OA
BRANCH  18  21
HETATM   21  C   UNL     1      13.703  54.444  49.181  1.00  0.00     0.084 C 
HETATM   22  C   UNL     1      13.011  54.920  47.910  1.00  0.00     0.025 C 
HETATM   23  C   UNL     1      11.917  55.841  48.436  1.00  0.00     0.002 C 
HETATM   24  C   UNL     1      11.521  55.277  49.801  1.00  0.00     0.002 C 
HETATM   25  C   UNL     1      12.531  54.179  50.120  1.00  0.00     0.025 C 
ENDBRANCH  18  21
ENDBRANCH  16  17
ENDBRANCH   3  16
BRANCH  11  26
HETATM   26  C   UNL     1      16.955  48.307  47.971  1.00  0.00     0.176 C 
BRANCH  26  27
HETATM   27  O   UNL     1      16.545  46.952  47.805  1.00  0.00    -0.400 OA
HETATM   28  H   UNL     1      15.637  46.874  48.147  1.00  0.00     0.209 HD
ENDBRANCH  26  27
ENDBRANCH  11  26
BRANCH   7  29
HETATM   29  N   UNL     1      14.321  52.106  44.638  1.00  0.00    -0.305 N 
HETATM   30  C   UNL     1      13.182  51.359  44.437  1.00  0.00     0.232 C 
HETATM   31  O   UNL     1      12.986  50.200  44.794  1.00  0.00    -0.272 OA
HETATM   32  H   UNL     1      14.372  53.015  44.194  1.00  0.00     0.171 HD
BRANCH  30  33
HETATM   33  C   UNL     1      12.063  52.148  43.768  1.00  0.00     0.176 C 
BRANCH  33  34
HETATM   34  S   UNL     1      12.653  53.698  43.010  1.00  0.00    -0.164 SA
HETATM   35  C   UNL     1      12.991  53.081  41.340  1.00  0.00     0.090 C 
ENDBRANCH  33  34
ENDBRANCH  30  33
ENDBRANCH   7  29
BRANCH  13  36
HETATM   36  O   UNL     1      20.233  48.031  49.866  1.00  0.00    -0.395 OA
HETATM   37  H   UNL     1      20.390  47.867  50.812  1.00  0.00     0.210 HD
ENDBRANCH  13  36
TORSDOF 9
ENDMDL
MODEL 8
REMARK VINA RESULT:      -6.9     13.180     14.822
REMARK  9 active torsions:
REMARK  status: ('A' for Active; 'I' for Inactive)
REMARK    1  A    between atoms: C_3  and  C_4 
REMARK    2  A    between atoms: C_4  and  C_5 
REMARK       I    between atoms: C_5  and  N_6 
REMARK    3  A    between atoms: N_6  and  C_7 
REMARK    4  A    between atoms: C_16  and  N_17 
REMARK       I    between atoms: N_17  and  C_18 
REMARK    5  A    between atoms: C_18  and  C_19 
REMARK    6  A    between atoms: C_19  and  S_20 
REMARK    7  A    between atoms: C_26  and  C_27 
REMARK    8  A    between atoms: C_27  and  O_28 
REMARK    9  A    between atoms: C_30  and  O_31 
ROOT
HETATM    1  C   UNL     1      31.437  50.052  42.616  1.00  0.00     0.016 C 
HETATM    2  C   UNL     1      30.800  50.674  41.324  1.00  0.00    -0.030 C 
HETATM    3  C   UNL     1      31.373  49.774  40.110  1.00  0.00     0.056 C 
HETATM    4  C   UNL     1      30.397  48.671  39.743  1.00  0.00     0.056 A 
HETATM    5  C   UNL     1      29.214  48.422  40.402  1.00  0.00     0.012 A 
HETATM    6  S   UNL     1      28.423  47.073  39.731  1.00  0.00    -0.055 SA
HETATM    7  C   UNL     1      29.680  46.919  38.594  1.00  0.00     0.173 A 
HETATM    8  N   UNL     1      30.641  47.812  38.682  1.00  0.00    -0.227 NA
HETATM    9  C   UNL     1      28.664  49.192  41.542  1.00  0.00     0.055 C 
HETATM   10  C   UNL     1      29.214  50.640  41.532  1.00  0.00     0.012 C 
HETATM   11  C   UNL     1      28.362  51.658  40.662  1.00  0.00     0.008 C 
HETATM   12  C   UNL     1      26.919  51.748  41.236  1.00  0.00     0.020 C 
HETATM   13  C   UNL     1      28.996  53.077  40.758  1.00  0.00     0.128 C 
HETATM   14  C   UNL     1      30.481  53.082  40.411  1.00  0.00     0.033 C 
HETATM   15  C   UNL     1      31.282  52.149  41.318  1.00  0.00     0.013 C 
ENDROOT
BRANCH   3  16
HETATM   16  C   UNL     1      31.902  50.518  38.869  1.00  0.00     0.114 C 
BRANCH  16  17
HETATM   17  C   UNL     1      33.188  51.287  39.132  1.00  0.00     0.218 C 
HETATM   18  N   UNL     1      34.054  50.646  39.984  1.00  0.00    -0.356 N 
HETATM   19  H   UNL     1      33.593  50.061  40.679  1.00  0.00     0.162 HD
HETATM   20  O   UNL     1      33.429  52.359  38.585  1.00  0.00    -0.274 OA
BRANCH  18  21
HETATM   21  C   UNL     1      35.345  51.199  40.317  1.00  0.00     0.084 C 
HETATM   22  C   UNL     1      35.954  50.609  41.583  1.00  0.00     0.025 C 
HETATM   23  C   UNL     1      37.423  50.999  41.474  1.00  0.00     0.002 C 
HETATM   24  C   UNL     1      37.732  51.040  39.977  1.00  0.00     0.002 C 
HETATM   25  C   UNL     1      36.395  50.879  39.260  1.00  0.00     0.025 C 
ENDBRANCH  18  21
ENDBRANCH  16  17
ENDBRANCH   3  16
BRANCH  11  26
HETATM   26  C   UNL     1      28.226  51.240  39.178  1.00  0.00     0.176 C 
BRANCH  26  27
HETATM   27  O   UNL     1      26.876  50.934  38.838  1.00  0.00    -0.400 OA
HETATM   28  H   UNL     1      26.845  50.763  37.881  1.00  0.00     0.209 HD
ENDBRANCH  26  27
ENDBRANCH  11  26
BRANCH   7  29
HETATM   29  N   UNL     1      29.693  45.958  37.620  1.00  0.00    -0.305 N 
HETATM   30  C   UNL     1      29.690  44.592  37.784  1.00  0.00     0.232 C 
HETATM   31  O   UNL     1      29.692  43.976  38.847  1.00  0.00    -0.272 OA
HETATM   32  H   UNL     1      29.796  46.319  36.678  1.00  0.00     0.171 HD
BRANCH  30  33
HETATM   33  C   UNL     1      29.590  43.833  36.466  1.00  0.00     0.176 C 
BRANCH  33  34
HETATM   34  S   UNL     1      28.179  42.677  36.427  1.00  0.00    -0.164 SA
HETATM   35  C   UNL     1      26.836  43.868  36.670  1.00  0.00     0.090 C 
ENDBRANCH  33  34
ENDBRANCH  30  33
ENDBRANCH   7  29
BRANCH  13  36
HETATM   36  O   UNL     1      28.871  53.589  42.090  1.00  0.00    -0.395 OA
HETATM   37  H   UNL     1      28.055  53.216  42.467  1.00  0.00     0.210 HD
ENDBRANCH  13  36
TORSDOF 9
ENDMDL
MODEL 9
REMARK VINA RESULT:      -6.8     14.696     16.621
REMARK  9 active torsions:
REMARK  status: ('A' for Active; 'I' for Inactive)
REMARK    1  A    between atoms: C_3  and  C_4 
REMARK    2  A    between atoms: C_4  and  C_5 
REMARK       I    between atoms: C_5  and  N_6 
REMARK    3  A    between atoms: N_6  and  C_7 
REMARK    4  A    between atoms: C_16  and  N_17 
REMARK       I    between atoms: N_17  and  C_18 
REMARK    5  A    between atoms: C_18  and  C_19 
REMARK    6  A    between atoms: C_19  and  S_20 
REMARK    7  A    between atoms: C_26  and  C_27 
REMARK    8  A    between atoms: C_27  and  O_28 
REMARK    9  A    between atoms: C_30  and  O_31 
ROOT
HETATM    1  C   UNL     1      39.865  54.079  42.628  1.00  0.00     0.016 C 
HETATM    2  C   UNL     1      39.222  53.819  44.035  1.00  0.00    -0.030 C 
HETATM    3  C   UNL     1      38.502  52.379  43.898  1.00  0.00     0.056 C 
HETATM    4  C   UNL     1      39.406  51.267  44.397  1.00  0.00     0.056 A 
HETATM    5  C   UNL     1      40.698  51.449  44.840  1.00  0.00     0.012 A 
HETATM    6  S   UNL     1      41.404  49.961  45.265  1.00  0.00    -0.055 SA
HETATM    7  C   UNL     1      39.951  49.172  44.863  1.00  0.00     0.173 A 
HETATM    8  N   UNL     1      38.977  49.950  44.442  1.00  0.00    -0.227 NA
HETATM    9  C   UNL     1      41.415  52.741  44.949  1.00  0.00     0.055 C 
HETATM   10  C   UNL     1      40.409  53.908  45.105  1.00  0.00     0.012 C 
HETATM   11  C   UNL     1      39.991  54.215  46.605  1.00  0.00     0.008 C 
HETATM   12  C   UNL     1      41.253  54.621  47.421  1.00  0.00     0.020 C 
HETATM   13  C   UNL     1      39.007  55.422  46.631  1.00  0.00     0.128 C 
HETATM   14  C   UNL     1      37.815  55.227  45.700  1.00  0.00     0.033 C 
HETATM   15  C   UNL     1      38.252  55.010  44.252  1.00  0.00     0.013 C 
ENDROOT
BRANCH   3  16
HETATM   16  C   UNL     1      37.068  52.253  44.449  1.00  0.00     0.114 C 
BRANCH  16  17
HETATM   17  C   UNL     1      36.008  52.203  43.361  1.00  0.00     0.218 C 
HETATM   18  N   UNL     1      34.869  51.525  43.725  1.00  0.00    -0.356 N 
HETATM   19  H   UNL     1      35.032  50.771  44.391  1.00  0.00     0.162 HD
HETATM   20  O   UNL     1      36.157  52.763  42.279  1.00  0.00    -0.274 OA
BRANCH  18  21
HETATM   21  C   UNL     1      33.735  51.409  42.840  1.00  0.00     0.084 C 
HETATM   22  C   UNL     1      33.742  50.137  42.000  1.00  0.00     0.025 C 
HETATM   23  C   UNL     1      32.301  50.035  41.515  1.00  0.00     0.002 C 
HETATM   24  C   UNL     1      31.447  50.662  42.618  1.00  0.00     0.002 C 
HETATM   25  C   UNL     1      32.422  51.295  43.607  1.00  0.00     0.025 C 
ENDBRANCH  18  21
ENDBRANCH  16  17
ENDBRANCH   3  16
BRANCH  11  26
HETATM   26  C   UNL     1      39.360  53.004  47.332  1.00  0.00     0.176 C 
BRANCH  26  27
HETATM   27  O   UNL     1      38.944  53.340  48.653  1.00  0.00    -0.400 OA
HETATM   28  H   UNL     1      38.279  54.047  48.582  1.00  0.00     0.209 HD
ENDBRANCH  26  27
ENDBRANCH  11  26
BRANCH   7  29
HETATM   29  N   UNL     1      39.771  47.822  44.996  1.00  0.00    -0.305 N 
HETATM   30  C   UNL     1      40.669  46.821  44.702  1.00  0.00     0.232 C 
HETATM   31  O   UNL     1      41.801  46.954  44.247  1.00  0.00    -0.272 OA
HETATM   32  H   UNL     1      38.834  47.550  45.270  1.00  0.00     0.171 HD
BRANCH  30  33
HETATM   33  C   UNL     1      40.162  45.436  45.088  1.00  0.00     0.176 C 
BRANCH  33  34
HETATM   34  S   UNL     1      41.347  44.519  46.128  1.00  0.00    -0.164 SA
HETATM   35  C   UNL     1      40.737  42.839  45.832  1.00  0.00     0.090 C 
ENDBRANCH  33  34
ENDBRANCH  30  33
ENDBRANCH   7  29
BRANCH  13  36
HETATM   36  O   UNL     1      39.676  56.619  46.218  1.00  0.00    -0.395 OA
HETATM   37  H   UNL     1      40.558  56.614  46.628  1.00  0.00     0.210 HD
ENDBRANCH  13  36
TORSDOF 9
ENDMDL
MODEL 10
REMARK VINA RESULT:      -6.8      7.788     11.064
REMARK  9 active torsions:
REMARK  status: ('A' for Active; 'I' for Inactive)
REMARK    1  A    between atoms: C_3  and  C_4 
REMARK    2  A    between atoms: C_4  and  C_5 
REMARK       I    between atoms: C_5  and  N_6 
REMARK    3  A    between atoms: N_6  and  C_7 
REMARK    4  A    between atoms: C_16  and  N_17 
REMARK       I    between atoms: N_17  and  C_18 
REMARK    5  A    between atoms: C_18  and  C_19 
REMARK    6  A    between atoms: C_19  and  S_20 
REMARK    7  A    between atoms: C_26  and  C_27 
REMARK    8  A    between atoms: C_27  and  O_28 
REMARK    9  A    between atoms: C_30  and  O_31 
ROOT
HETATM    1  C   UNL     1      16.507  51.193  49.322  1.00  0.00     0.016 C 
HETATM    2  C   UNL     1      17.230  50.850  47.973  1.00  0.00    -0.030 C 
HETATM    3  C   UNL     1      18.645  50.207  48.418  1.00  0.00     0.056 C 
HETATM    4  C   UNL     1      18.566  48.692  48.459  1.00  0.00     0.056 A 
HETATM    5  C   UNL     1      17.423  47.962  48.219  1.00  0.00     0.012 A 
HETATM    6  S   UNL     1      17.722  46.298  48.410  1.00  0.00    -0.055 SA
HETATM    7  C   UNL     1      19.348  46.644  48.769  1.00  0.00     0.173 A 
HETATM    8  N   UNL     1      19.679  47.917  48.748  1.00  0.00    -0.227 NA
HETATM    9  C   UNL     1      16.096  48.504  47.846  1.00  0.00     0.055 C 
HETATM   10  C   UNL     1      16.249  49.884  47.159  1.00  0.00     0.012 C 
HETATM   11  C   UNL     1      16.465  49.812  45.588  1.00  0.00     0.008 C 
HETATM   12  C   UNL     1      15.230  49.134  44.926  1.00  0.00     0.020 C 
HETATM   13  C   UNL     1      16.572  51.256  45.014  1.00  0.00     0.128 C 
HETATM   14  C   UNL     1      17.624  52.096  45.731  1.00  0.00     0.033 C 
HETATM   15  C   UNL     1      17.342  52.206  47.229  1.00  0.00     0.013 C 
ENDROOT
BRANCH   3  16
HETATM   16  C   UNL     1      19.906  50.705  47.686  1.00  0.00     0.114 C 
BRANCH  16  17
HETATM   17  C   UNL     1      21.152  50.692  48.558  1.00  0.00     0.218 C 
HETATM   18  N   UNL     1      22.208  50.006  48.008  1.00  0.00    -0.356 N 
HETATM   19  H   UNL     1      21.930  49.231  47.408  1.00  0.00     0.162 HD
HETATM   20  O   UNL     1      21.202  51.286  49.631  1.00  0.00    -0.274 OA
BRANCH  18  21
HETATM   21  C   UNL     1      23.489  49.922  48.668  1.00  0.00     0.084 C 
HETATM   22  C   UNL     1      23.886  48.502  49.054  1.00  0.00     0.025 C 
HETATM   23  C   UNL     1      25.384  48.618  49.305  1.00  0.00     0.002 C 
HETATM   24  C   UNL     1      25.878  49.720  48.367  1.00  0.00     0.002 C 
HETATM   25  C   UNL     1      24.632  50.352  47.755  1.00  0.00     0.025 C 
ENDBRANCH  18  21
ENDBRANCH  16  17
ENDBRANCH   3  16
BRANCH  11  26
HETATM   26  C   UNL     1      17.705  48.985  45.172  1.00  0.00     0.176 C 
BRANCH  26  27
HETATM   27  O   UNL     1      17.365  47.956  44.246  1.00  0.00    -0.400 OA
HETATM   28  H   UNL     1      17.147  48.382  43.398  1.00  0.00     0.209 HD
ENDBRANCH  26  27
ENDBRANCH  11  26
BRANCH   7  29
HETATM   29  N   UNL     1      20.279  45.676  49.031  1.00  0.00    -0.305 N 
HETATM   30  C   UNL     1      20.956  44.892  48.125  1.00  0.00     0.232 C 
HETATM   31  O   UNL     1      20.835  44.905  46.903  1.00  0.00    -0.272 OA
HETATM   32  H   UNL     1      20.411  45.478  50.017  1.00  0.00     0.171 HD
BRANCH  30  33
HETATM   33  C   UNL     1      22.005  43.999  48.776  1.00  0.00     0.176 C 
BRANCH  33  34
HETATM   34  S   UNL     1      23.649  44.787  48.852  1.00  0.00    -0.164 SA
HETATM   35  C   UNL     1      23.990  44.551  50.616  1.00  0.00     0.090 C 
ENDBRANCH  33  34
ENDBRANCH  30  33
ENDBRANCH   7  29
BRANCH  13  36
HETATM   36  O   UNL     1      15.320  51.939  45.149  1.00  0.00    -0.395 OA
HETATM   37  H   UNL     1      15.288  52.309  46.048  1.00  0.00     0.210 HD
ENDBRANCH  13  36
TORSDOF 9
ENDMDL
