MODEL 1
REMARK VINA RESULT:     -10.4      0.000      0.000
REMARK  5 active torsions:
REMARK  status: ('A' for Active; 'I' for Inactive)
REMARK    1  A    between atoms: C_7  and  C_8 
REMARK    2  A    between atoms: N_9  and  N_10 
REMARK       I    between atoms: N_10  and  C_11 
REMARK    3  A    between atoms: C_11  and  C_12 
REMARK    4  A    between atoms: C_12  and  O_13 
REMARK    5  A    between atoms: O_13  and  C_14 
ROOT
HETATM    1  N   UNL     1      26.469  44.903  50.639  1.00  0.00    -0.246 N 
HETATM    2  C   UNL     1      26.867  43.632  50.237  1.00  0.00     0.261 C 
HETATM    3  O   UNL     1      27.037  43.265  49.075  1.00  0.00    -0.269 OA
HETATM    4  H   UNL     1      26.103  44.984  51.586  1.00  0.00     0.192 HD
ENDROOT
BRANCH   1   5
HETATM    5  N   UNL     1      26.080  45.917  49.790  1.00  0.00    -0.184 NA
HETATM    6  C   UNL     1      25.829  47.077  50.313  1.00  0.00     0.153 C 
BRANCH   6   7
HETATM    7  C   UNL     1      25.473  48.214  49.481  1.00  0.00     0.018 A 
HETATM    8  C   UNL     1      26.412  49.097  48.957  1.00  0.00     0.018 A 
HETATM    9  C   UNL     1      27.895  49.118  49.066  1.00  0.00     0.069 C 
HETATM   10  N   UNL     1      25.736  50.045  48.232  1.00  0.00    -0.358 N 
HETATM   11  H   UNL     1      26.165  50.812  47.733  1.00  0.00     0.166 HD
HETATM   12  C   UNL     1      24.384  49.807  48.264  1.00  0.00     0.043 A 
HETATM   13  C   UNL     1      24.185  48.661  49.036  1.00  0.00     0.004 A 
HETATM   14  C   UNL     1      23.336  50.519  47.668  1.00  0.00     0.030 A 
HETATM   15  C   UNL     1      22.860  48.209  49.216  1.00  0.00     0.014 A 
HETATM   16  C   UNL     1      21.798  48.908  48.627  1.00  0.00     0.001 A 
HETATM   17  C   UNL     1      22.037  50.048  47.865  1.00  0.00     0.002 A 
ENDBRANCH   6   7
ENDBRANCH   1   5
BRANCH   2  18
HETATM   18  C   UNL     1      27.160  42.688  51.400  1.00  0.00     0.280 C 
BRANCH  18  19
HETATM   19  O   UNL     1      26.580  43.129  52.632  1.00  0.00    -0.341 OA
BRANCH  19  20
HETATM   20  C   UNL     1      27.589  43.411  53.528  1.00  0.00     0.080 A 
HETATM   21  C   UNL     1      27.682  44.668  54.167  1.00  0.00     0.009 A 
HETATM   22  C   UNL     1      28.797  44.930  55.007  1.00  0.00    -0.006 A 
HETATM   23  C   UNL     1      26.703  45.672  53.993  1.00  0.00     0.015 A 
HETATM   24  C   UNL     1      28.893  46.214  55.599  1.00  0.00     0.014 A 
HETATM   25  C   UNL     1      29.748  43.892  55.202  1.00  0.00     0.022 A 
HETATM   26  C   UNL     1      27.923  47.197  55.391  1.00  0.00     0.001 A 
HETATM   27  C   UNL     1      26.822  46.923  54.595  1.00  0.00     0.001 A 
HETATM   28 BR   UNL     1      31.294  44.113  56.297  1.00  0.00    -0.050 Br
HETATM   29  C   UNL     1      29.598  42.638  54.600  1.00  0.00     0.023 A 
HETATM   30  C   UNL     1      28.515  42.395  53.766  1.00  0.00     0.039 A 
ENDBRANCH  19  20
ENDBRANCH  18  19
ENDBRANCH   2  18
TORSDOF 5
ENDMDL
MODEL 2
REMARK VINA RESULT:      -9.8      1.532      2.101
REMARK  5 active torsions:
REMARK  status: ('A' for Active; 'I' for Inactive)
REMARK    1  A    between atoms: C_7  and  C_8 
REMARK    2  A    between atoms: N_9  and  N_10 
REMARK       I    between atoms: N_10  and  C_11 
REMARK    3  A    between atoms: C_11  and  C_12 
REMARK    4  A    between atoms: C_12  and  O_13 
REMARK    5  A    between atoms: O_13  and  C_14 
ROOT
HETATM    1  N   UNL     1      25.027  46.445  50.674  1.00  0.00    -0.246 N 
HETATM    2  C   UNL     1      26.149  45.805  50.158  1.00  0.00     0.261 C 
HETATM    3  O   UNL     1      26.972  46.301  49.388  1.00  0.00    -0.269 OA
HETATM    4  H   UNL     1      24.301  45.844  51.060  1.00  0.00     0.192 HD
ENDROOT
BRANCH   1   5
HETATM    5  N   UNL     1      24.591  47.700  50.305  1.00  0.00    -0.184 NA
HETATM    6  C   UNL     1      23.690  47.775  49.376  1.00  0.00     0.153 C 
BRANCH   6   7
HETATM    7  C   UNL     1      23.133  49.055  48.973  1.00  0.00     0.018 A 
HETATM    8  C   UNL     1      23.885  50.054  48.362  1.00  0.00     0.018 A 
HETATM    9  C   UNL     1      25.319  50.088  47.969  1.00  0.00     0.069 C 
HETATM   10  N   UNL     1      23.054  51.118  48.124  1.00  0.00    -0.358 N 
HETATM   11  H   UNL     1      23.329  51.985  47.684  1.00  0.00     0.166 HD
HETATM   12  C   UNL     1      21.780  50.844  48.558  1.00  0.00     0.043 A 
HETATM   13  C   UNL     1      21.794  49.554  49.091  1.00  0.00     0.004 A 
HETATM   14  C   UNL     1      20.629  51.641  48.514  1.00  0.00     0.030 A 
HETATM   15  C   UNL     1      20.584  49.041  49.607  1.00  0.00     0.014 A 
HETATM   16  C   UNL     1      19.423  49.822  49.571  1.00  0.00     0.001 A 
HETATM   17  C   UNL     1      19.449  51.106  49.031  1.00  0.00     0.002 A 
ENDBRANCH   6   7
ENDBRANCH   1   5
BRANCH   2  18
HETATM   18  C   UNL     1      26.342  44.386  50.689  1.00  0.00     0.280 C 
BRANCH  18  19
HETATM   19  O   UNL     1      25.822  44.215  52.012  1.00  0.00    -0.341 OA
BRANCH  19  20
HETATM   20  C   UNL     1      26.872  44.166  52.904  1.00  0.00     0.080 A 
HETATM   21  C   UNL     1      27.129  45.226  53.802  1.00  0.00     0.009 A 
HETATM   22  C   UNL     1      28.281  45.158  54.631  1.00  0.00    -0.006 A 
HETATM   23  C   UNL     1      26.279  46.351  53.899  1.00  0.00     0.015 A 
HETATM   24  C   UNL     1      28.543  46.255  55.490  1.00  0.00     0.014 A 
HETATM   25  C   UNL     1      29.099  44.000  54.549  1.00  0.00     0.022 A 
HETATM   26  C   UNL     1      27.699  47.366  55.549  1.00  0.00     0.001 A 
HETATM   27  C   UNL     1      26.561  47.409  54.760  1.00  0.00     0.001 A 
HETATM   28 BR   UNL     1      30.678  43.785  55.598  1.00  0.00    -0.050 Br
HETATM   29  C   UNL     1      28.786  42.942  53.689  1.00  0.00     0.023 A 
HETATM   30  C   UNL     1      27.669  43.022  52.869  1.00  0.00     0.039 A 
ENDBRANCH  19  20
ENDBRANCH  18  19
ENDBRANCH   2  18
TORSDOF 5
ENDMDL
MODEL 3
REMARK VINA RESULT:      -9.5      3.989      9.439
REMARK  5 active torsions:
REMARK  status: ('A' for Active; 'I' for Inactive)
REMARK    1  A    between atoms: C_7  and  C_8 
REMARK    2  A    between atoms: N_9  and  N_10 
REMARK       I    between atoms: N_10  and  C_11 
REMARK    3  A    between atoms: C_11  and  C_12 
REMARK    4  A    between atoms: C_12  and  O_13 
REMARK    5  A    between atoms: O_13  and  C_14 
ROOT
HETATM    1  N   UNL     1      25.131  46.289  51.190  1.00  0.00    -0.246 N 
HETATM    2  C   UNL     1      24.717  47.216  50.240  1.00  0.00     0.261 C 
HETATM    3  O   UNL     1      25.233  48.315  50.034  1.00  0.00    -0.269 OA
HETATM    4  H   UNL     1      24.459  45.565  51.439  1.00  0.00     0.192 HD
ENDROOT
BRANCH   1   5
HETATM    5  N   UNL     1      26.109  46.506  52.137  1.00  0.00    -0.184 NA
HETATM    6  C   UNL     1      26.201  45.657  53.113  1.00  0.00     0.153 C 
BRANCH   6   7
HETATM    7  C   UNL     1      27.243  45.780  54.118  1.00  0.00     0.018 A 
HETATM    8  C   UNL     1      27.318  46.845  55.010  1.00  0.00     0.018 A 
HETATM    9  C   UNL     1      26.435  48.029  55.188  1.00  0.00     0.069 C 
HETATM   10  N   UNL     1      28.415  46.648  55.809  1.00  0.00    -0.358 N 
HETATM   11  H   UNL     1      28.714  47.263  56.552  1.00  0.00     0.166 HD
HETATM   12  C   UNL     1      29.059  45.483  55.467  1.00  0.00     0.043 A 
HETATM   13  C   UNL     1      28.346  44.911  54.412  1.00  0.00     0.004 A 
HETATM   14  C   UNL     1      30.211  44.904  56.015  1.00  0.00     0.030 A 
HETATM   15  C   UNL     1      28.818  43.691  53.882  1.00  0.00     0.014 A 
HETATM   16  C   UNL     1      29.967  43.096  54.417  1.00  0.00     0.001 A 
HETATM   17  C   UNL     1      30.653  43.698  55.469  1.00  0.00     0.002 A 
ENDBRANCH   6   7
ENDBRANCH   1   5
BRANCH   2  18
HETATM   18  C   UNL     1      23.557  46.730  49.376  1.00  0.00     0.280 C 
BRANCH  18  19
HETATM   19  O   UNL     1      23.104  47.721  48.447  1.00  0.00    -0.341 OA
BRANCH  19  20
HETATM   20  C   UNL     1      21.726  47.764  48.475  1.00  0.00     0.080 A 
HETATM   21  C   UNL     1      21.026  48.990  48.544  1.00  0.00     0.009 A 
HETATM   22  C   UNL     1      19.610  48.965  48.664  1.00  0.00    -0.006 A 
HETATM   23  C   UNL     1      21.689  50.237  48.500  1.00  0.00     0.015 A 
HETATM   24  C   UNL     1      18.934  50.205  48.779  1.00  0.00     0.014 A 
HETATM   25  C   UNL     1      18.959  47.702  48.662  1.00  0.00     0.022 A 
HETATM   26  C   UNL     1      19.616  51.424  48.756  1.00  0.00     0.001 A 
HETATM   27  C   UNL     1      20.994  51.440  48.608  1.00  0.00     0.001 A 
HETATM   28 BR   UNL     1      17.067  47.526  48.826  1.00  0.00    -0.050 Br
HETATM   29  C   UNL     1      19.677  46.508  48.536  1.00  0.00     0.023 A 
HETATM   30  C   UNL     1      21.062  46.539  48.437  1.00  0.00     0.039 A 
ENDBRANCH  19  20
ENDBRANCH  18  19
ENDBRANCH   2  18
TORSDOF 5
ENDMDL
MODEL 4
REMARK VINA RESULT:      -9.5      1.766      2.545
REMARK  5 active torsions:
REMARK  status: ('A' for Active; 'I' for Inactive)
REMARK    1  A    between atoms: C_7  and  C_8 
REMARK    2  A    between atoms: N_9  and  N_10 
REMARK       I    between atoms: N_10  and  C_11 
REMARK    3  A    between atoms: C_11  and  C_12 
REMARK    4  A    between atoms: C_12  and  O_13 
REMARK    5  A    between atoms: O_13  and  C_14 
ROOT
HETATM    1  N   UNL     1      25.703  45.121  51.235  1.00  0.00    -0.246 N 
HETATM    2  C   UNL     1      25.539  43.815  51.686  1.00  0.00     0.261 C 
HETATM    3  O   UNL     1      24.493  43.167  51.650  1.00  0.00    -0.269 OA
HETATM    4  H   UNL     1      26.523  45.618  51.577  1.00  0.00     0.192 HD
ENDROOT
BRANCH   1   5
HETATM    5  N   UNL     1      24.687  45.940  50.791  1.00  0.00    -0.184 NA
HETATM    6  C   UNL     1      24.443  45.960  49.517  1.00  0.00     0.153 C 
BRANCH   6   7
HETATM    7  C   UNL     1      23.350  46.749  48.975  1.00  0.00     0.018 A 
HETATM    8  C   UNL     1      22.147  46.193  48.553  1.00  0.00     0.018 A 
HETATM    9  C   UNL     1      21.673  44.783  48.556  1.00  0.00     0.069 C 
HETATM   10  N   UNL     1      21.350  47.212  48.098  1.00  0.00    -0.358 N 
HETATM   11  H   UNL     1      20.414  47.103  47.734  1.00  0.00     0.166 HD
HETATM   12  C   UNL     1      21.996  48.419  48.211  1.00  0.00     0.043 A 
HETATM   13  C   UNL     1      23.253  48.164  48.764  1.00  0.00     0.004 A 
HETATM   14  C   UNL     1      21.558  49.704  47.868  1.00  0.00     0.030 A 
HETATM   15  C   UNL     1      24.112  49.263  48.982  1.00  0.00     0.014 A 
HETATM   16  C   UNL     1      23.692  50.556  48.645  1.00  0.00     0.001 A 
HETATM   17  C   UNL     1      22.431  50.770  48.095  1.00  0.00     0.002 A 
ENDBRANCH   6   7
ENDBRANCH   1   5
BRANCH   2  18
HETATM   18  C   UNL     1      26.829  43.179  52.197  1.00  0.00     0.280 C 
BRANCH  18  19
HETATM   19  O   UNL     1      27.957  44.054  52.093  1.00  0.00    -0.341 OA
BRANCH  19  20
HETATM   20  C   UNL     1      28.711  43.952  53.243  1.00  0.00     0.080 A 
HETATM   21  C   UNL     1      28.555  44.864  54.313  1.00  0.00     0.009 A 
HETATM   22  C   UNL     1      29.426  44.763  55.431  1.00  0.00    -0.006 A 
HETATM   23  C   UNL     1      27.564  45.871  54.302  1.00  0.00     0.015 A 
HETATM   24  C   UNL     1      29.282  45.717  56.469  1.00  0.00     0.014 A 
HETATM   25  C   UNL     1      30.387  43.717  55.441  1.00  0.00     0.022 A 
HETATM   26  C   UNL     1      28.308  46.718  56.423  1.00  0.00     0.001 A 
HETATM   27  C   UNL     1      27.443  46.789  55.343  1.00  0.00     0.001 A 
HETATM   28 BR   UNL     1      31.622  43.475  56.875  1.00  0.00    -0.050 Br
HETATM   29  C   UNL     1      30.478  42.796  54.392  1.00  0.00     0.023 A 
HETATM   30  C   UNL     1      29.636  42.910  53.294  1.00  0.00     0.039 A 
ENDBRANCH  19  20
ENDBRANCH  18  19
ENDBRANCH   2  18
TORSDOF 5
ENDMDL
MODEL 5
REMARK VINA RESULT:      -9.4      4.087      9.774
REMARK  5 active torsions:
REMARK  status: ('A' for Active; 'I' for Inactive)
REMARK    1  A    between atoms: C_7  and  C_8 
REMARK    2  A    between atoms: N_9  and  N_10 
REMARK       I    between atoms: N_10  and  C_11 
REMARK    3  A    between atoms: C_11  and  C_12 
REMARK    4  A    between atoms: C_12  and  O_13 
REMARK    5  A    between atoms: O_13  and  C_14 
ROOT
HETATM    1  N   UNL     1      24.857  46.770  51.045  1.00  0.00    -0.246 N 
HETATM    2  C   UNL     1      24.665  47.676  50.008  1.00  0.00     0.261 C 
HETATM    3  O   UNL     1      25.458  48.550  49.658  1.00  0.00    -0.269 OA
HETATM    4  H   UNL     1      24.024  46.303  51.399  1.00  0.00     0.192 HD
ENDROOT
BRANCH   1   5
HETATM    5  N   UNL     1      25.915  46.789  51.928  1.00  0.00    -0.184 NA
HETATM    6  C   UNL     1      25.862  45.990  52.948  1.00  0.00     0.153 C 
BRANCH   6   7
HETATM    7  C   UNL     1      26.964  45.905  53.893  1.00  0.00     0.018 A 
HETATM    8  C   UNL     1      27.190  46.853  54.886  1.00  0.00     0.018 A 
HETATM    9  C   UNL     1      26.438  48.085  55.244  1.00  0.00     0.069 C 
HETATM   10  N   UNL     1      28.304  46.468  55.586  1.00  0.00    -0.358 N 
HETATM   11  H   UNL     1      28.701  46.967  56.371  1.00  0.00     0.166 HD
HETATM   12  C   UNL     1      28.813  45.296  55.083  1.00  0.00     0.043 A 
HETATM   13  C   UNL     1      27.991  44.912  54.021  1.00  0.00     0.004 A 
HETATM   14  C   UNL     1      29.930  44.557  55.491  1.00  0.00     0.030 A 
HETATM   15  C   UNL     1      28.312  43.721  53.336  1.00  0.00     0.014 A 
HETATM   16  C   UNL     1      29.426  42.968  53.730  1.00  0.00     0.001 A 
HETATM   17  C   UNL     1      30.222  43.384  54.793  1.00  0.00     0.002 A 
ENDBRANCH   6   7
ENDBRANCH   1   5
BRANCH   2  18
HETATM   18  C   UNL     1      23.360  47.463  49.244  1.00  0.00     0.280 C 
BRANCH  18  19
HETATM   19  O   UNL     1      23.291  48.233  48.039  1.00  0.00    -0.341 OA
BRANCH  19  20
HETATM   20  C   UNL     1      22.222  49.100  48.121  1.00  0.00     0.080 A 
HETATM   21  C   UNL     1      20.958  48.768  47.582  1.00  0.00     0.009 A 
HETATM   22  C   UNL     1      19.923  49.741  47.615  1.00  0.00    -0.006 A 
HETATM   23  C   UNL     1      20.694  47.504  47.011  1.00  0.00     0.015 A 
HETATM   24  C   UNL     1      18.679  49.403  47.027  1.00  0.00     0.014 A 
HETATM   25  C   UNL     1      20.196  50.991  48.233  1.00  0.00     0.022 A 
HETATM   26  C   UNL     1      18.451  48.153  46.447  1.00  0.00     0.001 A 
HETATM   27  C   UNL     1      19.457  47.199  46.447  1.00  0.00     0.001 A 
HETATM   28 BR   UNL     1      18.899  52.386  48.337  1.00  0.00    -0.050 Br
HETATM   29  C   UNL     1      21.441  51.267  48.808  1.00  0.00     0.023 A 
HETATM   30  C   UNL     1      22.454  50.319  48.756  1.00  0.00     0.039 A 
ENDBRANCH  19  20
ENDBRANCH  18  19
ENDBRANCH   2  18
TORSDOF 5
ENDMDL
MODEL 6
REMARK VINA RESULT:      -9.3      3.440      7.889
REMARK  5 active torsions:
REMARK  status: ('A' for Active; 'I' for Inactive)
REMARK    1  A    between atoms: C_7  and  C_8 
REMARK    2  A    between atoms: N_9  and  N_10 
REMARK       I    between atoms: N_10  and  C_11 
REMARK    3  A    between atoms: C_11  and  C_12 
REMARK    4  A    between atoms: C_12  and  O_13 
REMARK    5  A    between atoms: O_13  and  C_14 
ROOT
HETATM    1  N   UNL     1      25.336  43.372  52.185  1.00  0.00    -0.246 N 
HETATM    2  C   UNL     1      25.700  42.449  51.210  1.00  0.00     0.261 C 
HETATM    3  O   UNL     1      26.719  41.759  51.217  1.00  0.00    -0.269 OA
HETATM    4  H   UNL     1      24.632  44.058  51.919  1.00  0.00     0.192 HD
ENDROOT
BRANCH   1   5
HETATM    5  N   UNL     1      26.123  43.751  53.251  1.00  0.00    -0.184 NA
HETATM    6  C   UNL     1      26.878  44.795  53.101  1.00  0.00     0.153 C 
BRANCH   6   7
HETATM    7  C   UNL     1      27.692  45.296  54.196  1.00  0.00     0.018 A 
HETATM    8  C   UNL     1      27.445  46.507  54.834  1.00  0.00     0.018 A 
HETATM    9  C   UNL     1      26.378  47.521  54.619  1.00  0.00     0.069 C 
HETATM   10  N   UNL     1      28.398  46.671  55.807  1.00  0.00    -0.358 N 
HETATM   11  H   UNL     1      28.462  47.461  56.434  1.00  0.00     0.166 HD
HETATM   12  C   UNL     1      29.259  45.601  55.826  1.00  0.00     0.043 A 
HETATM   13  C   UNL     1      28.841  44.717  54.829  1.00  0.00     0.004 A 
HETATM   14  C   UNL     1      30.367  45.358  56.647  1.00  0.00     0.030 A 
HETATM   15  C   UNL     1      29.577  43.525  54.653  1.00  0.00     0.014 A 
HETATM   16  C   UNL     1      30.687  43.265  55.466  1.00  0.00     0.001 A 
HETATM   17  C   UNL     1      31.075  44.172  56.448  1.00  0.00     0.002 A 
ENDBRANCH   6   7
ENDBRANCH   1   5
BRANCH   2  18
HETATM   18  C   UNL     1      24.662  42.290  50.102  1.00  0.00     0.280 C 
BRANCH  18  19
HETATM   19  O   UNL     1      25.009  43.004  48.911  1.00  0.00    -0.341 OA
BRANCH  19  20
HETATM   20  C   UNL     1      24.210  44.123  48.809  1.00  0.00     0.080 A 
HETATM   21  C   UNL     1      24.685  45.406  49.166  1.00  0.00     0.009 A 
HETATM   22  C   UNL     1      23.785  46.504  49.129  1.00  0.00    -0.006 A 
HETATM   23  C   UNL     1      26.024  45.627  49.560  1.00  0.00     0.015 A 
HETATM   24  C   UNL     1      24.272  47.772  49.535  1.00  0.00     0.014 A 
HETATM   25  C   UNL     1      22.455  46.267  48.689  1.00  0.00     0.022 A 
HETATM   26  C   UNL     1      25.594  47.959  49.943  1.00  0.00     0.001 A 
HETATM   27  C   UNL     1      26.473  46.888  49.946  1.00  0.00     0.001 A 
HETATM   28 BR   UNL     1      21.145  47.651  48.600  1.00  0.00    -0.050 Br
HETATM   29  C   UNL     1      22.032  44.995  48.289  1.00  0.00     0.023 A 
HETATM   30  C   UNL     1      22.911  43.923  48.344  1.00  0.00     0.039 A 
ENDBRANCH  19  20
ENDBRANCH  18  19
ENDBRANCH   2  18
TORSDOF 5
ENDMDL
MODEL 7
REMARK VINA RESULT:      -9.1      3.904      9.357
REMARK  5 active torsions:
REMARK  status: ('A' for Active; 'I' for Inactive)
REMARK    1  A    between atoms: C_7  and  C_8 
REMARK    2  A    between atoms: N_9  and  N_10 
REMARK       I    between atoms: N_10  and  C_11 
REMARK    3  A    between atoms: C_11  and  C_12 
REMARK    4  A    between atoms: C_12  and  O_13 
REMARK    5  A    between atoms: O_13  and  C_14 
ROOT
HETATM    1  N   UNL     1      25.933  45.588  52.468  1.00  0.00    -0.246 N 
HETATM    2  C   UNL     1      25.739  46.754  51.735  1.00  0.00     0.261 C 
HETATM    3  O   UNL     1      26.443  47.762  51.785  1.00  0.00    -0.269 OA
HETATM    4  H   UNL     1      25.135  44.959  52.538  1.00  0.00     0.192 HD
ENDROOT
BRANCH   1   5
HETATM    5  N   UNL     1      26.875  45.424  53.462  1.00  0.00    -0.184 NA
HETATM    6  C   UNL     1      27.773  44.504  53.294  1.00  0.00     0.153 C 
BRANCH   6   7
HETATM    7  C   UNL     1      28.837  44.308  54.265  1.00  0.00     0.018 A 
HETATM    8  C   UNL     1      29.872  43.396  54.085  1.00  0.00     0.018 A 
HETATM    9  C   UNL     1      30.170  42.473  52.958  1.00  0.00     0.069 C 
HETATM   10  N   UNL     1      30.688  43.466  55.185  1.00  0.00    -0.358 N 
HETATM   11  H   UNL     1      31.525  42.918  55.326  1.00  0.00     0.166 HD
HETATM   12  C   UNL     1      30.219  44.398  56.078  1.00  0.00     0.043 A 
HETATM   13  C   UNL     1      29.060  44.949  55.528  1.00  0.00     0.004 A 
HETATM   14  C   UNL     1      30.736  44.788  57.319  1.00  0.00     0.030 A 
HETATM   15  C   UNL     1      28.388  45.946  56.268  1.00  0.00     0.014 A 
HETATM   16  C   UNL     1      28.890  46.348  57.512  1.00  0.00     0.001 A 
HETATM   17  C   UNL     1      30.048  45.774  58.028  1.00  0.00     0.002 A 
ENDBRANCH   6   7
ENDBRANCH   1   5
BRANCH   2  18
HETATM   18  C   UNL     1      24.568  46.674  50.759  1.00  0.00     0.280 C 
BRANCH  18  19
HETATM   19  O   UNL     1      24.195  47.952  50.234  1.00  0.00    -0.341 OA
BRANCH  19  20
HETATM   20  C   UNL     1      23.217  47.777  49.278  1.00  0.00     0.080 A 
HETATM   21  C   UNL     1      22.394  48.847  48.858  1.00  0.00     0.009 A 
HETATM   22  C   UNL     1      21.343  48.582  47.939  1.00  0.00    -0.006 A 
HETATM   23  C   UNL     1      22.582  50.167  49.325  1.00  0.00     0.015 A 
HETATM   24  C   UNL     1      20.501  49.660  47.569  1.00  0.00     0.014 A 
HETATM   25  C   UNL     1      21.198  47.257  47.449  1.00  0.00     0.022 A 
HETATM   26  C   UNL     1      20.695  50.953  48.063  1.00  0.00     0.001 A 
HETATM   27  C   UNL     1      21.741  51.208  48.935  1.00  0.00     0.001 A 
HETATM   28 BR   UNL     1      19.825  46.764  46.220  1.00  0.00    -0.050 Br
HETATM   29  C   UNL     1      22.065  46.232  47.842  1.00  0.00     0.023 A 
HETATM   30  C   UNL     1      23.079  46.493  48.753  1.00  0.00     0.039 A 
ENDBRANCH  19  20
ENDBRANCH  18  19
ENDBRANCH   2  18
TORSDOF 5
ENDMDL
MODEL 8
REMARK VINA RESULT:      -8.9      2.996      4.472
REMARK  5 active torsions:
REMARK  status: ('A' for Active; 'I' for Inactive)
REMARK    1  A    between atoms: C_7  and  C_8 
REMARK    2  A    between atoms: N_9  and  N_10 
REMARK       I    between atoms: N_10  and  C_11 
REMARK    3  A    between atoms: C_11  and  C_12 
REMARK    4  A    between atoms: C_12  and  O_13 
REMARK    5  A    between atoms: O_13  and  C_14 
ROOT
HETATM    1  N   UNL     1      23.220  47.410  49.624  1.00  0.00    -0.246 N 
HETATM    2  C   UNL     1      24.573  47.658  49.832  1.00  0.00     0.261 C 
HETATM    3  O   UNL     1      25.158  48.713  49.583  1.00  0.00    -0.269 OA
HETATM    4  H   UNL     1      22.937  46.431  49.607  1.00  0.00     0.192 HD
ENDROOT
BRANCH   1   5
HETATM    5  N   UNL     1      22.345  48.265  48.989  1.00  0.00    -0.184 NA
HETATM    6  C   UNL     1      21.261  47.757  48.491  1.00  0.00     0.153 C 
BRANCH   6   7
HETATM    7  C   UNL     1      20.259  48.598  47.860  1.00  0.00     0.018 A 
HETATM    8  C   UNL     1      19.562  48.223  46.716  1.00  0.00     0.018 A 
HETATM    9  C   UNL     1      19.619  46.977  45.907  1.00  0.00     0.069 C 
HETATM   10  N   UNL     1      18.706  49.245  46.392  1.00  0.00    -0.358 N 
HETATM   11  H   UNL     1      18.070  49.247  45.607  1.00  0.00     0.166 HD
HETATM   12  C   UNL     1      18.821  50.277  47.292  1.00  0.00     0.043 A 
HETATM   13  C   UNL     1      19.785  49.900  48.230  1.00  0.00     0.004 A 
HETATM   14  C   UNL     1      18.146  51.502  47.339  1.00  0.00     0.030 A 
HETATM   15  C   UNL     1      20.081  50.807  49.271  1.00  0.00     0.014 A 
HETATM   16  C   UNL     1      19.415  52.037  49.335  1.00  0.00     0.001 A 
HETATM   17  C   UNL     1      18.461  52.378  48.380  1.00  0.00     0.002 A 
ENDBRANCH   6   7
ENDBRANCH   1   5
BRANCH   2  18
HETATM   18  C   UNL     1      25.314  46.496  50.487  1.00  0.00     0.280 C 
BRANCH  18  19
HETATM   19  O   UNL     1      24.941  46.301  51.855  1.00  0.00    -0.341 OA
BRANCH  19  20
HETATM   20  C   UNL     1      25.887  45.507  52.470  1.00  0.00     0.080 A 
HETATM   21  C   UNL     1      26.643  45.975  53.568  1.00  0.00     0.009 A 
HETATM   22  C   UNL     1      27.667  45.144  54.097  1.00  0.00    -0.006 A 
HETATM   23  C   UNL     1      26.415  47.241  54.152  1.00  0.00     0.015 A 
HETATM   24  C   UNL     1      28.444  45.653  55.168  1.00  0.00     0.014 A 
HETATM   25  C   UNL     1      27.852  43.858  53.523  1.00  0.00     0.022 A 
HETATM   26  C   UNL     1      28.212  46.919  55.713  1.00  0.00     0.001 A 
HETATM   27  C   UNL     1      27.191  47.709  55.210  1.00  0.00     0.001 A 
HETATM   28 BR   UNL     1      29.195  42.649  54.132  1.00  0.00    -0.050 Br
HETATM   29  C   UNL     1      27.048  43.403  52.473  1.00  0.00     0.023 A 
HETATM   30  C   UNL     1      26.061  44.226  51.948  1.00  0.00     0.039 A 
ENDBRANCH  19  20
ENDBRANCH  18  19
ENDBRANCH   2  18
TORSDOF 5
ENDMDL
MODEL 9
REMARK VINA RESULT:      -8.8      2.335      3.963
REMARK  5 active torsions:
REMARK  status: ('A' for Active; 'I' for Inactive)
REMARK    1  A    between atoms: C_7  and  C_8 
REMARK    2  A    between atoms: N_9  and  N_10 
REMARK       I    between atoms: N_10  and  C_11 
REMARK    3  A    between atoms: C_11  and  C_12 
REMARK    4  A    between atoms: C_12  and  O_13 
REMARK    5  A    between atoms: O_13  and  C_14 
ROOT
HETATM    1  N   UNL     1      24.546  46.372  49.759  1.00  0.00    -0.246 N 
HETATM    2  C   UNL     1      25.675  46.742  50.483  1.00  0.00     0.261 C 
HETATM    3  O   UNL     1      25.938  47.879  50.875  1.00  0.00    -0.269 OA
HETATM    4  H   UNL     1      24.595  45.480  49.269  1.00  0.00     0.192 HD
ENDROOT
BRANCH   1   5
HETATM    5  N   UNL     1      23.605  47.244  49.258  1.00  0.00    -0.184 NA
HETATM    6  C   UNL     1      22.670  46.753  48.505  1.00  0.00     0.153 C 
BRANCH   6   7
HETATM    7  C   UNL     1      21.605  47.595  47.986  1.00  0.00     0.018 A 
HETATM    8  C   UNL     1      20.674  47.154  47.051  1.00  0.00     0.018 A 
HETATM    9  C   UNL     1      20.504  45.829  46.398  1.00  0.00     0.069 C 
HETATM   10  N   UNL     1      19.823  48.196  46.782  1.00  0.00    -0.358 N 
HETATM   11  H   UNL     1      19.043  48.161  46.141  1.00  0.00     0.166 HD
HETATM   12  C   UNL     1      20.169  49.305  47.516  1.00  0.00     0.043 A 
HETATM   13  C   UNL     1      21.281  48.959  48.286  1.00  0.00     0.004 A 
HETATM   14  C   UNL     1      19.579  50.574  47.550  1.00  0.00     0.030 A 
HETATM   15  C   UNL     1      21.826  49.946  49.136  1.00  0.00     0.014 A 
HETATM   16  C   UNL     1      21.249  51.221  49.184  1.00  0.00     0.001 A 
HETATM   17  C   UNL     1      20.141  51.528  48.399  1.00  0.00     0.002 A 
ENDBRANCH   6   7
ENDBRANCH   1   5
BRANCH   2  18
HETATM   18  C   UNL     1      26.586  45.569  50.837  1.00  0.00     0.280 C 
BRANCH  18  19
HETATM   19  O   UNL     1      26.094  44.799  51.940  1.00  0.00    -0.341 OA
BRANCH  19  20
HETATM   20  C   UNL     1      26.863  45.067  53.052  1.00  0.00     0.080 A 
HETATM   21  C   UNL     1      28.037  44.332  53.334  1.00  0.00     0.009 A 
HETATM   22  C   UNL     1      28.734  44.593  54.544  1.00  0.00    -0.006 A 
HETATM   23  C   UNL     1      28.536  43.347  52.452  1.00  0.00     0.015 A 
HETATM   24  C   UNL     1      29.882  43.811  54.828  1.00  0.00     0.014 A 
HETATM   25  C   UNL     1      28.240  45.616  55.396  1.00  0.00     0.022 A 
HETATM   26  C   UNL     1      30.342  42.827  53.949  1.00  0.00     0.001 A 
HETATM   27  C   UNL     1      29.673  42.602  52.757  1.00  0.00     0.001 A 
HETATM   28 BR   UNL     1      29.074  46.061  57.054  1.00  0.00    -0.050 Br
HETATM   29  C   UNL     1      27.106  46.364  55.061  1.00  0.00     0.023 A 
HETATM   30  C   UNL     1      26.420  46.093  53.886  1.00  0.00     0.039 A 
ENDBRANCH  19  20
ENDBRANCH  18  19
ENDBRANCH   2  18
TORSDOF 5
ENDMDL
MODEL 10
REMARK VINA RESULT:      -8.8      3.300      8.575
REMARK  5 active torsions:
REMARK  status: ('A' for Active; 'I' for Inactive)
REMARK    1  A    between atoms: C_7  and  C_8 
REMARK    2  A    between atoms: N_9  and  N_10 
REMARK       I    between atoms: N_10  and  C_11 
REMARK    3  A    between atoms: C_11  and  C_12 
REMARK    4  A    between atoms: C_12  and  O_13 
REMARK    5  A    between atoms: O_13  and  C_14 
ROOT
HETATM    1  N   UNL     1      24.936  44.485  52.471  1.00  0.00    -0.246 N 
HETATM    2  C   UNL     1      25.048  43.711  51.320  1.00  0.00     0.261 C 
HETATM    3  O   UNL     1      25.931  42.884  51.092  1.00  0.00    -0.269 OA
HETATM    4  H   UNL     1      24.338  45.307  52.406  1.00  0.00     0.192 HD
ENDROOT
BRANCH   1   5
HETATM    5  N   UNL     1      25.867  44.538  53.485  1.00  0.00    -0.184 NA
HETATM    6  C   UNL     1      26.766  45.471  53.429  1.00  0.00     0.153 C 
BRANCH   6   7
HETATM    7  C   UNL     1      27.747  45.633  54.489  1.00  0.00     0.018 A 
HETATM    8  C   UNL     1      27.750  46.717  55.362  1.00  0.00     0.018 A 
HETATM    9  C   UNL     1      26.837  47.886  55.465  1.00  0.00     0.069 C 
HETATM   10  N   UNL     1      28.804  46.556  56.225  1.00  0.00    -0.358 N 
HETATM   11  H   UNL     1      29.048  47.192  56.972  1.00  0.00     0.166 HD
HETATM   12  C   UNL     1      29.488  45.399  55.944  1.00  0.00     0.043 A 
HETATM   13  C   UNL     1      28.847  44.792  54.862  1.00  0.00     0.004 A 
HETATM   14  C   UNL     1      30.617  44.853  56.567  1.00  0.00     0.030 A 
HETATM   15  C   UNL     1      29.371  43.572  54.385  1.00  0.00     0.014 A 
HETATM   16  C   UNL     1      30.499  43.010  54.996  1.00  0.00     0.001 A 
HETATM   17  C   UNL     1      31.112  43.646  56.072  1.00  0.00     0.002 A 
ENDBRANCH   6   7
ENDBRANCH   1   5
BRANCH   2  18
HETATM   18  C   UNL     1      23.905  43.917  50.330  1.00  0.00     0.280 C 
BRANCH  18  19
HETATM   19  O   UNL     1      24.323  44.574  49.129  1.00  0.00    -0.341 OA
BRANCH  19  20
HETATM   20  C   UNL     1      23.868  45.875  49.147  1.00  0.00     0.080 A 
HETATM   21  C   UNL     1      22.696  46.258  48.457  1.00  0.00     0.009 A 
HETATM   22  C   UNL     1      22.330  47.631  48.436  1.00  0.00    -0.006 A 
HETATM   23  C   UNL     1      21.879  45.320  47.786  1.00  0.00     0.015 A 
HETATM   24  C   UNL     1      21.177  47.998  47.698  1.00  0.00     0.014 A 
HETATM   25  C   UNL     1      23.141  48.551  49.152  1.00  0.00     0.022 A 
HETATM   26  C   UNL     1      20.400  47.053  47.024  1.00  0.00     0.001 A 
HETATM   27  C   UNL     1      20.746  45.712  47.076  1.00  0.00     0.001 A 
HETATM   28 BR   UNL     1      22.769  50.422  49.199  1.00  0.00    -0.050 Br
HETATM   29  C   UNL     1      24.265  48.132  49.873  1.00  0.00     0.023 A 
HETATM   30  C   UNL     1      24.626  46.792  49.875  1.00  0.00     0.039 A 
ENDBRANCH  19  20
ENDBRANCH  18  19
ENDBRANCH   2  18
TORSDOF 5
ENDMDL
