MODEL 1
REMARK VINA RESULT:      -7.7      0.000      0.000
REMARK  10 active torsions:
REMARK  status: ('A' for Active; 'I' for Inactive)
REMARK    1  A    between atoms: C_6  and  C_7 
REMARK    2  A    between atoms: C_7  and  C_8 
REMARK       I    between atoms: C_8  and  N_9 
REMARK    3  A    between atoms: N_9  and  C_10 
REMARK    4  A    between atoms: C_10  and  C_11 
REMARK    5  A    between atoms: C_11  and  N_12 
REMARK    6  A    between atoms: C_17  and  C_18 
REMARK    7  A    between atoms: C_27  and  C_28 
REMARK    8  A    between atoms: C_28  and  O_29 
REMARK    9  A    between atoms: O_29  and  C_30 
REMARK   10  A    between atoms: C_30  and  C_31 
ROOT
HETATM    1  C   UNL     1      22.737  44.814  45.258  1.00  0.00     0.071 C 
HETATM    2  C   UNL     1      22.029  45.705  46.254  1.00  0.00     0.048 C 
HETATM    3  N   UNL     1      21.011  46.452  45.680  1.00  0.00    -0.229 NA
HETATM    4  C   UNL     1      20.115  46.921  46.478  1.00  0.00     0.170 C 
HETATM    5  N   UNL     1      20.264  46.989  48.026  1.00  0.00    -0.318 N 
HETATM    6  C   UNL     1      19.158  47.318  48.603  1.00  0.00     0.011 C 
HETATM    7  C   UNL     1      21.665  46.806  48.457  1.00  0.00     0.168 C 
HETATM    8  S   UNL     1      18.575  47.529  45.974  1.00  0.00    -0.086 SA
HETATM    9  C   UNL     1      17.960  47.428  47.688  1.00  0.00     0.135 C 
HETATM   10  C   UNL     1      22.222  45.691  47.595  1.00  0.00     0.069 C 
ENDROOT
BRANCH   6  11
HETATM   11  C   UNL     1      19.079  47.583  50.074  1.00  0.00     0.156 C 
BRANCH  11  12
HETATM   12  C   UNL     1      18.974  49.041  50.467  1.00  0.00     0.223 C 
HETATM   13  N   UNL     1      19.301  49.908  49.454  1.00  0.00    -0.359 N 
HETATM   14  H   UNL     1      19.657  49.510  48.588  1.00  0.00     0.162 HD
HETATM   15  O   UNL     1      18.648  49.399  51.593  1.00  0.00    -0.273 OA
BRANCH  13  16
HETATM   16  C   UNL     1      19.570  51.339  49.609  1.00  0.00     0.150 C 
BRANCH  16  17
HETATM   17  C   UNL     1      19.312  52.245  48.390  1.00  0.00     0.253 C 
BRANCH  17  18
HETATM   18  N   UNL     1      17.877  52.714  48.275  1.00  0.00    -0.077 N 
HETATM   19  H   UNL     1      17.903  53.696  47.933  1.00  0.00     0.279 HD
HETATM   20  C   UNL     1      17.047  51.936  47.291  1.00  0.00     0.269 C 
HETATM   21  C   UNL     1      17.215  52.735  49.626  1.00  0.00     0.269 C 
ENDBRANCH  17  18
ENDBRANCH  16  17
ENDBRANCH  13  16
ENDBRANCH  11  12
ENDBRANCH   6  11
BRANCH   7  22
HETATM   22  C   UNL     1      22.480  48.121  48.378  1.00  0.00    -0.009 A 
HETATM   23  C   UNL     1      23.714  48.268  49.055  1.00  0.00     0.042 A 
HETATM   24 CL   UNL     1      24.376  47.036  50.063  1.00  0.00    -0.084 Cl
HETATM   25  C   UNL     1      24.464  49.449  48.962  1.00  0.00     0.024 A 
HETATM   26  C   UNL     1      23.997  50.527  48.220  1.00  0.00     0.002 A 
HETATM   27  C   UNL     1      22.775  50.431  47.572  1.00  0.00     0.001 A 
HETATM   28  C   UNL     1      22.028  49.250  47.648  1.00  0.00     0.011 A 
ENDBRANCH   7  22
BRANCH  10  29
HETATM   29  C   UNL     1      22.584  44.456  48.362  1.00  0.00     0.294 C 
HETATM   30  O   UNL     1      21.732  43.654  48.717  1.00  0.00    -0.259 OA
BRANCH  29  31
HETATM   31  O   UNL     1      23.905  44.205  48.263  1.00  0.00    -0.313 OA
BRANCH  31  32
HETATM   32  C   UNL     1      24.417  43.095  49.018  1.00  0.00     0.217 C 
BRANCH  32  33
HETATM   33  C   UNL     1      25.307  43.581  50.147  1.00  0.00    -0.034 A 
HETATM   34  C   UNL     1      24.829  43.748  51.459  1.00  0.00     0.009 A 
HETATM   35  C   UNL     1      25.680  44.149  52.491  1.00  0.00     0.001 A 
HETATM   36  C   UNL     1      27.033  44.351  52.235  1.00  0.00     0.000 A 
HETATM   37  C   UNL     1      27.532  44.147  50.951  1.00  0.00     0.001 A 
HETATM   38  C   UNL     1      26.675  43.776  49.910  1.00  0.00     0.009 A 
ENDBRANCH  32  33
ENDBRANCH  31  32
ENDBRANCH  29  31
ENDBRANCH  10  29
TORSDOF 10
ENDMDL
MODEL 2
REMARK VINA RESULT:      -7.5      2.777      7.784
REMARK  10 active torsions:
REMARK  status: ('A' for Active; 'I' for Inactive)
REMARK    1  A    between atoms: C_6  and  C_7 
REMARK    2  A    between atoms: C_7  and  C_8 
REMARK       I    between atoms: C_8  and  N_9 
REMARK    3  A    between atoms: N_9  and  C_10 
REMARK    4  A    between atoms: C_10  and  C_11 
REMARK    5  A    between atoms: C_11  and  N_12 
REMARK    6  A    between atoms: C_17  and  C_18 
REMARK    7  A    between atoms: C_27  and  C_28 
REMARK    8  A    between atoms: C_28  and  O_29 
REMARK    9  A    between atoms: O_29  and  C_30 
REMARK   10  A    between atoms: C_30  and  C_31 
ROOT
HETATM    1  C   UNL     1      15.608  48.546  45.542  1.00  0.00     0.071 C 
HETATM    2  C   UNL     1      16.941  48.084  46.086  1.00  0.00     0.048 C 
HETATM    3  N   UNL     1      16.921  46.765  46.513  1.00  0.00    -0.229 NA
HETATM    4  C   UNL     1      18.059  46.169  46.613  1.00  0.00     0.170 C 
HETATM    5  N   UNL     1      19.435  46.897  46.609  1.00  0.00    -0.318 N 
HETATM    6  C   UNL     1      20.419  46.066  46.526  1.00  0.00     0.011 C 
HETATM    7  C   UNL     1      19.297  48.348  46.848  1.00  0.00     0.168 C 
HETATM    8  S   UNL     1      18.261  44.456  46.737  1.00  0.00    -0.086 SA
HETATM    9  C   UNL     1      20.029  44.621  46.319  1.00  0.00     0.135 C 
HETATM   10  C   UNL     1      18.097  48.790  46.035  1.00  0.00     0.069 C 
ENDROOT
BRANCH   6  11
HETATM   11  C   UNL     1      21.844  46.510  46.643  1.00  0.00     0.156 C 
BRANCH  11  12
HETATM   12  C   UNL     1      22.380  46.612  48.055  1.00  0.00     0.223 C 
HETATM   13  N   UNL     1      22.823  47.869  48.385  1.00  0.00    -0.359 N 
HETATM   14  H   UNL     1      22.834  48.573  47.652  1.00  0.00     0.162 HD
HETATM   15  O   UNL     1      22.428  45.650  48.812  1.00  0.00    -0.273 OA
BRANCH  13  16
HETATM   16  C   UNL     1      23.644  48.204  49.550  1.00  0.00     0.150 C 
BRANCH  16  17
HETATM   17  C   UNL     1      25.069  47.622  49.606  1.00  0.00     0.253 C 
BRANCH  17  18
HETATM   18  N   UNL     1      25.154  46.292  50.326  1.00  0.00    -0.077 N 
HETATM   19  H   UNL     1      24.207  45.864  50.288  1.00  0.00     0.279 HD
HETATM   20  C   UNL     1      26.099  45.305  49.696  1.00  0.00     0.269 C 
HETATM   21  C   UNL     1      25.490  46.495  51.778  1.00  0.00     0.269 C 
ENDBRANCH  17  18
ENDBRANCH  16  17
ENDBRANCH  13  16
ENDBRANCH  11  12
ENDBRANCH   6  11
BRANCH   7  22
HETATM   22  C   UNL     1      19.186  48.686  48.356  1.00  0.00    -0.009 A 
HETATM   23  C   UNL     1      19.917  49.753  48.929  1.00  0.00     0.042 A 
HETATM   24 CL   UNL     1      21.027  50.715  48.025  1.00  0.00    -0.084 Cl
HETATM   25  C   UNL     1      19.797  50.076  50.289  1.00  0.00     0.024 A 
HETATM   26  C   UNL     1      18.972  49.331  51.122  1.00  0.00     0.002 A 
HETATM   27  C   UNL     1      18.268  48.256  50.601  1.00  0.00     0.001 A 
HETATM   28  C   UNL     1      18.371  47.937  49.242  1.00  0.00     0.011 A 
ENDBRANCH   7  22
BRANCH  10  29
HETATM   29  C   UNL     1      18.433  49.738  44.924  1.00  0.00     0.294 C 
HETATM   30  O   UNL     1      18.210  49.455  43.756  1.00  0.00    -0.259 OA
BRANCH  29  31
HETATM   31  O   UNL     1      18.639  50.980  45.405  1.00  0.00    -0.313 OA
BRANCH  31  32
HETATM   32  C   UNL     1      17.479  51.803  45.608  1.00  0.00     0.217 C 
BRANCH  32  33
HETATM   33  C   UNL     1      17.181  51.952  47.089  1.00  0.00    -0.034 A 
HETATM   34  C   UNL     1      16.067  51.344  47.693  1.00  0.00     0.009 A 
HETATM   35  C   UNL     1      15.841  51.456  49.067  1.00  0.00     0.001 A 
HETATM   36  C   UNL     1      16.750  52.145  49.865  1.00  0.00     0.000 A 
HETATM   37  C   UNL     1      17.882  52.716  49.289  1.00  0.00     0.001 A 
HETATM   38  C   UNL     1      18.092  52.631  47.909  1.00  0.00     0.009 A 
ENDBRANCH  32  33
ENDBRANCH  31  32
ENDBRANCH  29  31
ENDBRANCH  10  29
TORSDOF 10
ENDMDL
MODEL 3
REMARK VINA RESULT:      -7.3     22.404     25.491
REMARK  10 active torsions:
REMARK  status: ('A' for Active; 'I' for Inactive)
REMARK    1  A    between atoms: C_6  and  C_7 
REMARK    2  A    between atoms: C_7  and  C_8 
REMARK       I    between atoms: C_8  and  N_9 
REMARK    3  A    between atoms: N_9  and  C_10 
REMARK    4  A    between atoms: C_10  and  C_11 
REMARK    5  A    between atoms: C_11  and  N_12 
REMARK    6  A    between atoms: C_17  and  C_18 
REMARK    7  A    between atoms: C_27  and  C_28 
REMARK    8  A    between atoms: C_28  and  O_29 
REMARK    9  A    between atoms: O_29  and  C_30 
REMARK   10  A    between atoms: C_30  and  C_31 
ROOT
HETATM    1  C   UNL     1      35.813  44.318  67.488  1.00  0.00     0.071 C 
HETATM    2  C   UNL     1      37.174  44.597  66.891  1.00  0.00     0.048 C 
HETATM    3  N   UNL     1      38.199  43.943  67.559  1.00  0.00    -0.229 NA
HETATM    4  C   UNL     1      39.306  43.791  66.917  1.00  0.00     0.170 C 
HETATM    5  N   UNL     1      39.677  44.553  65.612  1.00  0.00    -0.318 N 
HETATM    6  C   UNL     1      40.747  44.081  65.066  1.00  0.00     0.011 C 
HETATM    7  C   UNL     1      38.805  45.724  65.385  1.00  0.00     0.168 C 
HETATM    8  S   UNL     1      40.560  42.690  67.374  1.00  0.00    -0.086 SA
HETATM    9  C   UNL     1      41.313  42.841  65.719  1.00  0.00     0.135 C 
HETATM   10  C   UNL     1      37.403  45.272  65.739  1.00  0.00     0.069 C 
ENDROOT
BRANCH   6  11
HETATM   11  C   UNL     1      41.384  44.732  63.878  1.00  0.00     0.156 C 
BRANCH  11  12
HETATM   12  C   UNL     1      42.436  45.774  64.195  1.00  0.00     0.223 C 
HETATM   13  N   UNL     1      43.722  45.298  64.118  1.00  0.00    -0.359 N 
HETATM   14  H   UNL     1      43.847  44.303  63.947  1.00  0.00     0.162 HD
HETATM   15  O   UNL     1      42.152  46.924  64.510  1.00  0.00    -0.273 OA
BRANCH  13  16
HETATM   16  C   UNL     1      44.913  45.971  64.639  1.00  0.00     0.150 C 
BRANCH  16  17
HETATM   17  C   UNL     1      45.143  45.928  66.161  1.00  0.00     0.253 C 
BRANCH  17  18
HETATM   18  N   UNL     1      45.394  47.288  66.777  1.00  0.00    -0.077 N 
HETATM   19  H   UNL     1      45.996  47.139  67.611  1.00  0.00     0.279 HD
HETATM   20  C   UNL     1      46.129  48.248  65.881  1.00  0.00     0.269 C 
HETATM   21  C   UNL     1      44.106  47.897  67.262  1.00  0.00     0.269 C 
ENDBRANCH  17  18
ENDBRANCH  16  17
ENDBRANCH  13  16
ENDBRANCH  11  12
ENDBRANCH   6  11
BRANCH   7  22
HETATM   22  C   UNL     1      39.277  46.968  66.179  1.00  0.00    -0.009 A 
HETATM   23  C   UNL     1      38.963  48.280  65.752  1.00  0.00     0.042 A 
HETATM   24 CL   UNL     1      38.095  48.603  64.297  1.00  0.00    -0.084 Cl
HETATM   25  C   UNL     1      39.368  49.405  66.484  1.00  0.00     0.024 A 
HETATM   26  C   UNL     1      40.120  49.262  67.643  1.00  0.00     0.002 A 
HETATM   27  C   UNL     1      40.476  47.992  68.072  1.00  0.00     0.001 A 
HETATM   28  C   UNL     1      40.063  46.864  67.355  1.00  0.00     0.011 A 
ENDBRANCH   7  22
BRANCH  10  29
HETATM   29  C   UNL     1      36.461  45.254  64.574  1.00  0.00     0.294 C 
HETATM   30  O   UNL     1      36.161  46.281  63.982  1.00  0.00    -0.259 OA
BRANCH  29  31
HETATM   31  O   UNL     1      36.321  44.002  64.094  1.00  0.00    -0.313 OA
BRANCH  31  32
HETATM   32  C   UNL     1      37.262  43.576  63.096  1.00  0.00     0.217 C 
BRANCH  32  33
HETATM   33  C   UNL     1      37.943  42.287  63.518  1.00  0.00    -0.034 A 
HETATM   34  C   UNL     1      37.574  41.592  64.682  1.00  0.00     0.009 A 
HETATM   35  C   UNL     1      38.183  40.381  65.023  1.00  0.00     0.001 A 
HETATM   36  C   UNL     1      39.144  39.828  64.181  1.00  0.00     0.000 A 
HETATM   37  C   UNL     1      39.490  40.483  63.002  1.00  0.00     0.001 A 
HETATM   38  C   UNL     1      38.903  41.709  62.676  1.00  0.00     0.009 A 
ENDBRANCH  32  33
ENDBRANCH  31  32
ENDBRANCH  29  31
ENDBRANCH  10  29
TORSDOF 10
ENDMDL
MODEL 4
REMARK VINA RESULT:      -7.3      4.852      7.178
REMARK  10 active torsions:
REMARK  status: ('A' for Active; 'I' for Inactive)
REMARK    1  A    between atoms: C_6  and  C_7 
REMARK    2  A    between atoms: C_7  and  C_8 
REMARK       I    between atoms: C_8  and  N_9 
REMARK    3  A    between atoms: N_9  and  C_10 
REMARK    4  A    between atoms: C_10  and  C_11 
REMARK    5  A    between atoms: C_11  and  N_12 
REMARK    6  A    between atoms: C_17  and  C_18 
REMARK    7  A    between atoms: C_27  and  C_28 
REMARK    8  A    between atoms: C_28  and  O_29 
REMARK    9  A    between atoms: O_29  and  C_30 
REMARK   10  A    between atoms: C_30  and  C_31 
ROOT
HETATM    1  C   UNL     1      19.975  46.301  46.457  1.00  0.00     0.071 C 
HETATM    2  C   UNL     1      18.642  46.856  46.004  1.00  0.00     0.048 C 
HETATM    3  N   UNL     1      18.459  46.764  44.632  1.00  0.00    -0.229 NA
HETATM    4  C   UNL     1      17.246  46.831  44.203  1.00  0.00     0.170 C 
HETATM    5  N   UNL     1      16.039  47.324  45.052  1.00  0.00    -0.318 N 
HETATM    6  C   UNL     1      14.913  47.112  44.459  1.00  0.00     0.011 C 
HETATM    7  C   UNL     1      16.472  48.047  46.266  1.00  0.00     0.168 C 
HETATM    8  S   UNL     1      16.740  46.355  42.618  1.00  0.00    -0.086 SA
HETATM    9  C   UNL     1      15.000  46.331  43.168  1.00  0.00     0.135 C 
HETATM   10  C   UNL     1      17.641  47.261  46.822  1.00  0.00     0.069 C 
ENDROOT
BRANCH   6  11
HETATM   11  C   UNL     1      13.617  47.620  45.010  1.00  0.00     0.156 C 
BRANCH  11  12
HETATM   12  C   UNL     1      13.054  48.845  44.321  1.00  0.00     0.223 C 
HETATM   13  N   UNL     1      13.604  50.024  44.758  1.00  0.00    -0.359 N 
HETATM   14  H   UNL     1      14.254  49.980  45.539  1.00  0.00     0.162 HD
HETATM   15  O   UNL     1      12.173  48.776  43.470  1.00  0.00    -0.273 OA
BRANCH  13  16
HETATM   16  C   UNL     1      13.071  51.362  44.497  1.00  0.00     0.150 C 
BRANCH  16  17
HETATM   17  C   UNL     1      14.020  52.389  43.850  1.00  0.00     0.253 C 
BRANCH  17  18
HETATM   18  N   UNL     1      13.847  53.796  44.382  1.00  0.00    -0.077 N 
HETATM   19  H   UNL     1      12.985  54.182  43.950  1.00  0.00     0.279 HD
HETATM   20  C   UNL     1      13.655  53.876  45.873  1.00  0.00     0.269 C 
HETATM   21  C   UNL     1      14.991  54.673  43.948  1.00  0.00     0.269 C 
ENDBRANCH  17  18
ENDBRANCH  16  17
ENDBRANCH  13  16
ENDBRANCH  11  12
ENDBRANCH   6  11
BRANCH   7  22
HETATM   22  C   UNL     1      16.802  49.533  45.976  1.00  0.00    -0.009 A 
HETATM   23  C   UNL     1      16.420  50.563  46.868  1.00  0.00     0.042 A 
HETATM   24 CL   UNL     1      15.512  50.262  48.303  1.00  0.00    -0.084 Cl
HETATM   25  C   UNL     1      16.741  51.905  46.619  1.00  0.00     0.024 A 
HETATM   26  C   UNL     1      17.424  52.265  45.464  1.00  0.00     0.002 A 
HETATM   27  C   UNL     1      17.783  51.287  44.550  1.00  0.00     0.001 A 
HETATM   28  C   UNL     1      17.479  49.944  44.799  1.00  0.00     0.011 A 
ENDBRANCH   7  22
BRANCH  10  29
HETATM   29  C   UNL     1      17.374  46.645  48.162  1.00  0.00     0.294 C 
HETATM   30  O   UNL     1      17.410  45.434  48.324  1.00  0.00    -0.259 OA
BRANCH  29  31
HETATM   31  O   UNL     1      17.466  47.570  49.138  1.00  0.00    -0.313 OA
BRANCH  31  32
HETATM   32  C   UNL     1      18.786  47.957  49.550  1.00  0.00     0.217 C 
BRANCH  32  33
HETATM   33  C   UNL     1      19.039  49.420  49.236  1.00  0.00    -0.034 A 
HETATM   34  C   UNL     1      18.546  50.456  50.048  1.00  0.00     0.009 A 
HETATM   35  C   UNL     1      18.834  51.794  49.765  1.00  0.00     0.001 A 
HETATM   36  C   UNL     1      19.653  52.113  48.687  1.00  0.00     0.000 A 
HETATM   37  C   UNL     1      20.185  51.096  47.897  1.00  0.00     0.001 A 
HETATM   38  C   UNL     1      19.872  49.760  48.161  1.00  0.00     0.009 A 
ENDBRANCH  32  33
ENDBRANCH  31  32
ENDBRANCH  29  31
ENDBRANCH  10  29
TORSDOF 10
ENDMDL
MODEL 5
REMARK VINA RESULT:      -7.3      5.185      7.882
REMARK  10 active torsions:
REMARK  status: ('A' for Active; 'I' for Inactive)
REMARK    1  A    between atoms: C_6  and  C_7 
REMARK    2  A    between atoms: C_7  and  C_8 
REMARK       I    between atoms: C_8  and  N_9 
REMARK    3  A    between atoms: N_9  and  C_10 
REMARK    4  A    between atoms: C_10  and  C_11 
REMARK    5  A    between atoms: C_11  and  N_12 
REMARK    6  A    between atoms: C_17  and  C_18 
REMARK    7  A    between atoms: C_27  and  C_28 
REMARK    8  A    between atoms: C_28  and  O_29 
REMARK    9  A    between atoms: O_29  and  C_30 
REMARK   10  A    between atoms: C_30  and  C_31 
ROOT
HETATM    1  C   UNL     1      16.874  48.550  44.080  1.00  0.00     0.071 C 
HETATM    2  C   UNL     1      16.603  49.791  44.901  1.00  0.00     0.048 C 
HETATM    3  N   UNL     1      16.896  50.962  44.217  1.00  0.00    -0.229 NA
HETATM    4  C   UNL     1      16.344  52.042  44.654  1.00  0.00     0.170 C 
HETATM    5  N   UNL     1      15.659  52.179  46.044  1.00  0.00    -0.318 N 
HETATM    6  C   UNL     1      15.019  53.294  46.159  1.00  0.00     0.011 C 
HETATM    7  C   UNL     1      16.022  51.074  46.954  1.00  0.00     0.168 C 
HETATM    8  S   UNL     1      16.238  53.519  43.759  1.00  0.00    -0.086 SA
HETATM    9  C   UNL     1      14.962  54.137  44.906  1.00  0.00     0.135 C 
HETATM   10  C   UNL     1      15.993  49.816  46.110  1.00  0.00     0.069 C 
ENDROOT
BRANCH   6  11
HETATM   11  C   UNL     1      14.393  53.721  47.450  1.00  0.00     0.156 C 
BRANCH  11  12
HETATM   12  C   UNL     1      13.509  54.947  47.369  1.00  0.00     0.223 C 
HETATM   13  N   UNL     1      14.099  56.084  47.864  1.00  0.00    -0.359 N 
HETATM   14  H   UNL     1      15.012  55.988  48.304  1.00  0.00     0.162 HD
HETATM   15  O   UNL     1      12.368  54.909  46.924  1.00  0.00    -0.273 OA
BRANCH  13  16
HETATM   16  C   UNL     1      13.408  57.334  48.182  1.00  0.00     0.150 C 
BRANCH  16  17
HETATM   17  C   UNL     1      13.131  58.307  47.020  1.00  0.00     0.253 C 
BRANCH  17  18
HETATM   18  N   UNL     1      14.263  58.396  46.019  1.00  0.00    -0.077 N 
HETATM   19  H   UNL     1      15.073  57.888  46.428  1.00  0.00     0.279 HD
HETATM   20  C   UNL     1      13.972  57.746  44.693  1.00  0.00     0.269 C 
HETATM   21  C   UNL     1      14.690  59.825  45.825  1.00  0.00     0.269 C 
ENDBRANCH  17  18
ENDBRANCH  16  17
ENDBRANCH  13  16
ENDBRANCH  11  12
ENDBRANCH   6  11
BRANCH   7  22
HETATM   22  C   UNL     1      17.379  51.318  47.661  1.00  0.00    -0.009 A 
HETATM   23  C   UNL     1      17.444  51.830  48.978  1.00  0.00     0.042 A 
HETATM   24 CL   UNL     1      16.040  52.280  49.874  1.00  0.00    -0.084 Cl
HETATM   25  C   UNL     1      18.671  52.027  49.628  1.00  0.00     0.024 A 
HETATM   26  C   UNL     1      19.867  51.749  48.979  1.00  0.00     0.002 A 
HETATM   27  C   UNL     1      19.843  51.279  47.675  1.00  0.00     0.001 A 
HETATM   28  C   UNL     1      18.621  51.066  47.025  1.00  0.00     0.011 A 
ENDBRANCH   7  22
BRANCH  10  29
HETATM   29  C   UNL     1      14.932  48.839  46.516  1.00  0.00     0.294 C 
HETATM   30  O   UNL     1      13.797  48.908  46.067  1.00  0.00    -0.259 OA
BRANCH  29  31
HETATM   31  O   UNL     1      15.482  47.751  47.093  1.00  0.00    -0.313 OA
BRANCH  31  32
HETATM   32  C   UNL     1      15.910  47.882  48.458  1.00  0.00     0.217 C 
BRANCH  32  33
HETATM   33  C   UNL     1      17.421  47.781  48.558  1.00  0.00    -0.034 A 
HETATM   34  C   UNL     1      18.213  47.329  47.488  1.00  0.00     0.009 A 
HETATM   35  C   UNL     1      19.606  47.291  47.589  1.00  0.00     0.001 A 
HETATM   36  C   UNL     1      20.230  47.743  48.747  1.00  0.00     0.000 A 
HETATM   37  C   UNL     1      19.462  48.235  49.800  1.00  0.00     0.001 A 
HETATM   38  C   UNL     1      18.067  48.244  49.713  1.00  0.00     0.009 A 
ENDBRANCH  32  33
ENDBRANCH  31  32
ENDBRANCH  29  31
ENDBRANCH  10  29
TORSDOF 10
ENDMDL
MODEL 6
REMARK VINA RESULT:      -7.2      4.875      7.439
REMARK  10 active torsions:
REMARK  status: ('A' for Active; 'I' for Inactive)
REMARK    1  A    between atoms: C_6  and  C_7 
REMARK    2  A    between atoms: C_7  and  C_8 
REMARK       I    between atoms: C_8  and  N_9 
REMARK    3  A    between atoms: N_9  and  C_10 
REMARK    4  A    between atoms: C_10  and  C_11 
REMARK    5  A    between atoms: C_11  and  N_12 
REMARK    6  A    between atoms: C_17  and  C_18 
REMARK    7  A    between atoms: C_27  and  C_28 
REMARK    8  A    between atoms: C_28  and  O_29 
REMARK    9  A    between atoms: O_29  and  C_30 
REMARK   10  A    between atoms: C_30  and  C_31 
ROOT
HETATM    1  C   UNL     1      19.921  46.258  46.334  1.00  0.00     0.071 C 
HETATM    2  C   UNL     1      18.584  46.856  45.956  1.00  0.00     0.048 C 
HETATM    3  N   UNL     1      18.330  46.789  44.595  1.00  0.00    -0.229 NA
HETATM    4  C   UNL     1      17.099  46.896  44.228  1.00  0.00     0.170 C 
HETATM    5  N   UNL     1      15.951  47.409  45.144  1.00  0.00    -0.318 N 
HETATM    6  C   UNL     1      14.791  47.237  44.606  1.00  0.00     0.011 C 
HETATM    7  C   UNL     1      16.464  48.102  46.344  1.00  0.00     0.168 C 
HETATM    8  S   UNL     1      16.500  46.457  42.665  1.00  0.00    -0.086 SA
HETATM    9  C   UNL     1      14.791  46.473  43.302  1.00  0.00     0.135 C 
HETATM   10  C   UNL     1      17.637  47.276  46.830  1.00  0.00     0.069 C 
ENDROOT
BRANCH   6  11
HETATM   11  C   UNL     1      13.539  47.773  45.229  1.00  0.00     0.156 C 
BRANCH  11  12
HETATM   12  C   UNL     1      13.086  49.124  44.718  1.00  0.00     0.223 C 
HETATM   13  N   UNL     1      12.062  49.052  43.807  1.00  0.00    -0.359 N 
HETATM   14  H   UNL     1      11.767  48.127  43.500  1.00  0.00     0.162 HD
HETATM   15  O   UNL     1      13.609  50.174  45.076  1.00  0.00    -0.273 OA
BRANCH  13  16
HETATM   16  C   UNL     1      11.615  50.141  42.937  1.00  0.00     0.150 C 
BRANCH  16  17
HETATM   17  C   UNL     1      12.625  50.687  41.909  1.00  0.00     0.253 C 
BRANCH  17  18
HETATM   18  N   UNL     1      13.359  51.926  42.378  1.00  0.00    -0.077 N 
HETATM   19  H   UNL     1      13.131  52.053  43.384  1.00  0.00     0.279 HD
HETATM   20  C   UNL     1      14.858  51.832  42.283  1.00  0.00     0.269 C 
HETATM   21  C   UNL     1      12.859  53.146  41.653  1.00  0.00     0.269 C 
ENDBRANCH  17  18
ENDBRANCH  16  17
ENDBRANCH  13  16
ENDBRANCH  11  12
ENDBRANCH   6  11
BRANCH   7  22
HETATM   22  C   UNL     1      16.822  49.583  46.057  1.00  0.00    -0.009 A 
HETATM   23  C   UNL     1      16.479  50.614  46.963  1.00  0.00     0.042 A 
HETATM   24 CL   UNL     1      15.591  50.324  48.413  1.00  0.00    -0.084 Cl
HETATM   25  C   UNL     1      16.825  51.950  46.717  1.00  0.00     0.024 A 
HETATM   26  C   UNL     1      17.494  52.304  45.552  1.00  0.00     0.002 A 
HETATM   27  C   UNL     1      17.814  51.324  44.625  1.00  0.00     0.001 A 
HETATM   28  C   UNL     1      17.485  49.986  44.871  1.00  0.00     0.011 A 
ENDBRANCH   7  22
BRANCH  10  29
HETATM   29  C   UNL     1      17.421  46.648  48.173  1.00  0.00     0.294 C 
HETATM   30  O   UNL     1      17.431  45.434  48.317  1.00  0.00    -0.259 OA
BRANCH  29  31
HETATM   31  O   UNL     1      17.587  47.556  49.155  1.00  0.00    -0.313 OA
BRANCH  31  32
HETATM   32  C   UNL     1      18.936  47.858  49.544  1.00  0.00     0.217 C 
BRANCH  32  33
HETATM   33  C   UNL     1      19.262  49.313  49.263  1.00  0.00    -0.034 A 
HETATM   34  C   UNL     1      19.990  49.712  48.128  1.00  0.00     0.009 A 
HETATM   35  C   UNL     1      20.235  51.062  47.865  1.00  0.00     0.001 A 
HETATM   36  C   UNL     1      19.720  52.037  48.714  1.00  0.00     0.000 A 
HETATM   37  C   UNL     1      18.960  51.662  49.819  1.00  0.00     0.001 A 
HETATM   38  C   UNL     1      18.741  50.310  50.099  1.00  0.00     0.009 A 
ENDBRANCH  32  33
ENDBRANCH  31  32
ENDBRANCH  29  31
ENDBRANCH  10  29
TORSDOF 10
ENDMDL
MODEL 7
REMARK VINA RESULT:      -7.2      5.059      7.586
REMARK  10 active torsions:
REMARK  status: ('A' for Active; 'I' for Inactive)
REMARK    1  A    between atoms: C_6  and  C_7 
REMARK    2  A    between atoms: C_7  and  C_8 
REMARK       I    between atoms: C_8  and  N_9 
REMARK    3  A    between atoms: N_9  and  C_10 
REMARK    4  A    between atoms: C_10  and  C_11 
REMARK    5  A    between atoms: C_11  and  N_12 
REMARK    6  A    between atoms: C_17  and  C_18 
REMARK    7  A    between atoms: C_27  and  C_28 
REMARK    8  A    between atoms: C_28  and  O_29 
REMARK    9  A    between atoms: O_29  and  C_30 
REMARK   10  A    between atoms: C_30  and  C_31 
ROOT
HETATM    1  C   UNL     1      16.440  48.661  43.937  1.00  0.00     0.071 C 
HETATM    2  C   UNL     1      16.309  49.821  44.899  1.00  0.00     0.048 C 
HETATM    3  N   UNL     1      16.453  51.053  44.279  1.00  0.00    -0.229 NA
HETATM    4  C   UNL     1      15.977  52.076  44.902  1.00  0.00     0.170 C 
HETATM    5  N   UNL     1      15.561  52.076  46.402  1.00  0.00    -0.318 N 
HETATM    6  C   UNL     1      14.939  53.158  46.729  1.00  0.00     0.011 C 
HETATM    7  C   UNL     1      16.103  50.910  47.129  1.00  0.00     0.168 C 
HETATM    8  S   UNL     1      15.686  53.619  44.175  1.00  0.00    -0.086 SA
HETATM    9  C   UNL     1      14.637  54.101  45.587  1.00  0.00     0.135 C 
HETATM   10  C   UNL     1      15.935  49.727  46.198  1.00  0.00     0.069 C 
ENDROOT
BRANCH   6  11
HETATM   11  C   UNL     1      14.558  53.457  48.146  1.00  0.00     0.156 C 
BRANCH  11  12
HETATM   12  C   UNL     1      13.800  54.750  48.356  1.00  0.00     0.223 C 
HETATM   13  N   UNL     1      14.556  55.744  48.927  1.00  0.00    -0.359 N 
HETATM   14  H   UNL     1      15.499  55.507  49.227  1.00  0.00     0.162 HD
HETATM   15  O   UNL     1      12.616  54.875  48.062  1.00  0.00    -0.273 OA
BRANCH  13  16
HETATM   16  C   UNL     1      14.037  56.983  49.507  1.00  0.00     0.150 C 
BRANCH  16  17
HETATM   17  C   UNL     1      13.334  56.886  50.874  1.00  0.00     0.253 C 
BRANCH  17  18
HETATM   18  N   UNL     1      14.231  57.232  52.044  1.00  0.00    -0.077 N 
HETATM   19  H   UNL     1      13.622  57.623  52.791  1.00  0.00     0.279 HD
HETATM   20  C   UNL     1      14.947  56.053  52.646  1.00  0.00     0.269 C 
HETATM   21  C   UNL     1      15.211  58.308  51.663  1.00  0.00     0.269 C 
ENDBRANCH  17  18
ENDBRANCH  16  17
ENDBRANCH  13  16
ENDBRANCH  11  12
ENDBRANCH   6  11
BRANCH   7  22
HETATM   22  C   UNL     1      17.564  51.135  47.592  1.00  0.00    -0.009 A 
HETATM   23  C   UNL     1      17.860  51.682  48.863  1.00  0.00     0.042 A 
HETATM   24 CL   UNL     1      16.636  52.196  49.964  1.00  0.00    -0.084 Cl
HETATM   25  C   UNL     1      19.183  51.861  49.294  1.00  0.00     0.024 A 
HETATM   26  C   UNL     1      20.247  51.531  48.464  1.00  0.00     0.002 A 
HETATM   27  C   UNL     1      19.994  51.026  47.198  1.00  0.00     0.001 A 
HETATM   28  C   UNL     1      18.676  50.830  46.767  1.00  0.00     0.011 A 
ENDBRANCH   7  22
BRANCH  10  29
HETATM   29  C   UNL     1      14.982  48.688  46.705  1.00  0.00     0.294 C 
HETATM   30  O   UNL     1      13.801  48.696  46.385  1.00  0.00    -0.259 OA
BRANCH  29  31
HETATM   31  O   UNL     1      15.652  47.630  47.204  1.00  0.00    -0.313 OA
BRANCH  31  32
HETATM   32  C   UNL     1      16.166  47.752  48.540  1.00  0.00     0.217 C 
BRANCH  32  33
HETATM   33  C   UNL     1      17.681  47.670  48.540  1.00  0.00    -0.034 A 
HETATM   34  C   UNL     1      18.406  47.213  47.426  1.00  0.00     0.009 A 
HETATM   35  C   UNL     1      19.803  47.192  47.435  1.00  0.00     0.001 A 
HETATM   36  C   UNL     1      20.497  47.667  48.544  1.00  0.00     0.000 A 
HETATM   37  C   UNL     1      19.794  48.164  49.639  1.00  0.00     0.001 A 
HETATM   38  C   UNL     1      18.396  48.156  49.644  1.00  0.00     0.009 A 
ENDBRANCH  32  33
ENDBRANCH  31  32
ENDBRANCH  29  31
ENDBRANCH  10  29
TORSDOF 10
ENDMDL
MODEL 8
REMARK VINA RESULT:      -7.2     22.548     25.891
REMARK  10 active torsions:
REMARK  status: ('A' for Active; 'I' for Inactive)
REMARK    1  A    between atoms: C_6  and  C_7 
REMARK    2  A    between atoms: C_7  and  C_8 
REMARK       I    between atoms: C_8  and  N_9 
REMARK    3  A    between atoms: N_9  and  C_10 
REMARK    4  A    between atoms: C_10  and  C_11 
REMARK    5  A    between atoms: C_11  and  N_12 
REMARK    6  A    between atoms: C_17  and  C_18 
REMARK    7  A    between atoms: C_27  and  C_28 
REMARK    8  A    between atoms: C_28  and  O_29 
REMARK    9  A    between atoms: O_29  and  C_30 
REMARK   10  A    between atoms: C_30  and  C_31 
ROOT
HETATM    1  C   UNL     1      35.728  44.463  66.876  1.00  0.00     0.071 C 
HETATM    2  C   UNL     1      37.150  44.535  66.365  1.00  0.00     0.048 C 
HETATM    3  N   UNL     1      37.922  43.456  66.769  1.00  0.00    -0.229 NA
HETATM    4  C   UNL     1      38.988  43.216  66.085  1.00  0.00     0.170 C 
HETATM    5  N   UNL     1      39.628  44.214  65.077  1.00  0.00    -0.318 N 
HETATM    6  C   UNL     1      40.568  43.664  64.385  1.00  0.00     0.011 C 
HETATM    7  C   UNL     1      39.112  45.588  65.250  1.00  0.00     0.168 C 
HETATM    8  S   UNL     1      39.877  41.733  66.142  1.00  0.00    -0.086 SA
HETATM    9  C   UNL     1      40.745  42.179  64.601  1.00  0.00     0.135 C 
HETATM   10  C   UNL     1      37.621  45.444  65.478  1.00  0.00     0.069 C 
ENDROOT
BRANCH   6  11
HETATM   11  C   UNL     1      41.428  44.453  63.447  1.00  0.00     0.156 C 
BRANCH  11  12
HETATM   12  C   UNL     1      42.649  45.096  64.069  1.00  0.00     0.223 C 
HETATM   13  N   UNL     1      43.314  44.276  64.948  1.00  0.00    -0.359 N 
HETATM   14  H   UNL     1      42.894  43.374  65.161  1.00  0.00     0.162 HD
HETATM   15  O   UNL     1      42.987  46.247  63.820  1.00  0.00    -0.273 OA
BRANCH  13  16
HETATM   16  C   UNL     1      44.337  44.703  65.903  1.00  0.00     0.150 C 
BRANCH  16  17
HETATM   17  C   UNL     1      43.989  45.877  66.838  1.00  0.00     0.253 C 
BRANCH  17  18
HETATM   18  N   UNL     1      44.568  47.202  66.389  1.00  0.00    -0.077 N 
HETATM   19  H   UNL     1      43.869  47.642  65.757  1.00  0.00     0.279 HD
HETATM   20  C   UNL     1      44.815  48.181  67.505  1.00  0.00     0.269 C 
HETATM   21  C   UNL     1      45.821  46.990  65.584  1.00  0.00     0.269 C 
ENDBRANCH  17  18
ENDBRANCH  16  17
ENDBRANCH  13  16
ENDBRANCH  11  12
ENDBRANCH   6  11
BRANCH   7  22
HETATM   22  C   UNL     1      39.844  46.350  66.383  1.00  0.00    -0.009 A 
HETATM   23  C   UNL     1      40.487  47.588  66.145  1.00  0.00     0.042 A 
HETATM   24 CL   UNL     1      40.565  48.312  64.581  1.00  0.00    -0.084 Cl
HETATM   25  C   UNL     1      41.128  48.291  67.175  1.00  0.00     0.024 A 
HETATM   26  C   UNL     1      41.173  47.771  68.464  1.00  0.00     0.002 A 
HETATM   27  C   UNL     1      40.583  46.544  68.726  1.00  0.00     0.001 A 
HETATM   28  C   UNL     1      39.930  45.844  67.705  1.00  0.00     0.011 A 
ENDBRANCH   7  22
BRANCH  10  29
HETATM   29  C   UNL     1      36.782  46.042  64.389  1.00  0.00     0.294 C 
HETATM   30  O   UNL     1      36.387  45.369  63.447  1.00  0.00    -0.259 OA
BRANCH  29  31
HETATM   31  O   UNL     1      36.263  47.222  64.782  1.00  0.00    -0.313 OA
BRANCH  31  32
HETATM   32  C   UNL     1      37.034  48.401  64.502  1.00  0.00     0.217 C 
BRANCH  32  33
HETATM   33  C   UNL     1      37.322  49.169  65.778  1.00  0.00    -0.034 A 
HETATM   34  C   UNL     1      37.092  48.619  67.051  1.00  0.00     0.009 A 
HETATM   35  C   UNL     1      37.411  49.328  68.212  1.00  0.00     0.001 A 
HETATM   36  C   UNL     1      38.004  50.583  68.116  1.00  0.00     0.000 A 
HETATM   37  C   UNL     1      38.280  51.125  66.862  1.00  0.00     0.001 A 
HETATM   38  C   UNL     1      37.931  50.429  65.701  1.00  0.00     0.009 A 
ENDBRANCH  32  33
ENDBRANCH  31  32
ENDBRANCH  29  31
ENDBRANCH  10  29
TORSDOF 10
ENDMDL
MODEL 9
REMARK VINA RESULT:      -6.9      7.315     11.613
REMARK  10 active torsions:
REMARK  status: ('A' for Active; 'I' for Inactive)
REMARK    1  A    between atoms: C_6  and  C_7 
REMARK    2  A    between atoms: C_7  and  C_8 
REMARK       I    between atoms: C_8  and  N_9 
REMARK    3  A    between atoms: N_9  and  C_10 
REMARK    4  A    between atoms: C_10  and  C_11 
REMARK    5  A    between atoms: C_11  and  N_12 
REMARK    6  A    between atoms: C_17  and  C_18 
REMARK    7  A    between atoms: C_27  and  C_28 
REMARK    8  A    between atoms: C_28  and  O_29 
REMARK    9  A    between atoms: O_29  and  C_30 
REMARK   10  A    between atoms: C_30  and  C_31 
ROOT
HETATM    1  C   UNL     1      23.751  42.158  49.639  1.00  0.00     0.071 C 
HETATM    2  C   UNL     1      24.743  41.559  48.666  1.00  0.00     0.048 C 
HETATM    3  N   UNL     1      24.161  41.196  47.461  1.00  0.00    -0.229 NA
HETATM    4  C   UNL     1      24.953  41.057  46.453  1.00  0.00     0.170 C 
HETATM    5  N   UNL     1      26.501  40.948  46.560  1.00  0.00    -0.318 N 
HETATM    6  C   UNL     1      27.070  41.011  45.404  1.00  0.00     0.011 C 
HETATM    7  C   UNL     1      26.943  40.651  47.938  1.00  0.00     0.168 C 
HETATM    8  S   UNL     1      24.436  41.000  44.803  1.00  0.00    -0.086 SA
HETATM    9  C   UNL     1      26.146  41.307  44.245  1.00  0.00     0.135 C 
HETATM   10  C   UNL     1      26.085  41.511  48.843  1.00  0.00     0.069 C 
ENDROOT
BRANCH   6  11
HETATM   11  C   UNL     1      28.541  40.792  45.230  1.00  0.00     0.156 C 
BRANCH  11  12
HETATM   12  C   UNL     1      29.000  40.571  43.804  1.00  0.00     0.223 C 
HETATM   13  N   UNL     1      29.196  39.249  43.489  1.00  0.00    -0.359 N 
HETATM   14  H   UNL     1      29.102  38.566  44.237  1.00  0.00     0.162 HD
HETATM   15  O   UNL     1      29.198  41.495  43.024  1.00  0.00    -0.273 OA
BRANCH  13  16
HETATM   16  C   UNL     1      29.900  38.749  42.307  1.00  0.00     0.150 C 
BRANCH  16  17
HETATM   17  C   UNL     1      31.430  38.928  42.266  1.00  0.00     0.253 C 
BRANCH  17  18
HETATM   18  N   UNL     1      32.191  37.624  42.156  1.00  0.00    -0.077 N 
HETATM   19  H   UNL     1      32.884  37.608  42.931  1.00  0.00     0.279 HD
HETATM   20  C   UNL     1      31.340  36.393  42.314  1.00  0.00     0.269 C 
HETATM   21  C   UNL     1      32.967  37.569  40.868  1.00  0.00     0.269 C 
ENDBRANCH  17  18
ENDBRANCH  16  17
ENDBRANCH  13  16
ENDBRANCH  11  12
ENDBRANCH   6  11
BRANCH   7  22
HETATM   22  C   UNL     1      26.870  39.138  48.264  1.00  0.00    -0.009 A 
HETATM   23  C   UNL     1      27.627  38.572  49.318  1.00  0.00     0.042 A 
HETATM   24 CL   UNL     1      28.727  39.493  50.275  1.00  0.00    -0.084 Cl
HETATM   25  C   UNL     1      27.541  37.207  49.630  1.00  0.00     0.024 A 
HETATM   26  C   UNL     1      26.727  36.362  48.887  1.00  0.00     0.002 A 
HETATM   27  C   UNL     1      25.998  36.876  47.825  1.00  0.00     0.001 A 
HETATM   28  C   UNL     1      26.067  38.239  47.517  1.00  0.00     0.011 A 
ENDBRANCH   7  22
BRANCH  10  29
HETATM   29  C   UNL     1      26.854  42.555  49.594  1.00  0.00     0.294 C 
HETATM   30  O   UNL     1      26.936  43.704  49.183  1.00  0.00    -0.259 OA
BRANCH  29  31
HETATM   31  O   UNL     1      27.086  42.157  50.861  1.00  0.00    -0.313 OA
BRANCH  31  32
HETATM   32  C   UNL     1      26.849  43.118  51.901  1.00  0.00     0.217 C 
BRANCH  32  33
HETATM   33  C   UNL     1      28.071  43.256  52.791  1.00  0.00    -0.034 A 
HETATM   34  C   UNL     1      28.054  44.016  53.973  1.00  0.00     0.009 A 
HETATM   35  C   UNL     1      29.178  44.088  54.801  1.00  0.00     0.001 A 
HETATM   36  C   UNL     1      30.323  43.367  54.478  1.00  0.00     0.000 A 
HETATM   37  C   UNL     1      30.342  42.574  53.333  1.00  0.00     0.001 A 
HETATM   38  C   UNL     1      29.229  42.527  52.488  1.00  0.00     0.009 A 
ENDBRANCH  32  33
ENDBRANCH  31  32
ENDBRANCH  29  31
ENDBRANCH  10  29
TORSDOF 10
ENDMDL
MODEL 10
REMARK VINA RESULT:      -6.8     22.751     25.509
REMARK  10 active torsions:
REMARK  status: ('A' for Active; 'I' for Inactive)
REMARK    1  A    between atoms: C_6  and  C_7 
REMARK    2  A    between atoms: C_7  and  C_8 
REMARK       I    between atoms: C_8  and  N_9 
REMARK    3  A    between atoms: N_9  and  C_10 
REMARK    4  A    between atoms: C_10  and  C_11 
REMARK    5  A    between atoms: C_11  and  N_12 
REMARK    6  A    between atoms: C_17  and  C_18 
REMARK    7  A    between atoms: C_27  and  C_28 
REMARK    8  A    between atoms: C_28  and  O_29 
REMARK    9  A    between atoms: O_29  and  C_30 
REMARK   10  A    between atoms: C_30  and  C_31 
ROOT
HETATM    1  C   UNL     1      40.975  45.519  69.185  1.00  0.00     0.071 C 
HETATM    2  C   UNL     1      40.636  45.476  67.711  1.00  0.00     0.048 C 
HETATM    3  N   UNL     1      41.698  45.853  66.904  1.00  0.00    -0.229 NA
HETATM    4  C   UNL     1      41.651  45.479  65.671  1.00  0.00     0.170 C 
HETATM    5  N   UNL     1      40.374  44.939  64.965  1.00  0.00    -0.318 N 
HETATM    6  C   UNL     1      40.637  44.456  63.797  1.00  0.00     0.011 C 
HETATM    7  C   UNL     1      39.147  45.238  65.730  1.00  0.00     0.168 C 
HETATM    8  S   UNL     1      43.005  45.482  64.594  1.00  0.00    -0.086 SA
HETATM    9  C   UNL     1      42.104  44.396  63.438  1.00  0.00     0.135 C 
HETATM   10  C   UNL     1      39.491  44.980  67.183  1.00  0.00     0.069 C 
ENDROOT
BRANCH   6  11
HETATM   11  C   UNL     1      39.557  44.001  62.865  1.00  0.00     0.156 C 
BRANCH  11  12
HETATM   12  C   UNL     1      38.948  42.653  63.185  1.00  0.00     0.223 C 
HETATM   13  N   UNL     1      39.877  41.653  63.339  1.00  0.00    -0.359 N 
HETATM   14  H   UNL     1      40.850  41.879  63.146  1.00  0.00     0.162 HD
HETATM   15  O   UNL     1      37.738  42.479  63.272  1.00  0.00    -0.273 OA
BRANCH  13  16
HETATM   16  C   UNL     1      39.589  40.218  63.365  1.00  0.00     0.150 C 
BRANCH  16  17
HETATM   17  C   UNL     1      39.290  39.579  64.734  1.00  0.00     0.253 C 
BRANCH  17  18
HETATM   18  N   UNL     1      40.149  38.370  65.040  1.00  0.00    -0.077 N 
HETATM   19  H   UNL     1      39.591  37.529  64.790  1.00  0.00     0.279 HD
HETATM   20  C   UNL     1      41.423  38.296  64.243  1.00  0.00     0.269 C 
HETATM   21  C   UNL     1      40.440  38.284  66.514  1.00  0.00     0.269 C 
ENDBRANCH  17  18
ENDBRANCH  16  17
ENDBRANCH  13  16
ENDBRANCH  11  12
ENDBRANCH   6  11
BRANCH   7  22
HETATM   22  C   UNL     1      38.622  46.671  65.460  1.00  0.00    -0.009 A 
HETATM   23  C   UNL     1      37.313  46.898  64.972  1.00  0.00     0.042 A 
HETATM   24 CL   UNL     1      36.228  45.616  64.582  1.00  0.00    -0.084 Cl
HETATM   25  C   UNL     1      36.829  48.196  64.751  1.00  0.00     0.024 A 
HETATM   26  C   UNL     1      37.639  49.301  64.981  1.00  0.00     0.002 A 
HETATM   27  C   UNL     1      38.939  49.114  65.425  1.00  0.00     0.001 A 
HETATM   28  C   UNL     1      39.424  47.823  65.661  1.00  0.00     0.011 A 
ENDBRANCH   7  22
BRANCH  10  29
HETATM   29  C   UNL     1      38.728  43.845  67.793  1.00  0.00     0.294 C 
HETATM   30  O   UNL     1      39.302  42.886  68.291  1.00  0.00    -0.259 OA
BRANCH  29  31
HETATM   31  O   UNL     1      37.449  44.202  68.028  1.00  0.00    -0.313 OA
BRANCH  31  32
HETATM   32  C   UNL     1      37.185  44.924  69.242  1.00  0.00     0.217 C 
BRANCH  32  33
HETATM   33  C   UNL     1      36.817  46.364  68.940  1.00  0.00    -0.034 A 
HETATM   34  C   UNL     1      37.714  47.426  69.153  1.00  0.00     0.009 A 
HETATM   35  C   UNL     1      37.368  48.739  68.820  1.00  0.00     0.001 A 
HETATM   36  C   UNL     1      36.136  49.003  68.231  1.00  0.00     0.000 A 
HETATM   37  C   UNL     1      35.253  47.957  67.973  1.00  0.00     0.001 A 
HETATM   38  C   UNL     1      35.585  46.648  68.334  1.00  0.00     0.009 A 
ENDBRANCH  32  33
ENDBRANCH  31  32
ENDBRANCH  29  31
ENDBRANCH  10  29
TORSDOF 10
ENDMDL
