MODEL 1
REMARK VINA RESULT:      -7.8      0.000      0.000
REMARK  10 active torsions:
REMARK  status: ('A' for Active; 'I' for Inactive)
REMARK    1  A    between atoms: C_2  and  C_3 
REMARK    2  A    between atoms: C_3  and  C_4 
REMARK       I    between atoms: C_4  and  N_5 
REMARK    3  A    between atoms: N_5  and  C_6 
REMARK    4  A    between atoms: C_6  and  N_7 
REMARK    5  A    between atoms: C_6  and  C_21 
REMARK    6  A    between atoms: N_7  and  C_8 
REMARK    7  A    between atoms: C_8  and  N_9 
REMARK    8  A    between atoms: N_9  and  N_10 
REMARK       I    between atoms: N_10  and  C_11 
REMARK    9  A    between atoms: C_11  and  C_12 
REMARK   10  A    between atoms: C_13  and  O_14 
ROOT
HETATM    1  C   UNL     1      23.155  46.666  49.418  1.00  0.00     0.188 C 
HETATM    2  S   UNL     1      22.347  46.042  48.101  1.00  0.00    -0.039 SA
ENDROOT
BRANCH   1   3
HETATM    3  N   UNL     1      24.005  45.986  50.241  1.00  0.00    -0.341 N 
HETATM    4  H   UNL     1      23.674  45.824  51.184  1.00  0.00     0.164 HD
BRANCH   3   5
HETATM    5  C   UNL     1      25.251  45.305  49.906  1.00  0.00     0.241 C 
BRANCH   5   6
HETATM    6  N   UNL     1      26.182  46.280  49.346  1.00  0.00    -0.336 N 
HETATM    7  C   UNL     1      26.508  47.474  49.939  1.00  0.00     0.219 C 
HETATM    8  O   UNL     1      25.942  47.895  50.939  1.00  0.00    -0.274 OA
HETATM    9  H   UNL     1      26.677  46.006  48.507  1.00  0.00     0.164 HD
BRANCH   7  10
HETATM   10  C   UNL     1      27.612  48.209  49.197  1.00  0.00     0.102 C 
BRANCH  10  11
HETATM   11  C   UNL     1      27.309  49.680  48.925  1.00  0.00     0.005 C 
HETATM   12  C   UNL     1      26.062  49.880  48.077  1.00  0.00     0.005 C 
ENDBRANCH  10  11
ENDBRANCH   7  10
ENDBRANCH   5   6
BRANCH   5  13
HETATM   13  C   UNL     1      25.801  44.366  51.068  1.00  0.00     0.226 C 
HETATM   14 CL   UNL     1      25.410  45.051  52.689  1.00  0.00    -0.080 Cl
HETATM   15 CL   UNL     1      25.171  42.684  50.987  1.00  0.00    -0.080 Cl
HETATM   16 CL   UNL     1      27.601  44.250  50.960  1.00  0.00    -0.080 Cl
ENDBRANCH   5  13
ENDBRANCH   3   5
ENDBRANCH   1   3
BRANCH   1  17
HETATM   17  N   UNL     1      22.998  47.995  49.730  1.00  0.00    -0.274 N 
HETATM   18  H   UNL     1      23.848  48.560  49.670  1.00  0.00     0.189 HD
BRANCH  17  19
HETATM   19  N   UNL     1      21.806  48.670  49.390  1.00  0.00    -0.264 N 
HETATM   20  C   UNL     1      21.815  50.049  49.541  1.00  0.00     0.272 C 
HETATM   21  O   UNL     1      22.828  50.681  49.837  1.00  0.00    -0.266 OA
HETATM   22  H   UNL     1      20.945  48.144  49.522  1.00  0.00     0.190 HD
BRANCH  20  23
HETATM   23  C   UNL     1      20.516  50.762  49.411  1.00  0.00     0.066 A 
HETATM   24  C   UNL     1      19.437  50.383  50.226  1.00  0.00     0.081 A 
HETATM   25  C   UNL     1      18.199  51.011  50.107  1.00  0.00     0.037 A 
HETATM   26  C   UNL     1      18.029  52.041  49.184  1.00  0.00     0.003 A 
HETATM   27  C   UNL     1      19.100  52.448  48.389  1.00  0.00     0.001 A 
HETATM   28  C   UNL     1      20.342  51.816  48.501  1.00  0.00     0.020 A 
BRANCH  24  29
HETATM   29  O   UNL     1      19.518  49.392  51.169  1.00  0.00    -0.360 OA
HETATM   30  H   UNL     1      19.938  48.607  50.752  1.00  0.00     0.217 HD
ENDBRANCH  24  29
ENDBRANCH  20  23
ENDBRANCH  17  19
ENDBRANCH   1  17
TORSDOF 10
ENDMDL
MODEL 2
REMARK VINA RESULT:      -7.7      6.421      7.972
REMARK  10 active torsions:
REMARK  status: ('A' for Active; 'I' for Inactive)
REMARK    1  A    between atoms: C_2  and  C_3 
REMARK    2  A    between atoms: C_3  and  C_4 
REMARK       I    between atoms: C_4  and  N_5 
REMARK    3  A    between atoms: N_5  and  C_6 
REMARK    4  A    between atoms: C_6  and  N_7 
REMARK    5  A    between atoms: C_6  and  C_21 
REMARK    6  A    between atoms: N_7  and  C_8 
REMARK    7  A    between atoms: C_8  and  N_9 
REMARK    8  A    between atoms: N_9  and  N_10 
REMARK       I    between atoms: N_10  and  C_11 
REMARK    9  A    between atoms: C_11  and  C_12 
REMARK   10  A    between atoms: C_13  and  O_14 
ROOT
HETATM    1  C   UNL     1      25.691  41.865  50.583  1.00  0.00     0.188 C 
HETATM    2  S   UNL     1      25.437  42.075  48.950  1.00  0.00    -0.039 SA
ENDROOT
BRANCH   1   3
HETATM    3  N   UNL     1      26.578  41.004  51.159  1.00  0.00    -0.341 N 
HETATM    4  H   UNL     1      26.184  40.320  51.794  1.00  0.00     0.164 HD
BRANCH   3   5
HETATM    5  C   UNL     1      27.992  40.812  50.857  1.00  0.00     0.241 C 
BRANCH   5   6
HETATM    6  N   UNL     1      28.763  41.006  52.081  1.00  0.00    -0.336 N 
HETATM    7  C   UNL     1      29.010  42.227  52.659  1.00  0.00     0.219 C 
HETATM    8  O   UNL     1      28.715  43.287  52.125  1.00  0.00    -0.274 OA
HETATM    9  H   UNL     1      29.055  40.171  52.573  1.00  0.00     0.164 HD
BRANCH   7  10
HETATM   10  C   UNL     1      29.710  42.103  54.003  1.00  0.00     0.102 C 
BRANCH  10  11
HETATM   11  C   UNL     1      30.506  43.341  54.408  1.00  0.00     0.005 C 
HETATM   12  C   UNL     1      30.911  43.331  55.874  1.00  0.00     0.005 C 
ENDBRANCH  10  11
ENDBRANCH   7  10
ENDBRANCH   5   6
BRANCH   5  13
HETATM   13  C   UNL     1      28.296  39.496  50.014  1.00  0.00     0.226 C 
HETATM   14 CL   UNL     1      26.804  38.505  49.808  1.00  0.00    -0.080 Cl
HETATM   15 CL   UNL     1      28.993  39.832  48.391  1.00  0.00    -0.080 Cl
HETATM   16 CL   UNL     1      29.498  38.471  50.891  1.00  0.00    -0.080 Cl
ENDBRANCH   5  13
ENDBRANCH   3   5
ENDBRANCH   1   3
BRANCH   1  17
HETATM   17  N   UNL     1      24.974  42.628  51.474  1.00  0.00    -0.274 N 
HETATM   18  H   UNL     1      24.043  42.273  51.701  1.00  0.00     0.189 HD
BRANCH  17  19
HETATM   19  N   UNL     1      25.632  43.299  52.527  1.00  0.00    -0.264 N 
HETATM   20  C   UNL     1      25.371  44.656  52.650  1.00  0.00     0.272 C 
HETATM   21  O   UNL     1      24.526  45.237  51.970  1.00  0.00    -0.266 OA
HETATM   22  H   UNL     1      26.539  42.924  52.793  1.00  0.00     0.190 HD
BRANCH  20  23
HETATM   23  C   UNL     1      26.213  45.434  53.597  1.00  0.00     0.066 A 
HETATM   24  C   UNL     1      26.169  46.838  53.564  1.00  0.00     0.081 A 
HETATM   25  C   UNL     1      26.969  47.595  54.417  1.00  0.00     0.037 A 
HETATM   26  C   UNL     1      27.810  46.960  55.328  1.00  0.00     0.003 A 
HETATM   27  C   UNL     1      27.842  45.567  55.392  1.00  0.00     0.001 A 
HETATM   28  C   UNL     1      27.045  44.803  54.534  1.00  0.00     0.020 A 
BRANCH  24  29
HETATM   29  O   UNL     1      25.362  47.546  52.713  1.00  0.00    -0.360 OA
HETATM   30  H   UNL     1      24.713  48.048  53.254  1.00  0.00     0.217 HD
ENDBRANCH  24  29
ENDBRANCH  20  23
ENDBRANCH  17  19
ENDBRANCH   1  17
TORSDOF 10
ENDMDL
MODEL 3
REMARK VINA RESULT:      -7.7      3.578      5.642
REMARK  10 active torsions:
REMARK  status: ('A' for Active; 'I' for Inactive)
REMARK    1  A    between atoms: C_2  and  C_3 
REMARK    2  A    between atoms: C_3  and  C_4 
REMARK       I    between atoms: C_4  and  N_5 
REMARK    3  A    between atoms: N_5  and  C_6 
REMARK    4  A    between atoms: C_6  and  N_7 
REMARK    5  A    between atoms: C_6  and  C_21 
REMARK    6  A    between atoms: N_7  and  C_8 
REMARK    7  A    between atoms: C_8  and  N_9 
REMARK    8  A    between atoms: N_9  and  N_10 
REMARK       I    between atoms: N_10  and  C_11 
REMARK    9  A    between atoms: C_11  and  C_12 
REMARK   10  A    between atoms: C_13  and  O_14 
ROOT
HETATM    1  C   UNL     1      24.848  43.608  51.454  1.00  0.00     0.188 C 
HETATM    2  S   UNL     1      24.249  42.579  50.289  1.00  0.00    -0.039 SA
ENDROOT
BRANCH   1   3
HETATM    3  N   UNL     1      25.844  43.329  52.344  1.00  0.00    -0.341 N 
HETATM    4  H   UNL     1      25.599  42.703  53.101  1.00  0.00     0.164 HD
BRANCH   3   5
HETATM    5  C   UNL     1      27.262  43.663  52.263  1.00  0.00     0.241 C 
BRANCH   5   6
HETATM    6  N   UNL     1      27.533  44.776  53.168  1.00  0.00    -0.336 N 
HETATM    7  C   UNL     1      27.177  44.805  54.493  1.00  0.00     0.219 C 
HETATM    8  O   UNL     1      26.475  43.947  55.012  1.00  0.00    -0.274 OA
HETATM    9  H   UNL     1      28.097  45.532  52.802  1.00  0.00     0.164 HD
BRANCH   7  10
HETATM   10  C   UNL     1      27.722  46.026  55.215  1.00  0.00     0.102 C 
BRANCH  10  11
HETATM   11  C   UNL     1      29.117  45.832  55.804  1.00  0.00     0.005 C 
HETATM   12  C   UNL     1      29.160  46.050  57.308  1.00  0.00     0.005 C 
ENDBRANCH  10  11
ENDBRANCH   7  10
ENDBRANCH   5   6
BRANCH   5  13
HETATM   13  C   UNL     1      28.226  42.400  52.362  1.00  0.00     0.226 C 
HETATM   14 CL   UNL     1      29.928  42.913  52.666  1.00  0.00    -0.080 Cl
HETATM   15 CL   UNL     1      27.741  41.229  53.637  1.00  0.00    -0.080 Cl
HETATM   16 CL   UNL     1      28.214  41.497  50.797  1.00  0.00    -0.080 Cl
ENDBRANCH   5  13
ENDBRANCH   3   5
ENDBRANCH   1   3
BRANCH   1  17
HETATM   17  N   UNL     1      24.335  44.880  51.550  1.00  0.00    -0.274 N 
HETATM   18  H   UNL     1      24.320  45.273  52.494  1.00  0.00     0.189 HD
BRANCH  17  19
HETATM   19  N   UNL     1      24.549  45.814  50.515  1.00  0.00    -0.264 N 
HETATM   20  C   UNL     1      25.350  46.903  50.826  1.00  0.00     0.272 C 
HETATM   21  O   UNL     1      25.947  47.008  51.897  1.00  0.00    -0.266 OA
HETATM   22  H   UNL     1      23.797  45.907  49.837  1.00  0.00     0.190 HD
BRANCH  20  23
HETATM   23  C   UNL     1      25.412  48.014  49.839  1.00  0.00     0.066 A 
HETATM   24  C   UNL     1      24.218  48.543  49.322  1.00  0.00     0.081 A 
HETATM   25  C   UNL     1      24.243  49.563  48.373  1.00  0.00     0.037 A 
HETATM   26  C   UNL     1      25.463  50.082  47.942  1.00  0.00     0.003 A 
HETATM   27  C   UNL     1      26.655  49.586  48.469  1.00  0.00     0.001 A 
HETATM   28  C   UNL     1      26.635  48.559  49.418  1.00  0.00     0.020 A 
BRANCH  24  29
HETATM   29  O   UNL     1      22.975  48.105  49.698  1.00  0.00    -0.360 OA
HETATM   30  H   UNL     1      23.041  47.149  49.915  1.00  0.00     0.217 HD
ENDBRANCH  24  29
ENDBRANCH  20  23
ENDBRANCH  17  19
ENDBRANCH   1  17
TORSDOF 10
ENDMDL
MODEL 4
REMARK VINA RESULT:      -7.3      3.365      8.165
REMARK  10 active torsions:
REMARK  status: ('A' for Active; 'I' for Inactive)
REMARK    1  A    between atoms: C_2  and  C_3 
REMARK    2  A    between atoms: C_3  and  C_4 
REMARK       I    between atoms: C_4  and  N_5 
REMARK    3  A    between atoms: N_5  and  C_6 
REMARK    4  A    between atoms: C_6  and  N_7 
REMARK    5  A    between atoms: C_6  and  C_21 
REMARK    6  A    between atoms: N_7  and  C_8 
REMARK    7  A    between atoms: C_8  and  N_9 
REMARK    8  A    between atoms: N_9  and  N_10 
REMARK       I    between atoms: N_10  and  C_11 
REMARK    9  A    between atoms: C_11  and  C_12 
REMARK   10  A    between atoms: C_13  and  O_14 
ROOT
HETATM    1  C   UNL     1      23.915  44.145  50.219  1.00  0.00     0.188 C 
HETATM    2  S   UNL     1      23.397  43.544  48.754  1.00  0.00    -0.039 SA
ENDROOT
BRANCH   1   3
HETATM    3  N   UNL     1      23.933  45.456  50.593  1.00  0.00    -0.341 N 
HETATM    4  H   UNL     1      23.695  45.644  51.560  1.00  0.00     0.164 HD
BRANCH   3   5
HETATM    5  C   UNL     1      24.416  46.613  49.848  1.00  0.00     0.241 C 
BRANCH   5   6
HETATM    6  N   UNL     1      23.395  47.655  49.886  1.00  0.00    -0.336 N 
HETATM    7  C   UNL     1      22.621  48.025  48.815  1.00  0.00     0.219 C 
HETATM    8  O   UNL     1      22.807  47.601  47.682  1.00  0.00    -0.274 OA
HETATM    9  H   UNL     1      23.196  48.064  50.790  1.00  0.00     0.164 HD
BRANCH   7  10
HETATM   10  C   UNL     1      21.546  49.031  49.194  1.00  0.00     0.102 C 
BRANCH  10  11
HETATM   11  C   UNL     1      22.086  50.403  49.588  1.00  0.00     0.005 C 
HETATM   12  C   UNL     1      23.015  50.996  48.540  1.00  0.00     0.005 C 
ENDBRANCH  10  11
ENDBRANCH   7  10
ENDBRANCH   5   6
BRANCH   5  13
HETATM   13  C   UNL     1      25.902  47.044  50.224  1.00  0.00     0.226 C 
HETATM   14 CL   UNL     1      26.324  48.625  49.468  1.00  0.00    -0.080 Cl
HETATM   15 CL   UNL     1      26.188  47.158  51.995  1.00  0.00    -0.080 Cl
HETATM   16 CL   UNL     1      27.073  45.823  49.588  1.00  0.00    -0.080 Cl
ENDBRANCH   5  13
ENDBRANCH   3   5
ENDBRANCH   1   3
BRANCH   1  17
HETATM   17  N   UNL     1      24.354  43.269  51.183  1.00  0.00    -0.274 N 
HETATM   18  H   UNL     1      24.290  42.279  50.934  1.00  0.00     0.189 HD
BRANCH  17  19
HETATM   19  N   UNL     1      25.446  43.609  52.009  1.00  0.00    -0.264 N 
HETATM   20  C   UNL     1      26.683  43.109  51.629  1.00  0.00     0.272 C 
HETATM   21  O   UNL     1      26.863  42.503  50.574  1.00  0.00    -0.266 OA
HETATM   22  H   UNL     1      25.231  43.755  52.992  1.00  0.00     0.190 HD
BRANCH  20  23
HETATM   23  C   UNL     1      27.808  43.256  52.592  1.00  0.00     0.066 A 
HETATM   24  C   UNL     1      28.894  42.367  52.524  1.00  0.00     0.081 A 
HETATM   25  C   UNL     1      29.948  42.460  53.430  1.00  0.00     0.037 A 
HETATM   26  C   UNL     1      29.941  43.456  54.405  1.00  0.00     0.003 A 
HETATM   27  C   UNL     1      28.884  44.364  54.465  1.00  0.00     0.001 A 
HETATM   28  C   UNL     1      27.821  44.270  53.561  1.00  0.00     0.020 A 
BRANCH  24  29
HETATM   29  O   UNL     1      28.992  41.368  51.590  1.00  0.00    -0.360 OA
HETATM   30  H   UNL     1      29.182  41.782  50.719  1.00  0.00     0.217 HD
ENDBRANCH  24  29
ENDBRANCH  20  23
ENDBRANCH  17  19
ENDBRANCH   1  17
TORSDOF 10
ENDMDL
MODEL 5
REMARK VINA RESULT:      -7.3      2.271      3.096
REMARK  10 active torsions:
REMARK  status: ('A' for Active; 'I' for Inactive)
REMARK    1  A    between atoms: C_2  and  C_3 
REMARK    2  A    between atoms: C_3  and  C_4 
REMARK       I    between atoms: C_4  and  N_5 
REMARK    3  A    between atoms: N_5  and  C_6 
REMARK    4  A    between atoms: C_6  and  N_7 
REMARK    5  A    between atoms: C_6  and  C_21 
REMARK    6  A    between atoms: N_7  and  C_8 
REMARK    7  A    between atoms: C_8  and  N_9 
REMARK    8  A    between atoms: N_9  and  N_10 
REMARK       I    between atoms: N_10  and  C_11 
REMARK    9  A    between atoms: C_11  and  C_12 
REMARK   10  A    between atoms: C_13  and  O_14 
ROOT
HETATM    1  C   UNL     1      23.856  45.868  49.933  1.00  0.00     0.188 C 
HETATM    2  S   UNL     1      23.262  45.045  48.612  1.00  0.00    -0.039 SA
ENDROOT
BRANCH   1   3
HETATM    3  N   UNL     1      24.372  45.313  51.067  1.00  0.00    -0.341 N 
HETATM    4  H   UNL     1      23.697  44.989  51.749  1.00  0.00     0.164 HD
BRANCH   3   5
HETATM    5  C   UNL     1      25.756  44.956  51.361  1.00  0.00     0.241 C 
BRANCH   5   6
HETATM    6  N   UNL     1      26.104  45.480  52.678  1.00  0.00    -0.336 N 
HETATM    7  C   UNL     1      25.952  46.789  53.059  1.00  0.00     0.219 C 
HETATM    8  O   UNL     1      25.629  47.675  52.280  1.00  0.00    -0.274 OA
HETATM    9  H   UNL     1      26.395  44.805  53.373  1.00  0.00     0.164 HD
BRANCH   7  10
HETATM   10  C   UNL     1      26.259  47.006  54.533  1.00  0.00     0.102 C 
BRANCH  10  11
HETATM   11  C   UNL     1      27.647  47.582  54.802  1.00  0.00     0.005 C 
HETATM   12  C   UNL     1      28.648  46.528  55.249  1.00  0.00     0.005 C 
ENDBRANCH  10  11
ENDBRANCH   7  10
ENDBRANCH   5   6
BRANCH   5  13
HETATM   13  C   UNL     1      26.100  43.428  51.077  1.00  0.00     0.226 C 
HETATM   14 CL   UNL     1      26.941  43.241  49.493  1.00  0.00    -0.080 Cl
HETATM   15 CL   UNL     1      27.111  42.673  52.358  1.00  0.00    -0.080 Cl
HETATM   16 CL   UNL     1      24.574  42.464  50.986  1.00  0.00    -0.080 Cl
ENDBRANCH   5  13
ENDBRANCH   3   5
ENDBRANCH   1   3
BRANCH   1  17
HETATM   17  N   UNL     1      23.866  47.243  49.914  1.00  0.00    -0.274 N 
HETATM   18  H   UNL     1      24.762  47.668  49.667  1.00  0.00     0.189 HD
BRANCH  17  19
HETATM   19  N   UNL     1      22.727  47.957  49.488  1.00  0.00    -0.264 N 
HETATM   20  C   UNL     1      22.897  49.317  49.274  1.00  0.00     0.272 C 
HETATM   21  O   UNL     1      23.996  49.869  49.330  1.00  0.00    -0.266 OA
HETATM   22  H   UNL     1      21.831  47.596  49.807  1.00  0.00     0.190 HD
BRANCH  20  23
HETATM   23  C   UNL     1      21.676  50.135  49.046  1.00  0.00     0.066 A 
HETATM   24  C   UNL     1      21.184  50.943  50.085  1.00  0.00     0.081 A 
HETATM   25  C   UNL     1      20.026  51.697  49.913  1.00  0.00     0.037 A 
HETATM   26  C   UNL     1      19.353  51.669  48.692  1.00  0.00     0.003 A 
HETATM   27  C   UNL     1      19.846  50.895  47.643  1.00  0.00     0.001 A 
HETATM   28  C   UNL     1      21.006  50.132  47.813  1.00  0.00     0.020 A 
BRANCH  24  29
HETATM   29  O   UNL     1      21.788  51.043  51.311  1.00  0.00    -0.360 OA
HETATM   30  H   UNL     1      21.428  50.333  51.888  1.00  0.00     0.217 HD
ENDBRANCH  24  29
ENDBRANCH  20  23
ENDBRANCH  17  19
ENDBRANCH   1  17
TORSDOF 10
ENDMDL
MODEL 6
REMARK VINA RESULT:      -7.3      4.931      9.076
REMARK  10 active torsions:
REMARK  status: ('A' for Active; 'I' for Inactive)
REMARK    1  A    between atoms: C_2  and  C_3 
REMARK    2  A    between atoms: C_3  and  C_4 
REMARK       I    between atoms: C_4  and  N_5 
REMARK    3  A    between atoms: N_5  and  C_6 
REMARK    4  A    between atoms: C_6  and  N_7 
REMARK    5  A    between atoms: C_6  and  C_21 
REMARK    6  A    between atoms: N_7  and  C_8 
REMARK    7  A    between atoms: C_8  and  N_9 
REMARK    8  A    between atoms: N_9  and  N_10 
REMARK       I    between atoms: N_10  and  C_11 
REMARK    9  A    between atoms: C_11  and  C_12 
REMARK   10  A    between atoms: C_13  and  O_14 
ROOT
HETATM    1  C   UNL     1      25.812  45.498  53.280  1.00  0.00     0.188 C 
HETATM    2  S   UNL     1      25.032  44.408  54.270  1.00  0.00    -0.039 SA
ENDROOT
BRANCH   1   3
HETATM    3  N   UNL     1      25.307  46.067  52.148  1.00  0.00    -0.341 N 
HETATM    4  H   UNL     1      25.573  47.030  51.980  1.00  0.00     0.164 HD
BRANCH   3   5
HETATM    5  C   UNL     1      24.580  45.434  51.053  1.00  0.00     0.241 C 
BRANCH   5   6
HETATM    6  N   UNL     1      23.865  46.466  50.308  1.00  0.00    -0.336 N 
HETATM    7  C   UNL     1      24.421  47.649  49.890  1.00  0.00     0.219 C 
HETATM    8  O   UNL     1      25.543  48.010  50.220  1.00  0.00    -0.274 OA
HETATM    9  H   UNL     1      22.924  46.244  50.013  1.00  0.00     0.164 HD
BRANCH   7  10
HETATM   10  C   UNL     1      23.479  48.456  49.010  1.00  0.00     0.102 C 
BRANCH  10  11
HETATM   11  C   UNL     1      24.048  49.796  48.551  1.00  0.00     0.005 C 
HETATM   12  C   UNL     1      23.102  50.959  48.805  1.00  0.00     0.005 C 
ENDBRANCH  10  11
ENDBRANCH   7  10
ENDBRANCH   5   6
BRANCH   5  13
HETATM   13  C   UNL     1      25.457  44.410  50.208  1.00  0.00     0.226 C 
HETATM   14 CL   UNL     1      27.122  45.051  49.947  1.00  0.00    -0.080 Cl
HETATM   15 CL   UNL     1      25.579  42.782  50.960  1.00  0.00    -0.080 Cl
HETATM   16 CL   UNL     1      24.718  44.172  48.576  1.00  0.00    -0.080 Cl
ENDBRANCH   5  13
ENDBRANCH   3   5
ENDBRANCH   1   3
BRANCH   1  17
HETATM   17  N   UNL     1      27.083  45.908  53.609  1.00  0.00    -0.274 N 
HETATM   18  H   UNL     1      27.205  46.920  53.693  1.00  0.00     0.189 HD
BRANCH  17  19
HETATM   19  N   UNL     1      27.878  45.134  54.479  1.00  0.00    -0.264 N 
HETATM   20  C   UNL     1      28.842  45.819  55.205  1.00  0.00     0.272 C 
HETATM   21  O   UNL     1      28.937  47.046  55.196  1.00  0.00    -0.266 OA
HETATM   22  H   UNL     1      28.036  44.170  54.197  1.00  0.00     0.190 HD
BRANCH  20  23
HETATM   23  C   UNL     1      29.840  45.010  55.955  1.00  0.00     0.066 A 
HETATM   24  C   UNL     1      30.151  45.357  57.280  1.00  0.00     0.081 A 
HETATM   25  C   UNL     1      31.104  44.639  57.999  1.00  0.00     0.037 A 
HETATM   26  C   UNL     1      31.745  43.551  57.410  1.00  0.00     0.003 A 
HETATM   27  C   UNL     1      31.424  43.177  56.105  1.00  0.00     0.001 A 
HETATM   28  C   UNL     1      30.473  43.899  55.378  1.00  0.00     0.020 A 
BRANCH  24  29
HETATM   29  O   UNL     1      29.561  46.401  57.944  1.00  0.00    -0.360 OA
HETATM   30  H   UNL     1      29.175  46.053  58.778  1.00  0.00     0.217 HD
ENDBRANCH  24  29
ENDBRANCH  20  23
ENDBRANCH  17  19
ENDBRANCH   1  17
TORSDOF 10
ENDMDL
MODEL 7
REMARK VINA RESULT:      -7.2      6.130      7.976
REMARK  10 active torsions:
REMARK  status: ('A' for Active; 'I' for Inactive)
REMARK    1  A    between atoms: C_2  and  C_3 
REMARK    2  A    between atoms: C_3  and  C_4 
REMARK       I    between atoms: C_4  and  N_5 
REMARK    3  A    between atoms: N_5  and  C_6 
REMARK    4  A    between atoms: C_6  and  N_7 
REMARK    5  A    between atoms: C_6  and  C_21 
REMARK    6  A    between atoms: N_7  and  C_8 
REMARK    7  A    between atoms: C_8  and  N_9 
REMARK    8  A    between atoms: N_9  and  N_10 
REMARK       I    between atoms: N_10  and  C_11 
REMARK    9  A    between atoms: C_11  and  C_12 
REMARK   10  A    between atoms: C_13  and  O_14 
ROOT
HETATM    1  C   UNL     1      26.059  40.389  49.498  1.00  0.00     0.188 C 
HETATM    2  S   UNL     1      26.180  40.219  47.845  1.00  0.00    -0.039 SA
ENDROOT
BRANCH   1   3
HETATM    3  N   UNL     1      26.829  39.762  50.433  1.00  0.00    -0.341 N 
HETATM    4  H   UNL     1      26.327  39.243  51.144  1.00  0.00     0.164 HD
BRANCH   3   5
HETATM    5  C   UNL     1      28.276  39.584  50.455  1.00  0.00     0.241 C 
BRANCH   5   6
HETATM    6  N   UNL     1      28.789  40.077  51.730  1.00  0.00    -0.336 N 
HETATM    7  C   UNL     1      28.680  41.375  52.162  1.00  0.00     0.219 C 
HETATM    8  O   UNL     1      28.254  42.278  51.455  1.00  0.00    -0.274 OA
HETATM    9  H   UNL     1      29.171  39.387  52.364  1.00  0.00     0.164 HD
BRANCH   7  10
HETATM   10  C   UNL     1      29.174  41.556  53.589  1.00  0.00     0.102 C 
BRANCH  10  11
HETATM   11  C   UNL     1      28.688  42.839  54.258  1.00  0.00     0.005 C 
HETATM   12  C   UNL     1      29.825  43.776  54.637  1.00  0.00     0.005 C 
ENDBRANCH  10  11
ENDBRANCH   7  10
ENDBRANCH   5   6
BRANCH   5  13
HETATM   13  C   UNL     1      28.752  38.136  49.997  1.00  0.00     0.226 C 
HETATM   14 CL   UNL     1      29.534  38.199  48.373  1.00  0.00    -0.080 Cl
HETATM   15 CL   UNL     1      29.889  37.358  51.152  1.00  0.00    -0.080 Cl
HETATM   16 CL   UNL     1      27.324  37.037  49.857  1.00  0.00    -0.080 Cl
ENDBRANCH   5  13
ENDBRANCH   3   5
ENDBRANCH   1   3
BRANCH   1  17
HETATM   17  N   UNL     1      25.122  41.253  50.014  1.00  0.00    -0.274 N 
HETATM   18  H   UNL     1      24.197  40.847  50.170  1.00  0.00     0.189 HD
BRANCH  17  19
HETATM   19  N   UNL     1      25.504  42.248  50.937  1.00  0.00    -0.264 N 
HETATM   20  C   UNL     1      24.554  43.217  51.227  1.00  0.00     0.272 C 
HETATM   21  O   UNL     1      23.398  43.163  50.807  1.00  0.00    -0.266 OA
HETATM   22  H   UNL     1      26.495  42.478  50.958  1.00  0.00     0.190 HD
BRANCH  20  23
HETATM   23  C   UNL     1      24.996  44.399  52.014  1.00  0.00     0.066 A 
HETATM   24  C   UNL     1      24.962  45.672  51.423  1.00  0.00     0.081 A 
HETATM   25  C   UNL     1      25.397  46.795  52.124  1.00  0.00     0.037 A 
HETATM   26  C   UNL     1      25.855  46.662  53.433  1.00  0.00     0.003 A 
HETATM   27  C   UNL     1      25.866  45.408  54.043  1.00  0.00     0.001 A 
HETATM   28  C   UNL     1      25.435  44.278  53.341  1.00  0.00     0.020 A 
BRANCH  24  29
HETATM   29  O   UNL     1      24.514  45.898  50.147  1.00  0.00    -0.360 OA
HETATM   30  H   UNL     1      24.500  45.038  49.672  1.00  0.00     0.217 HD
ENDBRANCH  24  29
ENDBRANCH  20  23
ENDBRANCH  17  19
ENDBRANCH   1  17
TORSDOF 10
ENDMDL
MODEL 8
REMARK VINA RESULT:      -7.2      2.243      3.081
REMARK  10 active torsions:
REMARK  status: ('A' for Active; 'I' for Inactive)
REMARK    1  A    between atoms: C_2  and  C_3 
REMARK    2  A    between atoms: C_3  and  C_4 
REMARK       I    between atoms: C_4  and  N_5 
REMARK    3  A    between atoms: N_5  and  C_6 
REMARK    4  A    between atoms: C_6  and  N_7 
REMARK    5  A    between atoms: C_6  and  C_21 
REMARK    6  A    between atoms: N_7  and  C_8 
REMARK    7  A    between atoms: C_8  and  N_9 
REMARK    8  A    between atoms: N_9  and  N_10 
REMARK       I    between atoms: N_10  and  C_11 
REMARK    9  A    between atoms: C_11  and  C_12 
REMARK   10  A    between atoms: C_13  and  O_14 
ROOT
HETATM    1  C   UNL     1      20.935  44.894  48.716  1.00  0.00     0.188 C 
HETATM    2  S   UNL     1      20.937  44.223  47.191  1.00  0.00    -0.039 SA
ENDROOT
BRANCH   1   3
HETATM    3  N   UNL     1      21.981  44.915  49.591  1.00  0.00    -0.341 N 
HETATM    4  H   UNL     1      21.837  44.427  50.466  1.00  0.00     0.164 HD
BRANCH   3   5
HETATM    5  C   UNL     1      23.343  45.391  49.375  1.00  0.00     0.241 C 
BRANCH   5   6
HETATM    6  N   UNL     1      23.376  46.833  49.598  1.00  0.00    -0.336 N 
HETATM    7  C   UNL     1      22.895  47.767  48.714  1.00  0.00     0.219 C 
HETATM    8  O   UNL     1      22.509  47.481  47.589  1.00  0.00    -0.274 OA
HETATM    9  H   UNL     1      23.699  47.146  50.504  1.00  0.00     0.164 HD
BRANCH   7  10
HETATM   10  C   UNL     1      22.931  49.177  49.282  1.00  0.00     0.102 C 
BRANCH  10  11
HETATM   11  C   UNL     1      23.173  50.264  48.238  1.00  0.00     0.005 C 
HETATM   12  C   UNL     1      24.637  50.396  47.849  1.00  0.00     0.005 C 
ENDBRANCH  10  11
ENDBRANCH   7  10
ENDBRANCH   5   6
BRANCH   5  13
HETATM   13  C   UNL     1      24.452  44.521  50.115  1.00  0.00     0.226 C 
HETATM   14 CL   UNL     1      23.994  42.777  50.135  1.00  0.00    -0.080 Cl
HETATM   15 CL   UNL     1      26.088  44.677  49.387  1.00  0.00    -0.080 Cl
HETATM   16 CL   UNL     1      24.599  45.051  51.837  1.00  0.00    -0.080 Cl
ENDBRANCH   5  13
ENDBRANCH   3   5
ENDBRANCH   1   3
BRANCH   1  17
HETATM   17  N   UNL     1      19.797  45.518  49.170  1.00  0.00    -0.274 N 
HETATM   18  H   UNL     1      19.212  44.957  49.792  1.00  0.00     0.189 HD
BRANCH  17  19
HETATM   19  N   UNL     1      19.805  46.902  49.442  1.00  0.00    -0.264 N 
HETATM   20  C   UNL     1      19.101  47.708  48.559  1.00  0.00     0.272 C 
HETATM   21  O   UNL     1      18.404  47.253  47.653  1.00  0.00    -0.266 OA
HETATM   22  H   UNL     1      20.635  47.258  49.912  1.00  0.00     0.190 HD
BRANCH  20  23
HETATM   23  C   UNL     1      19.275  49.180  48.684  1.00  0.00     0.066 A 
HETATM   24  C   UNL     1      19.255  49.770  49.959  1.00  0.00     0.081 A 
HETATM   25  C   UNL     1      19.384  51.149  50.107  1.00  0.00     0.037 A 
HETATM   26  C   UNL     1      19.555  51.956  48.983  1.00  0.00     0.003 A 
HETATM   27  C   UNL     1      19.605  51.380  47.714  1.00  0.00     0.001 A 
HETATM   28  C   UNL     1      19.470  49.997  47.560  1.00  0.00     0.020 A 
BRANCH  24  29
HETATM   29  O   UNL     1      19.108  49.053  51.118  1.00  0.00    -0.360 OA
HETATM   30  H   UNL     1      19.240  48.102  50.907  1.00  0.00     0.217 HD
ENDBRANCH  24  29
ENDBRANCH  20  23
ENDBRANCH  17  19
ENDBRANCH   1  17
TORSDOF 10
ENDMDL
MODEL 9
REMARK VINA RESULT:      -7.1      4.794      8.493
REMARK  10 active torsions:
REMARK  status: ('A' for Active; 'I' for Inactive)
REMARK    1  A    between atoms: C_2  and  C_3 
REMARK    2  A    between atoms: C_3  and  C_4 
REMARK       I    between atoms: C_4  and  N_5 
REMARK    3  A    between atoms: N_5  and  C_6 
REMARK    4  A    between atoms: C_6  and  N_7 
REMARK    5  A    between atoms: C_6  and  C_21 
REMARK    6  A    between atoms: N_7  and  C_8 
REMARK    7  A    between atoms: C_8  and  N_9 
REMARK    8  A    between atoms: N_9  and  N_10 
REMARK       I    between atoms: N_10  and  C_11 
REMARK    9  A    between atoms: C_11  and  C_12 
REMARK   10  A    between atoms: C_13  and  O_14 
ROOT
HETATM    1  C   UNL     1      26.966  42.022  50.851  1.00  0.00     0.188 C 
HETATM    2  S   UNL     1      28.010  40.734  50.691  1.00  0.00    -0.039 SA
ENDROOT
BRANCH   1   3
HETATM    3  N   UNL     1      26.545  42.850  49.851  1.00  0.00    -0.341 N 
HETATM    4  H   UNL     1      26.934  42.670  48.933  1.00  0.00     0.164 HD
BRANCH   3   5
HETATM    5  C   UNL     1      25.479  43.846  49.878  1.00  0.00     0.241 C 
BRANCH   5   6
HETATM    6  N   UNL     1      26.054  45.154  49.581  1.00  0.00    -0.336 N 
HETATM    7  C   UNL     1      25.688  46.323  50.199  1.00  0.00     0.219 C 
HETATM    8  O   UNL     1      24.743  46.398  50.973  1.00  0.00    -0.274 OA
HETATM    9  H   UNL     1      26.833  45.173  48.935  1.00  0.00     0.164 HD
BRANCH   7  10
HETATM   10  C   UNL     1      26.562  47.497  49.789  1.00  0.00     0.102 C 
BRANCH  10  11
HETATM   11  C   UNL     1      25.790  48.668  49.185  1.00  0.00     0.005 C 
HETATM   12  C   UNL     1      26.695  49.693  48.518  1.00  0.00     0.005 C 
ENDBRANCH  10  11
ENDBRANCH   7  10
ENDBRANCH   5   6
BRANCH   5  13
HETATM   13  C   UNL     1      24.184  43.423  49.055  1.00  0.00     0.226 C 
HETATM   14 CL   UNL     1      22.818  43.029  50.164  1.00  0.00    -0.080 Cl
HETATM   15 CL   UNL     1      23.635  44.677  47.890  1.00  0.00    -0.080 Cl
HETATM   16 CL   UNL     1      24.530  41.935  48.090  1.00  0.00    -0.080 Cl
ENDBRANCH   5  13
ENDBRANCH   3   5
ENDBRANCH   1   3
BRANCH   1  17
HETATM   17  N   UNL     1      26.436  42.303  52.088  1.00  0.00    -0.274 N 
HETATM   18  H   UNL     1      25.555  41.830  52.301  1.00  0.00     0.189 HD
BRANCH  17  19
HETATM   19  N   UNL     1      27.285  42.516  53.194  1.00  0.00    -0.264 N 
HETATM   20  C   UNL     1      27.729  43.816  53.387  1.00  0.00     0.272 C 
HETATM   21  O   UNL     1      27.324  44.766  52.717  1.00  0.00    -0.266 OA
HETATM   22  H   UNL     1      27.869  41.729  53.464  1.00  0.00     0.190 HD
BRANCH  20  23
HETATM   23  C   UNL     1      28.797  44.034  54.399  1.00  0.00     0.066 A 
HETATM   24  C   UNL     1      28.817  45.232  55.133  1.00  0.00     0.081 A 
HETATM   25  C   UNL     1      29.821  45.479  56.066  1.00  0.00     0.037 A 
HETATM   26  C   UNL     1      30.810  44.523  56.293  1.00  0.00     0.003 A 
HETATM   27  C   UNL     1      30.785  43.317  55.593  1.00  0.00     0.001 A 
HETATM   28  C   UNL     1      29.782  43.067  54.651  1.00  0.00     0.020 A 
BRANCH  24  29
HETATM   29  O   UNL     1      27.879  46.220  54.986  1.00  0.00    -0.360 OA
HETATM   30  H   UNL     1      26.999  45.842  55.210  1.00  0.00     0.217 HD
ENDBRANCH  24  29
ENDBRANCH  20  23
ENDBRANCH  17  19
ENDBRANCH   1  17
TORSDOF 10
ENDMDL
MODEL 10
REMARK VINA RESULT:      -7.1     10.881     12.163
REMARK  10 active torsions:
REMARK  status: ('A' for Active; 'I' for Inactive)
REMARK    1  A    between atoms: C_2  and  C_3 
REMARK    2  A    between atoms: C_3  and  C_4 
REMARK       I    between atoms: C_4  and  N_5 
REMARK    3  A    between atoms: N_5  and  C_6 
REMARK    4  A    between atoms: C_6  and  N_7 
REMARK    5  A    between atoms: C_6  and  C_21 
REMARK    6  A    between atoms: N_7  and  C_8 
REMARK    7  A    between atoms: C_8  and  N_9 
REMARK    8  A    between atoms: N_9  and  N_10 
REMARK       I    between atoms: N_10  and  C_11 
REMARK    9  A    between atoms: C_11  and  C_12 
REMARK   10  A    between atoms: C_13  and  O_14 
ROOT
HETATM    1  C   UNL     1      25.845  48.635  39.595  1.00  0.00     0.188 C 
HETATM    2  S   UNL     1      24.729  47.747  40.457  1.00  0.00    -0.039 SA
ENDROOT
BRANCH   1   3
HETATM    3  N   UNL     1      26.855  48.135  38.826  1.00  0.00    -0.341 N 
HETATM    4  H   UNL     1      26.850  48.414  37.852  1.00  0.00     0.164 HD
BRANCH   3   5
HETATM    5  C   UNL     1      28.042  47.397  39.244  1.00  0.00     0.241 C 
BRANCH   5   6
HETATM    6  N   UNL     1      28.482  47.912  40.536  1.00  0.00    -0.336 N 
HETATM    7  C   UNL     1      29.775  48.264  40.834  1.00  0.00     0.219 C 
HETATM    8  O   UNL     1      30.712  48.053  40.076  1.00  0.00    -0.274 OA
HETATM    9  H   UNL     1      27.761  48.098  41.221  1.00  0.00     0.164 HD
BRANCH   7  10
HETATM   10  C   UNL     1      29.902  48.906  42.206  1.00  0.00     0.102 C 
BRANCH  10  11
HETATM   11  C   UNL     1      31.311  48.853  42.791  1.00  0.00     0.005 C 
HETATM   12  C   UNL     1      31.932  50.231  42.964  1.00  0.00     0.005 C 
ENDBRANCH  10  11
ENDBRANCH   7  10
ENDBRANCH   5   6
BRANCH   5  13
HETATM   13  C   UNL     1      27.898  45.818  39.107  1.00  0.00     0.226 C 
HETATM   14 CL   UNL     1      26.614  45.389  37.915  1.00  0.00    -0.080 Cl
HETATM   15 CL   UNL     1      29.425  44.999  38.627  1.00  0.00    -0.080 Cl
HETATM   16 CL   UNL     1      27.407  45.108  40.694  1.00  0.00    -0.080 Cl
ENDBRANCH   5  13
ENDBRANCH   3   5
ENDBRANCH   1   3
BRANCH   1  17
HETATM   17  N   UNL     1      25.764  50.007  39.612  1.00  0.00    -0.274 N 
HETATM   18  H   UNL     1      24.842  50.386  39.837  1.00  0.00     0.189 HD
BRANCH  17  19
HETATM   19  N   UNL     1      26.855  50.777  40.066  1.00  0.00    -0.264 N 
HETATM   20  C   UNL     1      27.744  51.218  39.096  1.00  0.00     0.272 C 
HETATM   21  O   UNL     1      27.547  51.061  37.891  1.00  0.00    -0.266 OA
HETATM   22  H   UNL     1      27.183  50.573  41.007  1.00  0.00     0.190 HD
BRANCH  20  23
HETATM   23  C   UNL     1      29.016  51.834  39.558  1.00  0.00     0.066 A 
HETATM   24  C   UNL     1      30.235  51.373  39.033  1.00  0.00     0.081 A 
HETATM   25  C   UNL     1      31.445  51.908  39.468  1.00  0.00     0.037 A 
HETATM   26  C   UNL     1      31.453  52.926  40.420  1.00  0.00     0.003 A 
HETATM   27  C   UNL     1      30.249  53.414  40.928  1.00  0.00     0.001 A 
HETATM   28  C   UNL     1      29.032  52.875  40.498  1.00  0.00     0.020 A 
BRANCH  24  29
HETATM   29  O   UNL     1      30.322  50.387  38.085  1.00  0.00    -0.360 OA
HETATM   30  H   UNL     1      29.537  49.803  38.179  1.00  0.00     0.217 HD
ENDBRANCH  24  29
ENDBRANCH  20  23
ENDBRANCH  17  19
ENDBRANCH   1  17
TORSDOF 10
ENDMDL
