MODEL 1
REMARK VINA RESULT:      -9.3      0.000      0.000
REMARK  4 active torsions:
REMARK  status: ('A' for Active; 'I' for Inactive)
REMARK    1  A    between atoms: S_2  and  C_3 
REMARK    2  A    between atoms: C_5  and  C_6 
REMARK    3  A    between atoms: C_6  and  N_7 
REMARK       I    between atoms: N_7  and  C_8 
REMARK    4  A    between atoms: C_8  and  C_9 
ROOT
HETATM    1  N   UNL     1      26.144  46.668  52.060  1.00  0.00    -0.353 N 
HETATM    2  C   UNL     1      26.024  45.724  53.049  1.00  0.00     0.254 C 
HETATM    3  O   UNL     1      25.130  44.884  53.084  1.00  0.00    -0.268 OA
HETATM    4  H   UNL     1      26.985  47.224  52.001  1.00  0.00     0.163 HD
ENDROOT
BRANCH   2   5
HETATM    5  C   UNL     1      27.126  45.719  54.056  1.00  0.00     0.058 A 
HETATM    6  C   UNL     1      28.254  44.767  54.131  1.00  0.00    -0.003 A 
HETATM    7  C   UNL     1      29.167  44.876  55.199  1.00  0.00     0.043 A 
HETATM    8  C   UNL     1      28.493  43.780  53.164  1.00  0.00     0.013 A 
HETATM    9  C   UNL     1      30.255  44.001  55.320  1.00  0.00     0.018 A 
HETATM   10  C   UNL     1      29.000  45.961  56.203  1.00  0.00     0.256 A 
HETATM   11  C   UNL     1      30.455  43.011  54.363  1.00  0.00     0.001 A 
HETATM   12  C   UNL     1      29.579  42.905  53.285  1.00  0.00     0.001 A 
HETATM   13  O   UNL     1      29.763  46.094  57.153  1.00  0.00    -0.267 OA
HETATM   14  N   UNL     1      27.942  46.816  55.998  1.00  0.00    -0.332 N 
HETATM   15  C   UNL     1      27.042  46.698  54.972  1.00  0.00     0.109 A 
HETATM   16  H   UNL     1      27.846  47.565  56.675  1.00  0.00     0.168 HD
ENDBRANCH   2   5
BRANCH   1  17
HETATM   17  C   UNL     1      25.269  46.651  50.906  1.00  0.00     0.161 C 
BRANCH  17  18
HETATM   18  C   UNL     1      25.582  47.753  49.927  1.00  0.00    -0.039 A 
HETATM   19  C   UNL     1      24.540  48.490  49.338  1.00  0.00     0.027 A 
HETATM   20  C   UNL     1      24.804  49.576  48.492  1.00  0.00     0.000 A 
HETATM   21  C   UNL     1      26.130  49.937  48.250  1.00  0.00     0.018 A 
HETATM   22  C   UNL     1      27.178  49.218  48.831  1.00  0.00     0.002 A 
HETATM   23  C   UNL     1      26.904  48.138  49.671  1.00  0.00     0.009 A 
BRANCH  20  24
HETATM   24  S   UNL     1      23.405  50.484  47.847  1.00  0.00    -0.134 SA
HETATM   25  C   UNL     1      22.417  50.757  49.342  1.00  0.00     0.095 C 
ENDBRANCH  20  24
ENDBRANCH  17  18
ENDBRANCH   1  17
TORSDOF 4
ENDMDL
MODEL 2
REMARK VINA RESULT:      -8.8      3.595      8.135
REMARK  4 active torsions:
REMARK  status: ('A' for Active; 'I' for Inactive)
REMARK    1  A    between atoms: S_2  and  C_3 
REMARK    2  A    between atoms: C_5  and  C_6 
REMARK    3  A    between atoms: C_6  and  N_7 
REMARK       I    between atoms: N_7  and  C_8 
REMARK    4  A    between atoms: C_8  and  C_9 
ROOT
HETATM    1  N   UNL     1      26.512  45.392  52.040  1.00  0.00    -0.353 N 
HETATM    2  C   UNL     1      26.570  45.460  50.671  1.00  0.00     0.254 C 
HETATM    3  O   UNL     1      27.273  44.726  49.983  1.00  0.00    -0.268 OA
HETATM    4  H   UNL     1      25.799  45.911  52.535  1.00  0.00     0.163 HD
ENDROOT
BRANCH   2   5
HETATM    5  C   UNL     1      25.636  46.440  50.045  1.00  0.00     0.058 A 
HETATM    6  C   UNL     1      25.979  47.769  49.498  1.00  0.00    -0.003 A 
HETATM    7  C   UNL     1      24.946  48.592  49.005  1.00  0.00     0.043 A 
HETATM    8  C   UNL     1      27.296  48.243  49.400  1.00  0.00     0.013 A 
HETATM    9  C   UNL     1      25.215  49.861  48.475  1.00  0.00     0.018 A 
HETATM   10  C   UNL     1      23.544  48.096  49.013  1.00  0.00     0.256 A 
HETATM   11  C   UNL     1      26.527  50.321  48.415  1.00  0.00     0.001 A 
HETATM   12  C   UNL     1      27.565  49.511  48.871  1.00  0.00     0.001 A 
HETATM   13  O   UNL     1      22.610  48.775  48.602  1.00  0.00    -0.267 OA
HETATM   14  N   UNL     1      23.356  46.824  49.500  1.00  0.00    -0.332 N 
HETATM   15  C   UNL     1      24.357  46.032  49.998  1.00  0.00     0.109 A 
HETATM   16  H   UNL     1      22.400  46.485  49.484  1.00  0.00     0.168 HD
ENDBRANCH   2   5
BRANCH   1  17
HETATM   17  C   UNL     1      27.202  44.345  52.763  1.00  0.00     0.161 C 
BRANCH  17  18
HETATM   18  C   UNL     1      27.929  44.863  53.978  1.00  0.00    -0.039 A 
HETATM   19  C   UNL     1      29.001  44.135  54.521  1.00  0.00     0.027 A 
HETATM   20  C   UNL     1      29.751  44.635  55.596  1.00  0.00     0.000 A 
HETATM   21  C   UNL     1      29.429  45.888  56.119  1.00  0.00     0.018 A 
HETATM   22  C   UNL     1      28.368  46.626  55.587  1.00  0.00     0.002 A 
HETATM   23  C   UNL     1      27.629  46.120  54.518  1.00  0.00     0.009 A 
BRANCH  20  24
HETATM   24  S   UNL     1      31.134  43.657  56.169  1.00  0.00    -0.134 SA
HETATM   25  C   UNL     1      31.339  44.262  57.866  1.00  0.00     0.095 C 
ENDBRANCH  20  24
ENDBRANCH  17  18
ENDBRANCH   1  17
TORSDOF 4
ENDMDL
MODEL 3
REMARK VINA RESULT:      -8.7      2.010      2.960
REMARK  4 active torsions:
REMARK  status: ('A' for Active; 'I' for Inactive)
REMARK    1  A    between atoms: S_2  and  C_3 
REMARK    2  A    between atoms: C_5  and  C_6 
REMARK    3  A    between atoms: C_6  and  N_7 
REMARK       I    between atoms: N_7  and  C_8 
REMARK    4  A    between atoms: C_8  and  C_9 
ROOT
HETATM    1  N   UNL     1      25.699  45.430  51.149  1.00  0.00    -0.353 N 
HETATM    2  C   UNL     1      25.576  44.705  52.308  1.00  0.00     0.254 C 
HETATM    3  O   UNL     1      24.660  44.854  53.110  1.00  0.00    -0.268 OA
HETATM    4  H   UNL     1      26.381  45.152  50.457  1.00  0.00     0.163 HD
ENDROOT
BRANCH   2   5
HETATM    5  C   UNL     1      26.597  43.632  52.494  1.00  0.00     0.058 A 
HETATM    6  C   UNL     1      27.783  43.679  53.374  1.00  0.00    -0.003 A 
HETATM    7  C   UNL     1      28.680  42.592  53.368  1.00  0.00     0.043 A 
HETATM    8  C   UNL     1      28.045  44.739  54.256  1.00  0.00     0.013 A 
HETATM    9  C   UNL     1      29.820  42.583  54.182  1.00  0.00     0.018 A 
HETATM   10  C   UNL     1      28.398  41.410  52.510  1.00  0.00     0.256 A 
HETATM   11  C   UNL     1      30.074  43.659  55.028  1.00  0.00     0.001 A 
HETATM   12  C   UNL     1      29.185  44.731  55.069  1.00  0.00     0.001 A 
HETATM   13  O   UNL     1      29.149  40.443  52.465  1.00  0.00    -0.267 OA
HETATM   14  N   UNL     1      27.237  41.461  51.775  1.00  0.00    -0.332 N 
HETATM   15  C   UNL     1      26.376  42.527  51.763  1.00  0.00     0.109 A 
HETATM   16  H   UNL     1      27.041  40.644  51.207  1.00  0.00     0.168 HD
ENDBRANCH   2   5
BRANCH   1  17
HETATM   17  C   UNL     1      24.663  46.353  50.737  1.00  0.00     0.161 C 
BRANCH  17  18
HETATM   18  C   UNL     1      25.197  47.485  49.897  1.00  0.00    -0.039 A 
HETATM   19  C   UNL     1      24.312  48.391  49.288  1.00  0.00     0.027 A 
HETATM   20  C   UNL     1      24.783  49.502  48.574  1.00  0.00     0.000 A 
HETATM   21  C   UNL     1      26.160  49.714  48.486  1.00  0.00     0.018 A 
HETATM   22  C   UNL     1      27.053  48.826  49.090  1.00  0.00     0.002 A 
HETATM   23  C   UNL     1      26.574  47.723  49.798  1.00  0.00     0.009 A 
BRANCH  20  24
HETATM   24  S   UNL     1      23.570  50.625  47.893  1.00  0.00    -0.134 SA
HETATM   25  C   UNL     1      22.425  50.824  49.285  1.00  0.00     0.095 C 
ENDBRANCH  20  24
ENDBRANCH  17  18
ENDBRANCH   1  17
TORSDOF 4
ENDMDL
MODEL 4
REMARK VINA RESULT:      -8.4      4.987      6.464
REMARK  4 active torsions:
REMARK  status: ('A' for Active; 'I' for Inactive)
REMARK    1  A    between atoms: S_2  and  C_3 
REMARK    2  A    between atoms: C_5  and  C_6 
REMARK    3  A    between atoms: C_6  and  N_7 
REMARK       I    between atoms: N_7  and  C_8 
REMARK    4  A    between atoms: C_8  and  C_9 
ROOT
HETATM    1  N   UNL     1      28.580  41.853  53.488  1.00  0.00    -0.353 N 
HETATM    2  C   UNL     1      29.593  42.768  53.632  1.00  0.00     0.254 C 
HETATM    3  O   UNL     1      30.678  42.675  53.067  1.00  0.00    -0.268 OA
HETATM    4  H   UNL     1      27.660  42.067  53.850  1.00  0.00     0.163 HD
ENDROOT
BRANCH   2   5
HETATM    5  C   UNL     1      29.256  43.959  54.464  1.00  0.00     0.058 A 
HETATM    6  C   UNL     1      29.864  44.340  55.757  1.00  0.00    -0.003 A 
HETATM    7  C   UNL     1      29.367  45.470  56.437  1.00  0.00     0.043 A 
HETATM    8  C   UNL     1      30.949  43.657  56.326  1.00  0.00     0.013 A 
HETATM    9  C   UNL     1      29.906  45.876  57.665  1.00  0.00     0.018 A 
HETATM   10  C   UNL     1      28.273  46.273  55.829  1.00  0.00     0.256 A 
HETATM   11  C   UNL     1      30.964  45.165  58.225  1.00  0.00     0.001 A 
HETATM   12  C   UNL     1      31.487  44.062  57.554  1.00  0.00     0.001 A 
HETATM   13  O   UNL     1      27.802  47.259  56.384  1.00  0.00    -0.267 OA
HETATM   14  N   UNL     1      27.824  45.849  54.600  1.00  0.00    -0.332 N 
HETATM   15  C   UNL     1      28.291  44.739  53.948  1.00  0.00     0.109 A 
HETATM   16  H   UNL     1      27.091  46.413  54.183  1.00  0.00     0.168 HD
ENDBRANCH   2   5
BRANCH   1  17
HETATM   17  C   UNL     1      28.691  40.763  52.542  1.00  0.00     0.161 C 
BRANCH  17  18
HETATM   18  C   UNL     1      28.157  41.122  51.179  1.00  0.00    -0.039 A 
HETATM   19  C   UNL     1      28.350  40.250  50.094  1.00  0.00     0.027 A 
HETATM   20  C   UNL     1      27.790  40.516  48.837  1.00  0.00     0.000 A 
HETATM   21  C   UNL     1      27.011  41.664  48.674  1.00  0.00     0.018 A 
HETATM   22  C   UNL     1      26.805  42.538  49.744  1.00  0.00     0.002 A 
HETATM   23  C   UNL     1      27.368  42.263  50.991  1.00  0.00     0.009 A 
BRANCH  20  24
HETATM   24  S   UNL     1      28.045  39.310  47.542  1.00  0.00    -0.134 SA
HETATM   25  C   UNL     1      27.887  37.750  48.451  1.00  0.00     0.095 C 
ENDBRANCH  20  24
ENDBRANCH  17  18
ENDBRANCH   1  17
TORSDOF 4
ENDMDL
MODEL 5
REMARK VINA RESULT:      -8.4      3.280      5.172
REMARK  4 active torsions:
REMARK  status: ('A' for Active; 'I' for Inactive)
REMARK    1  A    between atoms: S_2  and  C_3 
REMARK    2  A    between atoms: C_5  and  C_6 
REMARK    3  A    between atoms: C_6  and  N_7 
REMARK       I    between atoms: N_7  and  C_8 
REMARK    4  A    between atoms: C_8  and  C_9 
ROOT
HETATM    1  N   UNL     1      28.329  42.052  53.242  1.00  0.00    -0.353 N 
HETATM    2  C   UNL     1      29.372  42.937  53.345  1.00  0.00     0.254 C 
HETATM    3  O   UNL     1      30.349  42.927  52.603  1.00  0.00    -0.268 OA
HETATM    4  H   UNL     1      27.485  42.211  53.776  1.00  0.00     0.163 HD
ENDROOT
BRANCH   2   5
HETATM    5  C   UNL     1      29.202  43.998  54.380  1.00  0.00     0.058 A 
HETATM    6  C   UNL     1      29.977  44.153  55.629  1.00  0.00    -0.003 A 
HETATM    7  C   UNL     1      29.627  45.182  56.526  1.00  0.00     0.043 A 
HETATM    8  C   UNL     1      31.083  43.352  55.951  1.00  0.00     0.013 A 
HETATM    9  C   UNL     1      30.329  45.374  57.723  1.00  0.00     0.018 A 
HETATM   10  C   UNL     1      28.514  46.108  56.186  1.00  0.00     0.256 A 
HETATM   11  C   UNL     1      31.405  44.548  58.035  1.00  0.00     0.001 A 
HETATM   12  C   UNL     1      31.784  43.543  57.148  1.00  0.00     0.001 A 
HETATM   13  O   UNL     1      28.168  47.014  56.935  1.00  0.00    -0.267 OA
HETATM   14  N   UNL     1      27.901  45.895  54.973  1.00  0.00    -0.332 N 
HETATM   15  C   UNL     1      28.227  44.882  54.110  1.00  0.00     0.109 A 
HETATM   16  H   UNL     1      27.156  46.542  54.739  1.00  0.00     0.168 HD
ENDBRANCH   2   5
BRANCH   1  17
HETATM   17  C   UNL     1      28.260  41.107  52.147  1.00  0.00     0.161 C 
BRANCH  17  18
HETATM   18  C   UNL     1      27.162  41.434  51.168  1.00  0.00    -0.039 A 
HETATM   19  C   UNL     1      26.856  42.774  50.874  1.00  0.00     0.027 A 
HETATM   20  C   UNL     1      25.900  43.106  49.903  1.00  0.00     0.000 A 
HETATM   21  C   UNL     1      25.258  42.080  49.209  1.00  0.00     0.018 A 
HETATM   22  C   UNL     1      25.554  40.743  49.486  1.00  0.00     0.002 A 
HETATM   23  C   UNL     1      26.506  40.424  50.454  1.00  0.00     0.009 A 
BRANCH  20  24
HETATM   24  S   UNL     1      25.633  44.841  49.561  1.00  0.00    -0.134 SA
HETATM   25  C   UNL     1      26.041  45.601  51.156  1.00  0.00     0.095 C 
ENDBRANCH  20  24
ENDBRANCH  17  18
ENDBRANCH   1  17
TORSDOF 4
ENDMDL
MODEL 6
REMARK VINA RESULT:      -8.1      2.686      3.020
REMARK  4 active torsions:
REMARK  status: ('A' for Active; 'I' for Inactive)
REMARK    1  A    between atoms: S_2  and  C_3 
REMARK    2  A    between atoms: C_5  and  C_6 
REMARK    3  A    between atoms: C_6  and  N_7 
REMARK       I    between atoms: N_7  and  C_8 
REMARK    4  A    between atoms: C_8  and  C_9 
ROOT
HETATM    1  N   UNL     1      26.693  46.816  52.902  1.00  0.00    -0.353 N 
HETATM    2  C   UNL     1      26.480  46.146  54.081  1.00  0.00     0.254 C 
HETATM    3  O   UNL     1      25.370  45.801  54.475  1.00  0.00    -0.268 OA
HETATM    4  H   UNL     1      27.637  46.931  52.558  1.00  0.00     0.163 HD
ENDROOT
BRANCH   2   5
HETATM    5  C   UNL     1      27.715  45.770  54.828  1.00  0.00     0.058 A 
HETATM    6  C   UNL     1      28.664  44.689  54.487  1.00  0.00    -0.003 A 
HETATM    7  C   UNL     1      29.745  44.433  55.354  1.00  0.00     0.043 A 
HETATM    8  C   UNL     1      28.571  43.928  53.313  1.00  0.00     0.013 A 
HETATM    9  C   UNL     1      30.675  43.422  55.080  1.00  0.00     0.018 A 
HETATM   10  C   UNL     1      29.930  45.272  56.568  1.00  0.00     0.256 A 
HETATM   11  C   UNL     1      30.546  42.659  53.922  1.00  0.00     0.001 A 
HETATM   12  C   UNL     1      29.500  42.916  53.039  1.00  0.00     0.001 A 
HETATM   13  O   UNL     1      30.850  45.085  57.356  1.00  0.00    -0.267 OA
HETATM   14  N   UNL     1      29.012  46.279  56.752  1.00  0.00    -0.332 N 
HETATM   15  C   UNL     1      27.948  46.516  55.921  1.00  0.00     0.109 A 
HETATM   16  H   UNL     1      29.155  46.859  57.572  1.00  0.00     0.168 HD
ENDBRANCH   2   5
BRANCH   1  17
HETATM   17  C   UNL     1      25.608  47.055  51.975  1.00  0.00     0.161 C 
BRANCH  17  18
HETATM   18  C   UNL     1      25.417  45.918  51.003  1.00  0.00    -0.039 A 
HETATM   19  C   UNL     1      24.140  45.637  50.489  1.00  0.00     0.027 A 
HETATM   20  C   UNL     1      23.948  44.643  49.518  1.00  0.00     0.000 A 
HETATM   21  C   UNL     1      25.055  43.937  49.047  1.00  0.00     0.018 A 
HETATM   22  C   UNL     1      26.333  44.208  49.544  1.00  0.00     0.002 A 
HETATM   23  C   UNL     1      26.513  45.198  50.510  1.00  0.00     0.009 A 
BRANCH  20  24
HETATM   24  S   UNL     1      22.292  44.410  48.887  1.00  0.00    -0.134 SA
HETATM   25  C   UNL     1      22.492  44.860  47.142  1.00  0.00     0.095 C 
ENDBRANCH  20  24
ENDBRANCH  17  18
ENDBRANCH   1  17
TORSDOF 4
ENDMDL
MODEL 7
REMARK VINA RESULT:      -8.0      4.085      5.113
REMARK  4 active torsions:
REMARK  status: ('A' for Active; 'I' for Inactive)
REMARK    1  A    between atoms: S_2  and  C_3 
REMARK    2  A    between atoms: C_5  and  C_6 
REMARK    3  A    between atoms: C_6  and  N_7 
REMARK       I    between atoms: N_7  and  C_8 
REMARK    4  A    between atoms: C_8  and  C_9 
ROOT
HETATM    1  N   UNL     1      25.910  44.415  53.136  1.00  0.00    -0.353 N 
HETATM    2  C   UNL     1      26.633  45.578  53.220  1.00  0.00     0.254 C 
HETATM    3  O   UNL     1      26.464  46.539  52.476  1.00  0.00    -0.268 OA
HETATM    4  H   UNL     1      25.985  43.727  53.874  1.00  0.00     0.163 HD
ENDROOT
BRANCH   2   5
HETATM    5  C   UNL     1      27.596  45.644  54.358  1.00  0.00     0.058 A 
HETATM    6  C   UNL     1      28.754  44.756  54.593  1.00  0.00    -0.003 A 
HETATM    7  C   UNL     1      29.517  44.927  55.765  1.00  0.00     0.043 A 
HETATM    8  C   UNL     1      29.166  43.774  53.680  1.00  0.00     0.013 A 
HETATM    9  C   UNL     1      30.625  44.114  56.038  1.00  0.00     0.018 A 
HETATM   10  C   UNL     1      29.166  46.012  56.721  1.00  0.00     0.256 A 
HETATM   11  C   UNL     1      30.998  43.125  55.131  1.00  0.00     0.001 A 
HETATM   12  C   UNL     1      30.273  42.960  53.953  1.00  0.00     0.001 A 
HETATM   13  O   UNL     1      29.794  46.196  57.757  1.00  0.00    -0.267 OA
HETATM   14  N   UNL     1      28.099  46.805  56.369  1.00  0.00    -0.332 N 
HETATM   15  C   UNL     1      27.344  46.627  55.239  1.00  0.00     0.109 A 
HETATM   16  H   UNL     1      27.878  47.554  57.015  1.00  0.00     0.168 HD
ENDBRANCH   2   5
BRANCH   1  17
HETATM   17  C   UNL     1      24.796  44.296  52.219  1.00  0.00     0.161 C 
BRANCH  17  18
HETATM   18  C   UNL     1      25.042  43.272  51.140  1.00  0.00    -0.039 A 
HETATM   19  C   UNL     1      26.252  42.557  51.110  1.00  0.00     0.027 A 
HETATM   20  C   UNL     1      26.472  41.538  50.172  1.00  0.00     0.000 A 
HETATM   21  C   UNL     1      25.458  41.224  49.265  1.00  0.00     0.018 A 
HETATM   22  C   UNL     1      24.248  41.922  49.286  1.00  0.00     0.002 A 
HETATM   23  C   UNL     1      24.040  42.934  50.223  1.00  0.00     0.009 A 
BRANCH  20  24
HETATM   24  S   UNL     1      28.020  40.648  50.261  1.00  0.00    -0.134 SA
HETATM   25  C   UNL     1      28.385  40.360  48.509  1.00  0.00     0.095 C 
ENDBRANCH  20  24
ENDBRANCH  17  18
ENDBRANCH   1  17
TORSDOF 4
ENDMDL
MODEL 8
REMARK VINA RESULT:      -7.9      5.603      9.823
REMARK  4 active torsions:
REMARK  status: ('A' for Active; 'I' for Inactive)
REMARK    1  A    between atoms: S_2  and  C_3 
REMARK    2  A    between atoms: C_5  and  C_6 
REMARK    3  A    between atoms: C_6  and  N_7 
REMARK       I    between atoms: N_7  and  C_8 
REMARK    4  A    between atoms: C_8  and  C_9 
ROOT
HETATM    1  N   UNL     1      22.887  49.861  48.150  1.00  0.00    -0.353 N 
HETATM    2  C   UNL     1      22.087  50.188  49.216  1.00  0.00     0.254 C 
HETATM    3  O   UNL     1      22.455  50.893  50.151  1.00  0.00    -0.268 OA
HETATM    4  H   UNL     1      22.479  49.414  47.340  1.00  0.00     0.163 HD
ENDROOT
BRANCH   2   5
HETATM    5  C   UNL     1      20.679  49.704  49.124  1.00  0.00     0.058 A 
HETATM    6  C   UNL     1      19.464  50.531  48.968  1.00  0.00    -0.003 A 
HETATM    7  C   UNL     1      18.204  49.899  48.969  1.00  0.00     0.043 A 
HETATM    8  C   UNL     1      19.500  51.920  48.772  1.00  0.00     0.013 A 
HETATM    9  C   UNL     1      17.020  50.634  48.824  1.00  0.00     0.018 A 
HETATM   10  C   UNL     1      18.123  48.419  49.090  1.00  0.00     0.256 A 
HETATM   11  C   UNL     1      17.079  52.015  48.660  1.00  0.00     0.001 A 
HETATM   12  C   UNL     1      18.317  52.655  48.629  1.00  0.00     0.001 A 
HETATM   13  O   UNL     1      17.052  47.823  49.102  1.00  0.00    -0.267 OA
HETATM   14  N   UNL     1      19.324  47.753  49.178  1.00  0.00    -0.332 N 
HETATM   15  C   UNL     1      20.548  48.369  49.198  1.00  0.00     0.109 A 
HETATM   16  H   UNL     1      19.262  46.743  49.241  1.00  0.00     0.168 HD
ENDBRANCH   2   5
BRANCH   1  17
HETATM   17  C   UNL     1      24.205  50.440  48.003  1.00  0.00     0.161 C 
BRANCH  17  18
HETATM   18  C   UNL     1      25.283  49.588  48.624  1.00  0.00    -0.039 A 
HETATM   19  C   UNL     1      24.944  48.406  49.303  1.00  0.00     0.027 A 
HETATM   20  C   UNL     1      25.931  47.550  49.813  1.00  0.00     0.000 A 
HETATM   21  C   UNL     1      27.274  47.878  49.623  1.00  0.00     0.018 A 
HETATM   22  C   UNL     1      27.628  49.048  48.945  1.00  0.00     0.002 A 
HETATM   23  C   UNL     1      26.638  49.892  48.442  1.00  0.00     0.009 A 
BRANCH  20  24
HETATM   24  S   UNL     1      25.391  46.040  50.604  1.00  0.00    -0.134 SA
HETATM   25  C   UNL     1      24.029  45.521  49.526  1.00  0.00     0.095 C 
ENDBRANCH  20  24
ENDBRANCH  17  18
ENDBRANCH   1  17
TORSDOF 4
ENDMDL
MODEL 9
REMARK VINA RESULT:      -7.7      5.280      7.188
REMARK  4 active torsions:
REMARK  status: ('A' for Active; 'I' for Inactive)
REMARK    1  A    between atoms: S_2  and  C_3 
REMARK    2  A    between atoms: C_5  and  C_6 
REMARK    3  A    between atoms: C_6  and  N_7 
REMARK       I    between atoms: N_7  and  C_8 
REMARK    4  A    between atoms: C_8  and  C_9 
ROOT
HETATM    1  N   UNL     1      28.439  41.434  51.532  1.00  0.00    -0.353 N 
HETATM    2  C   UNL     1      28.305  41.552  52.893  1.00  0.00     0.254 C 
HETATM    3  O   UNL     1      28.374  40.603  53.668  1.00  0.00    -0.268 OA
HETATM    4  H   UNL     1      28.532  42.267  50.967  1.00  0.00     0.163 HD
ENDROOT
BRANCH   2   5
HETATM    5  C   UNL     1      28.161  42.949  53.397  1.00  0.00     0.058 A 
HETATM    6  C   UNL     1      29.023  43.630  54.385  1.00  0.00    -0.003 A 
HETATM    7  C   UNL     1      28.691  44.937  54.794  1.00  0.00     0.043 A 
HETATM    8  C   UNL     1      30.192  43.057  54.909  1.00  0.00     0.013 A 
HETATM    9  C   UNL     1      29.473  45.629  55.728  1.00  0.00     0.018 A 
HETATM   10  C   UNL     1      27.507  45.615  54.202  1.00  0.00     0.256 A 
HETATM   11  C   UNL     1      30.613  45.029  56.256  1.00  0.00     0.001 A 
HETATM   12  C   UNL     1      30.974  43.748  55.842  1.00  0.00     0.001 A 
HETATM   13  O   UNL     1      27.172  46.747  54.530  1.00  0.00    -0.267 OA
HETATM   14  N   UNL     1      26.811  44.899  53.256  1.00  0.00    -0.332 N 
HETATM   15  C   UNL     1      27.122  43.620  52.872  1.00  0.00     0.109 A 
HETATM   16  H   UNL     1      26.017  45.374  52.842  1.00  0.00     0.168 HD
ENDBRANCH   2   5
BRANCH   1  17
HETATM   17  C   UNL     1      28.799  40.169  50.927  1.00  0.00     0.161 C 
BRANCH  17  18
HETATM   18  C   UNL     1      28.402  40.090  49.475  1.00  0.00    -0.039 A 
HETATM   19  C   UNL     1      28.636  38.912  48.744  1.00  0.00     0.027 A 
HETATM   20  C   UNL     1      28.199  38.779  47.418  1.00  0.00     0.000 A 
HETATM   21  C   UNL     1      27.504  39.836  46.827  1.00  0.00     0.018 A 
HETATM   22  C   UNL     1      27.259  41.011  47.542  1.00  0.00     0.002 A 
HETATM   23  C   UNL     1      27.698  41.133  48.860  1.00  0.00     0.009 A 
BRANCH  20  24
HETATM   24  S   UNL     1      28.493  37.217  46.600  1.00  0.00    -0.134 SA
HETATM   25  C   UNL     1      28.839  37.746  44.901  1.00  0.00     0.095 C 
ENDBRANCH  20  24
ENDBRANCH  17  18
ENDBRANCH   1  17
TORSDOF 4
ENDMDL
MODEL 10
REMARK VINA RESULT:      -7.7      4.296      9.805
REMARK  4 active torsions:
REMARK  status: ('A' for Active; 'I' for Inactive)
REMARK    1  A    between atoms: S_2  and  C_3 
REMARK    2  A    between atoms: C_5  and  C_6 
REMARK    3  A    between atoms: C_6  and  N_7 
REMARK       I    between atoms: N_7  and  C_8 
REMARK    4  A    between atoms: C_8  and  C_9 
ROOT
HETATM    1  N   UNL     1      23.135  48.131  49.849  1.00  0.00    -0.353 N 
HETATM    2  C   UNL     1      22.479  48.459  48.688  1.00  0.00     0.254 C 
HETATM    3  O   UNL     1      23.047  48.660  47.620  1.00  0.00    -0.268 OA
HETATM    4  H   UNL     1      22.603  47.823  50.651  1.00  0.00     0.163 HD
ENDROOT
BRANCH   2   5
HETATM    5  C   UNL     1      20.990  48.466  48.783  1.00  0.00     0.058 A 
HETATM    6  C   UNL     1      20.108  49.651  48.799  1.00  0.00    -0.003 A 
HETATM    7  C   UNL     1      18.720  49.465  48.965  1.00  0.00     0.043 A 
HETATM    8  C   UNL     1      20.575  50.960  48.611  1.00  0.00     0.013 A 
HETATM    9  C   UNL     1      17.837  50.553  48.987  1.00  0.00     0.018 A 
HETATM   10  C   UNL     1      18.171  48.088  49.084  1.00  0.00     0.256 A 
HETATM   11  C   UNL     1      18.328  51.846  48.827  1.00  0.00     0.001 A 
HETATM   12  C   UNL     1      19.693  52.047  48.634  1.00  0.00     0.001 A 
HETATM   13  O   UNL     1      16.974  47.875  49.236  1.00  0.00    -0.267 OA
HETATM   14  N   UNL     1      19.085  47.064  49.004  1.00  0.00    -0.332 N 
HETATM   15  C   UNL     1      20.436  47.244  48.864  1.00  0.00     0.109 A 
HETATM   16  H   UNL     1      18.702  46.127  49.066  1.00  0.00     0.168 HD
ENDBRANCH   2   5
BRANCH   1  17
HETATM   17  C   UNL     1      24.561  47.879  49.852  1.00  0.00     0.161 C 
BRANCH  17  18
HETATM   18  C   UNL     1      24.952  46.785  50.812  1.00  0.00    -0.039 A 
HETATM   19  C   UNL     1      25.713  47.089  51.954  1.00  0.00     0.027 A 
HETATM   20  C   UNL     1      26.017  46.108  52.909  1.00  0.00     0.000 A 
HETATM   21  C   UNL     1      25.536  44.811  52.721  1.00  0.00     0.018 A 
HETATM   22  C   UNL     1      24.775  44.494  51.594  1.00  0.00     0.002 A 
HETATM   23  C   UNL     1      24.478  45.477  50.650  1.00  0.00     0.009 A 
BRANCH  20  24
HETATM   24  S   UNL     1      26.936  46.615  54.356  1.00  0.00    -0.134 SA
HETATM   25  C   UNL     1      27.929  45.138  54.702  1.00  0.00     0.095 C 
ENDBRANCH  20  24
ENDBRANCH  17  18
ENDBRANCH   1  17
TORSDOF 4
ENDMDL
