MODEL 1
REMARK VINA RESULT:      -8.4      0.000      0.000
REMARK  3 active torsions:
REMARK  status: ('A' for Active; 'I' for Inactive)
REMARK    1  A    between atoms: C_6  and  N_7 
REMARK       I    between atoms: N_7  and  C_8 
REMARK    2  A    between atoms: C_8  and  C_9 
REMARK    3  A    between atoms: C_9  and  C_10 
ROOT
HETATM    1  C   UNL     1      26.535  42.449  51.117  1.00  0.00     0.286 C 
HETATM    2  N   UNL     1      25.719  43.196  52.174  1.00  0.00    -0.056 N 
HETATM    3  H   UNL     1      24.884  42.624  52.356  1.00  0.00     0.278 HD
HETATM    4  H   UNL     1      26.229  43.145  53.081  1.00  0.00     0.278 HD
HETATM    5  C   UNL     1      25.263  44.587  51.855  1.00  0.00     0.209 C 
HETATM    6  C   UNL     1      24.637  44.603  50.443  1.00  0.00     0.115 C 
HETATM    7  N   UNL     1      25.529  44.014  49.449  1.00  0.00    -0.353 N 
HETATM    8  C   UNL     1      26.313  42.914  49.669  1.00  0.00     0.249 C 
HETATM    9  O   UNL     1      26.852  42.349  48.722  1.00  0.00    -0.271 OA
HETATM   10  C   UNL     1      26.411  45.585  52.006  1.00  0.00     0.035 C 
HETATM   11  C   UNL     1      25.954  46.992  51.625  1.00  0.00     0.002 C 
HETATM   12  C   UNL     1      25.371  47.030  50.214  1.00  0.00     0.002 C 
HETATM   13  C   UNL     1      24.231  46.025  50.043  1.00  0.00     0.027 C 
HETATM   14  H   UNL     1      25.366  44.205  48.461  1.00  0.00     0.163 HD
ENDROOT
BRANCH   1  15
HETATM   15  C   UNL     1      28.037  42.442  51.434  1.00  0.00     0.146 C 
BRANCH  15  16
HETATM   16  C   UNL     1      28.250  42.672  52.910  1.00  0.00     0.224 C 
HETATM   17  N   UNL     1      29.051  43.750  53.204  1.00  0.00    -0.327 N 
HETATM   18  H   UNL     1      29.392  44.315  52.432  1.00  0.00     0.169 HD
HETATM   19  O   UNL     1      27.685  41.916  53.702  1.00  0.00    -0.273 OA
BRANCH  17  20
HETATM   20  C   UNL     1      29.487  44.169  54.482  1.00  0.00     0.036 A 
HETATM   21  C   UNL     1      30.510  43.549  55.202  1.00  0.00     0.053 A 
HETATM   22  C   UNL     1      30.891  44.048  56.451  1.00  0.00     0.036 A 
HETATM   23  C   UNL     1      30.260  45.164  56.996  1.00  0.00     0.024 A 
HETATM   24 CL   UNL     1      32.160  43.276  57.323  1.00  0.00    -0.084 Cl
HETATM   25  C   UNL     1      29.237  45.786  56.287  1.00  0.00     0.004 A 
HETATM   26  C   UNL     1      28.852  45.289  55.038  1.00  0.00     0.029 A 
ENDBRANCH  17  20
ENDBRANCH  15  16
ENDBRANCH   1  15
TORSDOF 3
ENDMDL
MODEL 2
REMARK VINA RESULT:      -8.2      4.436      7.667
REMARK  3 active torsions:
REMARK  status: ('A' for Active; 'I' for Inactive)
REMARK    1  A    between atoms: C_6  and  N_7 
REMARK       I    between atoms: N_7  and  C_8 
REMARK    2  A    between atoms: C_8  and  C_9 
REMARK    3  A    between atoms: C_9  and  C_10 
ROOT
HETATM    1  C   UNL     1      25.553  44.564  50.824  1.00  0.00     0.286 C 
HETATM    2  N   UNL     1      27.070  44.752  50.790  1.00  0.00    -0.056 N 
HETATM    3  H   UNL     1      27.356  44.648  49.807  1.00  0.00     0.278 HD
HETATM    4  H   UNL     1      27.283  45.755  50.981  1.00  0.00     0.278 HD
HETATM    5  C   UNL     1      27.911  43.826  51.614  1.00  0.00     0.209 C 
HETATM    6  C   UNL     1      27.448  42.372  51.373  1.00  0.00     0.115 C 
HETATM    7  N   UNL     1      26.009  42.224  51.572  1.00  0.00    -0.353 N 
HETATM    8  C   UNL     1      25.076  43.148  51.187  1.00  0.00     0.249 C 
HETATM    9  O   UNL     1      23.886  42.848  51.178  1.00  0.00    -0.271 OA
HETATM   10  C   UNL     1      27.875  44.224  53.090  1.00  0.00     0.035 C 
HETATM   11  C   UNL     1      28.688  43.242  53.932  1.00  0.00     0.002 C 
HETATM   12  C   UNL     1      28.211  41.805  53.734  1.00  0.00     0.002 C 
HETATM   13  C   UNL     1      28.228  41.397  52.261  1.00  0.00     0.027 C 
HETATM   14  H   UNL     1      25.622  41.292  51.713  1.00  0.00     0.163 HD
ENDROOT
BRANCH   1  15
HETATM   15  C   UNL     1      24.854  45.592  51.726  1.00  0.00     0.146 C 
BRANCH  15  16
HETATM   16  C   UNL     1      24.955  46.966  51.109  1.00  0.00     0.224 C 
HETATM   17  N   UNL     1      23.915  47.285  50.269  1.00  0.00    -0.327 N 
HETATM   18  H   UNL     1      23.162  46.611  50.164  1.00  0.00     0.169 HD
HETATM   19  O   UNL     1      25.914  47.673  51.420  1.00  0.00    -0.273 OA
BRANCH  17  20
HETATM   20  C   UNL     1      23.769  48.460  49.495  1.00  0.00     0.036 A 
HETATM   21  C   UNL     1      22.589  49.200  49.409  1.00  0.00     0.053 A 
HETATM   22  C   UNL     1      22.545  50.363  48.635  1.00  0.00     0.036 A 
HETATM   23  C   UNL     1      23.670  50.801  47.941  1.00  0.00     0.024 A 
HETATM   24 CL   UNL     1      21.083  51.270  48.547  1.00  0.00    -0.084 Cl
HETATM   25  C   UNL     1      24.850  50.066  48.016  1.00  0.00     0.004 A 
HETATM   26  C   UNL     1      24.897  48.902  48.788  1.00  0.00     0.029 A 
ENDBRANCH  17  20
ENDBRANCH  15  16
ENDBRANCH   1  15
TORSDOF 3
ENDMDL
MODEL 3
REMARK VINA RESULT:      -7.8      2.233      3.160
REMARK  3 active torsions:
REMARK  status: ('A' for Active; 'I' for Inactive)
REMARK    1  A    between atoms: C_6  and  N_7 
REMARK       I    between atoms: N_7  and  C_8 
REMARK    2  A    between atoms: C_8  and  C_9 
REMARK    3  A    between atoms: C_9  and  C_10 
ROOT
HETATM    1  C   UNL     1      26.472  45.522  52.038  1.00  0.00     0.286 C 
HETATM    2  N   UNL     1      26.568  45.185  50.549  1.00  0.00    -0.056 N 
HETATM    3  H   UNL     1      27.490  45.513  50.234  1.00  0.00     0.278 HD
HETATM    4  H   UNL     1      26.652  44.151  50.449  1.00  0.00     0.278 HD
HETATM    5  C   UNL     1      25.535  45.763  49.631  1.00  0.00     0.209 C 
HETATM    6  C   UNL     1      25.379  47.270  49.931  1.00  0.00     0.115 C 
HETATM    7  N   UNL     1      25.136  47.517  51.349  1.00  0.00    -0.353 N 
HETATM    8  C   UNL     1      25.744  46.834  52.368  1.00  0.00     0.249 C 
HETATM    9  O   UNL     1      25.662  47.254  53.518  1.00  0.00    -0.271 OA
HETATM   10  C   UNL     1      24.217  44.996  49.740  1.00  0.00     0.035 C 
HETATM   11  C   UNL     1      23.152  45.625  48.844  1.00  0.00     0.002 C 
HETATM   12  C   UNL     1      22.958  47.108  49.160  1.00  0.00     0.002 C 
HETATM   13  C   UNL     1      24.271  47.885  49.069  1.00  0.00     0.027 C 
HETATM   14  H   UNL     1      24.749  48.415  51.637  1.00  0.00     0.163 HD
ENDROOT
BRANCH   1  15
HETATM   15  C   UNL     1      25.869  44.374  52.861  1.00  0.00     0.146 C 
BRANCH  15  16
HETATM   16  C   UNL     1      26.749  44.082  54.053  1.00  0.00     0.224 C 
HETATM   17  N   UNL     1      27.974  44.703  54.016  1.00  0.00    -0.327 N 
HETATM   18  H   UNL     1      28.172  45.323  53.235  1.00  0.00     0.169 HD
HETATM   19  O   UNL     1      26.299  43.358  54.942  1.00  0.00    -0.273 OA
BRANCH  17  20
HETATM   20  C   UNL     1      29.033  44.564  54.944  1.00  0.00     0.036 A 
HETATM   21  C   UNL     1      29.260  45.438  56.008  1.00  0.00     0.053 A 
HETATM   22  C   UNL     1      30.319  45.208  56.891  1.00  0.00     0.036 A 
HETATM   23  C   UNL     1      31.161  44.112  56.724  1.00  0.00     0.024 A 
HETATM   24 CL   UNL     1      30.581  46.291  58.204  1.00  0.00    -0.084 Cl
HETATM   25  C   UNL     1      30.945  43.238  55.662  1.00  0.00     0.004 A 
HETATM   26  C   UNL     1      29.888  43.465  54.777  1.00  0.00     0.029 A 
ENDBRANCH  17  20
ENDBRANCH  15  16
ENDBRANCH   1  15
TORSDOF 3
ENDMDL
MODEL 4
REMARK VINA RESULT:      -7.8     11.077     14.446
REMARK  3 active torsions:
REMARK  status: ('A' for Active; 'I' for Inactive)
REMARK    1  A    between atoms: C_6  and  N_7 
REMARK       I    between atoms: N_7  and  C_8 
REMARK    2  A    between atoms: C_8  and  C_9 
REMARK    3  A    between atoms: C_9  and  C_10 
ROOT
HETATM    1  C   UNL     1      18.496  50.446  49.339  1.00  0.00     0.286 C 
HETATM    2  N   UNL     1      19.161  50.471  47.962  1.00  0.00    -0.056 N 
HETATM    3  H   UNL     1      18.608  49.847  47.359  1.00  0.00     0.278 HD
HETATM    4  H   UNL     1      18.994  51.405  47.531  1.00  0.00     0.278 HD
HETATM    5  C   UNL     1      20.595  50.050  47.867  1.00  0.00     0.209 C 
HETATM    6  C   UNL     1      20.786  48.725  48.639  1.00  0.00     0.115 C 
HETATM    7  N   UNL     1      20.268  48.814  50.002  1.00  0.00    -0.353 N 
HETATM    8  C   UNL     1      19.119  49.470  50.350  1.00  0.00     0.249 C 
HETATM    9  O   UNL     1      18.635  49.303  51.465  1.00  0.00    -0.271 OA
HETATM   10  C   UNL     1      21.524  51.161  48.358  1.00  0.00     0.035 C 
HETATM   11  C   UNL     1      22.981  50.705  48.312  1.00  0.00     0.002 C 
HETATM   12  C   UNL     1      23.190  49.418  49.107  1.00  0.00     0.002 C 
HETATM   13  C   UNL     1      22.258  48.301  48.638  1.00  0.00     0.027 C 
HETATM   14  H   UNL     1      20.568  48.127  50.691  1.00  0.00     0.163 HD
ENDROOT
BRANCH   1  15
HETATM   15  C   UNL     1      18.392  51.845  49.965  1.00  0.00     0.146 C 
BRANCH  15  16
HETATM   16  C   UNL     1      17.140  52.532  49.477  1.00  0.00     0.224 C 
HETATM   17  N   UNL     1      16.535  53.334  50.415  1.00  0.00    -0.327 N 
HETATM   18  H   UNL     1      16.984  53.432  51.321  1.00  0.00     0.169 HD
HETATM   19  O   UNL     1      16.793  52.345  48.311  1.00  0.00    -0.273 OA
BRANCH  17  20
HETATM   20  C   UNL     1      15.318  54.043  50.279  1.00  0.00     0.036 A 
HETATM   21  C   UNL     1      15.234  55.409  50.006  1.00  0.00     0.053 A 
HETATM   22  C   UNL     1      13.985  56.021  49.865  1.00  0.00     0.036 A 
HETATM   23  C   UNL     1      12.811  55.283  49.993  1.00  0.00     0.024 A 
HETATM   24 CL   UNL     1      13.899  57.706  49.521  1.00  0.00    -0.084 Cl
HETATM   25  C   UNL     1      12.885  53.920  50.269  1.00  0.00     0.004 A 
HETATM   26  C   UNL     1      14.132  53.305  50.412  1.00  0.00     0.029 A 
ENDBRANCH  17  20
ENDBRANCH  15  16
ENDBRANCH   1  15
TORSDOF 3
ENDMDL
MODEL 5
REMARK VINA RESULT:      -7.8      6.906      9.500
REMARK  3 active torsions:
REMARK  status: ('A' for Active; 'I' for Inactive)
REMARK    1  A    between atoms: C_6  and  N_7 
REMARK       I    between atoms: N_7  and  C_8 
REMARK    2  A    between atoms: C_8  and  C_9 
REMARK    3  A    between atoms: C_9  and  C_10 
ROOT
HETATM    1  C   UNL     1      20.389  49.428  49.708  1.00  0.00     0.286 C 
HETATM    2  N   UNL     1      20.746  50.744  49.015  1.00  0.00    -0.056 N 
HETATM    3  H   UNL     1      21.356  51.260  49.662  1.00  0.00     0.278 HD
HETATM    4  H   UNL     1      21.387  50.536  48.220  1.00  0.00     0.278 HD
HETATM    5  C   UNL     1      19.624  51.654  48.616  1.00  0.00     0.209 C 
HETATM    6  C   UNL     1      18.651  51.808  49.806  1.00  0.00     0.115 C 
HETATM    7  N   UNL     1      18.225  50.512  50.328  1.00  0.00    -0.353 N 
HETATM    8  C   UNL     1      19.043  49.422  50.450  1.00  0.00     0.249 C 
HETATM    9  O   UNL     1      18.674  48.453  51.106  1.00  0.00    -0.271 OA
HETATM   10  C   UNL     1      18.936  51.148  47.348  1.00  0.00     0.035 C 
HETATM   11  C   UNL     1      17.758  52.048  46.980  1.00  0.00     0.002 C 
HETATM   12  C   UNL     1      16.766  52.175  48.135  1.00  0.00     0.002 C 
HETATM   13  C   UNL     1      17.443  52.666  49.414  1.00  0.00     0.027 C 
HETATM   14  H   UNL     1      17.394  50.463  50.914  1.00  0.00     0.163 HD
ENDROOT
BRANCH   1  15
HETATM   15  C   UNL     1      20.462  48.225  48.756  1.00  0.00     0.146 C 
BRANCH  15  16
HETATM   16  C   UNL     1      21.904  47.908  48.442  1.00  0.00     0.224 C 
HETATM   17  N   UNL     1      22.730  47.887  49.541  1.00  0.00    -0.327 N 
HETATM   18  H   UNL     1      22.313  48.041  50.454  1.00  0.00     0.169 HD
HETATM   19  O   UNL     1      22.204  47.675  47.271  1.00  0.00    -0.273 OA
BRANCH  17  20
HETATM   20  C   UNL     1      24.131  47.695  49.555  1.00  0.00     0.036 A 
HETATM   21  C   UNL     1      25.061  48.691  49.254  1.00  0.00     0.053 A 
HETATM   22  C   UNL     1      26.430  48.415  49.317  1.00  0.00     0.036 A 
HETATM   23  C   UNL     1      26.886  47.149  49.677  1.00  0.00     0.024 A 
HETATM   24 CL   UNL     1      27.565  49.657  48.951  1.00  0.00    -0.084 Cl
HETATM   25  C   UNL     1      25.966  46.148  49.974  1.00  0.00     0.004 A 
HETATM   26  C   UNL     1      24.596  46.420  49.911  1.00  0.00     0.029 A 
ENDBRANCH  17  20
ENDBRANCH  15  16
ENDBRANCH   1  15
TORSDOF 3
ENDMDL
MODEL 6
REMARK VINA RESULT:      -7.8      2.431      4.019
REMARK  3 active torsions:
REMARK  status: ('A' for Active; 'I' for Inactive)
REMARK    1  A    between atoms: C_6  and  N_7 
REMARK       I    between atoms: N_7  and  C_8 
REMARK    2  A    between atoms: C_8  and  C_9 
REMARK    3  A    between atoms: C_9  and  C_10 
ROOT
HETATM    1  C   UNL     1      26.881  41.563  51.751  1.00  0.00     0.286 C 
HETATM    2  N   UNL     1      25.771  41.178  50.771  1.00  0.00    -0.056 N 
HETATM    3  H   UNL     1      25.141  40.542  51.278  1.00  0.00     0.278 HD
HETATM    4  H   UNL     1      25.167  42.013  50.612  1.00  0.00     0.278 HD
HETATM    5  C   UNL     1      26.165  40.510  49.490  1.00  0.00     0.209 C 
HETATM    6  C   UNL     1      27.160  39.369  49.800  1.00  0.00     0.115 C 
HETATM    7  N   UNL     1      28.280  39.834  50.612  1.00  0.00    -0.353 N 
HETATM    8  C   UNL     1      28.171  40.735  51.636  1.00  0.00     0.249 C 
HETATM    9  O   UNL     1      29.109  40.895  52.410  1.00  0.00    -0.271 OA
HETATM   10  C   UNL     1      26.720  41.527  48.493  1.00  0.00     0.035 C 
HETATM   11  C   UNL     1      27.173  40.831  47.210  1.00  0.00     0.002 C 
HETATM   12  C   UNL     1      28.189  39.728  47.500  1.00  0.00     0.002 C 
HETATM   13  C   UNL     1      27.653  38.711  48.507  1.00  0.00     0.027 C 
HETATM   14  H   UNL     1      29.128  39.271  50.656  1.00  0.00     0.163 HD
ENDROOT
BRANCH   1  15
HETATM   15  C   UNL     1      27.219  43.060  51.696  1.00  0.00     0.146 C 
BRANCH  15  16
HETATM   16  C   UNL     1      27.485  43.576  53.089  1.00  0.00     0.224 C 
HETATM   17  N   UNL     1      28.809  43.843  53.348  1.00  0.00    -0.327 N 
HETATM   18  H   UNL     1      29.478  43.716  52.595  1.00  0.00     0.169 HD
HETATM   19  O   UNL     1      26.524  43.735  53.842  1.00  0.00    -0.273 OA
BRANCH  17  20
HETATM   20  C   UNL     1      29.372  44.263  54.576  1.00  0.00     0.036 A 
HETATM   21  C   UNL     1      30.383  43.575  55.250  1.00  0.00     0.053 A 
HETATM   22  C   UNL     1      30.895  44.080  56.448  1.00  0.00     0.036 A 
HETATM   23  C   UNL     1      30.411  45.268  56.987  1.00  0.00     0.024 A 
HETATM   24 CL   UNL     1      32.147  43.223  57.263  1.00  0.00    -0.084 Cl
HETATM   25  C   UNL     1      29.400  45.959  56.324  1.00  0.00     0.004 A 
HETATM   26  C   UNL     1      28.884  45.457  55.126  1.00  0.00     0.029 A 
ENDBRANCH  17  20
ENDBRANCH  15  16
ENDBRANCH   1  15
TORSDOF 3
ENDMDL
MODEL 7
REMARK VINA RESULT:      -7.7      1.656      2.566
REMARK  3 active torsions:
REMARK  status: ('A' for Active; 'I' for Inactive)
REMARK    1  A    between atoms: C_6  and  N_7 
REMARK       I    between atoms: N_7  and  C_8 
REMARK    2  A    between atoms: C_8  and  C_9 
REMARK    3  A    between atoms: C_9  and  C_10 
ROOT
HETATM    1  C   UNL     1      26.518  44.369  51.605  1.00  0.00     0.286 C 
HETATM    2  N   UNL     1      26.662  44.655  50.109  1.00  0.00    -0.056 N 
HETATM    3  H   UNL     1      27.016  45.617  50.028  1.00  0.00     0.278 HD
HETATM    4  H   UNL     1      27.458  44.091  49.740  1.00  0.00     0.278 HD
HETATM    5  C   UNL     1      25.439  44.540  49.252  1.00  0.00     0.209 C 
HETATM    6  C   UNL     1      24.273  45.293  49.931  1.00  0.00     0.115 C 
HETATM    7  N   UNL     1      24.086  44.865  51.314  1.00  0.00    -0.353 N 
HETATM    8  C   UNL     1      25.108  44.579  52.179  1.00  0.00     0.249 C 
HETATM    9  O   UNL     1      24.875  44.454  53.377  1.00  0.00    -0.271 OA
HETATM   10  C   UNL     1      25.111  43.076  48.962  1.00  0.00     0.035 C 
HETATM   11  C   UNL     1      23.832  42.964  48.135  1.00  0.00     0.002 C 
HETATM   12  C   UNL     1      22.661  43.669  48.816  1.00  0.00     0.002 C 
HETATM   13  C   UNL     1      22.979  45.131  49.127  1.00  0.00     0.027 C 
HETATM   14  H   UNL     1      23.205  45.070  51.781  1.00  0.00     0.163 HD
ENDROOT
BRANCH   1  15
HETATM   15  C   UNL     1      27.031  42.974  51.988  1.00  0.00     0.146 C 
BRANCH  15  16
HETATM   16  C   UNL     1      27.677  43.022  53.352  1.00  0.00     0.224 C 
HETATM   17  N   UNL     1      28.254  44.231  53.660  1.00  0.00    -0.327 N 
HETATM   18  H   UNL     1      28.169  44.987  52.986  1.00  0.00     0.169 HD
HETATM   19  O   UNL     1      27.611  42.018  54.061  1.00  0.00    -0.273 OA
BRANCH  17  20
HETATM   20  C   UNL     1      28.992  44.556  54.823  1.00  0.00     0.036 A 
HETATM   21  C   UNL     1      30.097  43.834  55.275  1.00  0.00     0.053 A 
HETATM   22  C   UNL     1      30.780  44.244  56.425  1.00  0.00     0.036 A 
HETATM   23  C   UNL     1      30.371  45.371  57.133  1.00  0.00     0.024 A 
HETATM   24 CL   UNL     1      32.147  43.347  56.965  1.00  0.00    -0.084 Cl
HETATM   25  C   UNL     1      29.267  46.094  56.691  1.00  0.00     0.004 A 
HETATM   26  C   UNL     1      28.581  45.687  55.543  1.00  0.00     0.029 A 
ENDBRANCH  17  20
ENDBRANCH  15  16
ENDBRANCH   1  15
TORSDOF 3
ENDMDL
MODEL 8
REMARK VINA RESULT:      -7.6      1.979      2.943
REMARK  3 active torsions:
REMARK  status: ('A' for Active; 'I' for Inactive)
REMARK    1  A    between atoms: C_6  and  N_7 
REMARK       I    between atoms: N_7  and  C_8 
REMARK    2  A    between atoms: C_8  and  C_9 
REMARK    3  A    between atoms: C_9  and  C_10 
ROOT
HETATM    1  C   UNL     1      26.423  44.059  51.647  1.00  0.00     0.286 C 
HETATM    2  N   UNL     1      25.322  43.007  51.793  1.00  0.00    -0.056 N 
HETATM    3  H   UNL     1      25.796  42.112  51.975  1.00  0.00     0.278 HD
HETATM    4  H   UNL     1      24.817  43.180  52.688  1.00  0.00     0.278 HD
HETATM    5  C   UNL     1      24.385  42.806  50.642  1.00  0.00     0.209 C 
HETATM    6  C   UNL     1      25.205  42.689  49.337  1.00  0.00     0.115 C 
HETATM    7  N   UNL     1      26.131  43.806  49.178  1.00  0.00    -0.353 N 
HETATM    8  C   UNL     1      26.842  44.372  50.201  1.00  0.00     0.249 C 
HETATM    9  O   UNL     1      27.763  45.143  49.951  1.00  0.00    -0.271 OA
HETATM   10  C   UNL     1      23.341  43.921  50.588  1.00  0.00     0.035 C 
HETATM   11  C   UNL     1      22.424  43.742  49.379  1.00  0.00     0.002 C 
HETATM   12  C   UNL     1      23.220  43.665  48.078  1.00  0.00     0.002 C 
HETATM   13  C   UNL     1      24.280  42.565  48.123  1.00  0.00     0.027 C 
HETATM   14  H   UNL     1      26.523  43.996  48.258  1.00  0.00     0.163 HD
ENDROOT
BRANCH   1  15
HETATM   15  C   UNL     1      26.088  45.365  52.383  1.00  0.00     0.146 C 
BRANCH  15  16
HETATM   16  C   UNL     1      27.037  45.556  53.542  1.00  0.00     0.224 C 
HETATM   17  N   UNL     1      28.032  44.610  53.619  1.00  0.00    -0.327 N 
HETATM   18  H   UNL     1      28.075  43.903  52.891  1.00  0.00     0.169 HD
HETATM   19  O   UNL     1      26.862  46.526  54.280  1.00  0.00    -0.273 OA
BRANCH  17  20
HETATM   20  C   UNL     1      29.016  44.484  54.627  1.00  0.00     0.036 A 
HETATM   21  C   UNL     1      29.154  45.365  55.701  1.00  0.00     0.053 A 
HETATM   22  C   UNL     1      30.144  45.146  56.664  1.00  0.00     0.036 A 
HETATM   23  C   UNL     1      31.003  44.055  56.569  1.00  0.00     0.024 A 
HETATM   24 CL   UNL     1      30.296  46.238  57.987  1.00  0.00    -0.084 Cl
HETATM   25  C   UNL     1      30.875  43.174  55.499  1.00  0.00     0.004 A 
HETATM   26  C   UNL     1      29.888  43.389  54.533  1.00  0.00     0.029 A 
ENDBRANCH  17  20
ENDBRANCH  15  16
ENDBRANCH   1  15
TORSDOF 3
ENDMDL
MODEL 9
REMARK VINA RESULT:      -7.6      6.265      8.764
REMARK  3 active torsions:
REMARK  status: ('A' for Active; 'I' for Inactive)
REMARK    1  A    between atoms: C_6  and  N_7 
REMARK       I    between atoms: N_7  and  C_8 
REMARK    2  A    between atoms: C_8  and  C_9 
REMARK    3  A    between atoms: C_9  and  C_10 
ROOT
HETATM    1  C   UNL     1      19.798  47.865  49.225  1.00  0.00     0.286 C 
HETATM    2  N   UNL     1      20.483  49.012  49.971  1.00  0.00    -0.056 N 
HETATM    3  H   UNL     1      20.474  48.759  50.968  1.00  0.00     0.278 HD
HETATM    4  H   UNL     1      21.500  48.993  49.744  1.00  0.00     0.278 HD
HETATM    5  C   UNL     1      19.896  50.384  49.838  1.00  0.00     0.209 C 
HETATM    6  C   UNL     1      18.369  50.305  50.061  1.00  0.00     0.115 C 
HETATM    7  N   UNL     1      17.750  49.295  49.208  1.00  0.00    -0.353 N 
HETATM    8  C   UNL     1      18.307  48.079  48.921  1.00  0.00     0.249 C 
HETATM    9  O   UNL     1      17.626  47.205  48.392  1.00  0.00    -0.271 OA
HETATM   10  C   UNL     1      20.268  51.009  48.494  1.00  0.00     0.035 C 
HETATM   11  C   UNL     1      19.620  52.384  48.342  1.00  0.00     0.002 C 
HETATM   12  C   UNL     1      18.105  52.312  48.519  1.00  0.00     0.002 C 
HETATM   13  C   UNL     1      17.717  51.675  49.853  1.00  0.00     0.027 C 
HETATM   14  H   UNL     1      16.743  49.327  49.054  1.00  0.00     0.163 HD
ENDROOT
BRANCH   1  15
HETATM   15  C   UNL     1      20.540  47.477  47.938  1.00  0.00     0.146 C 
BRANCH  15  16
HETATM   16  C   UNL     1      22.030  47.504  48.178  1.00  0.00     0.224 C 
HETATM   17  N   UNL     1      22.487  46.503  49.002  1.00  0.00    -0.327 N 
HETATM   18  H   UNL     1      21.815  45.821  49.343  1.00  0.00     0.169 HD
HETATM   19  O   UNL     1      22.693  48.373  47.611  1.00  0.00    -0.273 OA
BRANCH  17  20
HETATM   20  C   UNL     1      23.809  46.314  49.466  1.00  0.00     0.036 A 
HETATM   21  C   UNL     1      24.548  45.145  49.270  1.00  0.00     0.053 A 
HETATM   22  C   UNL     1      25.860  45.057  49.746  1.00  0.00     0.036 A 
HETATM   23  C   UNL     1      26.448  46.125  50.419  1.00  0.00     0.024 A 
HETATM   24 CL   UNL     1      26.760  43.612  49.489  1.00  0.00    -0.084 Cl
HETATM   25  C   UNL     1      25.717  47.292  50.622  1.00  0.00     0.004 A 
HETATM   26  C   UNL     1      24.405  47.384  50.150  1.00  0.00     0.029 A 
ENDBRANCH  17  20
ENDBRANCH  15  16
ENDBRANCH   1  15
TORSDOF 3
ENDMDL
MODEL 10
REMARK VINA RESULT:      -7.4      4.782      8.209
REMARK  3 active torsions:
REMARK  status: ('A' for Active; 'I' for Inactive)
REMARK    1  A    between atoms: C_6  and  N_7 
REMARK       I    between atoms: N_7  and  C_8 
REMARK    2  A    between atoms: C_8  and  C_9 
REMARK    3  A    between atoms: C_9  and  C_10 
ROOT
HETATM    1  C   UNL     1      24.996  45.422  51.574  1.00  0.00     0.286 C 
HETATM    2  N   UNL     1      25.266  43.927  51.753  1.00  0.00    -0.056 N 
HETATM    3  H   UNL     1      24.427  43.529  52.197  1.00  0.00     0.278 HD
HETATM    4  H   UNL     1      25.259  43.475  50.814  1.00  0.00     0.278 HD
HETATM    5  C   UNL     1      26.455  43.521  52.570  1.00  0.00     0.209 C 
HETATM    6  C   UNL     1      26.463  44.329  53.887  1.00  0.00     0.115 C 
HETATM    7  N   UNL     1      26.356  45.764  53.642  1.00  0.00    -0.353 N 
HETATM    8  C   UNL     1      25.562  46.327  52.680  1.00  0.00     0.249 C 
HETATM    9  O   UNL     1      25.353  47.536  52.692  1.00  0.00    -0.271 OA
HETATM   10  C   UNL     1      27.747  43.680  51.768  1.00  0.00     0.035 C 
HETATM   11  C   UNL     1      28.959  43.319  52.625  1.00  0.00     0.002 C 
HETATM   12  C   UNL     1      29.001  44.141  53.911  1.00  0.00     0.002 C 
HETATM   13  C   UNL     1      27.709  44.004  54.717  1.00  0.00     0.027 C 
HETATM   14  H   UNL     1      26.621  46.414  54.380  1.00  0.00     0.163 HD
ENDROOT
BRANCH   1  15
HETATM   15  C   UNL     1      25.446  45.939  50.200  1.00  0.00     0.146 C 
BRANCH  15  16
HETATM   16  C   UNL     1      24.301  46.650  49.521  1.00  0.00     0.224 C 
HETATM   17  N   UNL     1      24.313  48.016  49.676  1.00  0.00    -0.327 N 
HETATM   18  H   UNL     1      25.088  48.431  50.184  1.00  0.00     0.169 HD
HETATM   19  O   UNL     1      23.494  45.973  48.882  1.00  0.00    -0.273 OA
BRANCH  17  20
HETATM   20  C   UNL     1      23.341  48.938  49.222  1.00  0.00     0.036 A 
HETATM   21  C   UNL     1      21.969  48.684  49.207  1.00  0.00     0.053 A 
HETATM   22  C   UNL     1      21.079  49.667  48.762  1.00  0.00     0.036 A 
HETATM   23  C   UNL     1      21.543  50.906  48.328  1.00  0.00     0.024 A 
HETATM   24 CL   UNL     1      19.388  49.341  48.757  1.00  0.00    -0.084 Cl
HETATM   25  C   UNL     1      22.911  51.165  48.336  1.00  0.00     0.004 A 
HETATM   26  C   UNL     1      23.804  50.186  48.779  1.00  0.00     0.029 A 
ENDBRANCH  17  20
ENDBRANCH  15  16
ENDBRANCH   1  15
TORSDOF 3
ENDMDL
