MODEL 1
REMARK VINA RESULT:      -7.5      0.000      0.000
REMARK  3 active torsions:
REMARK  status: ('A' for Active; 'I' for Inactive)
REMARK    1  A    between atoms: C_2  and  N_3 
REMARK    2  A    between atoms: N_3  and  C_4 
REMARK    3  A    between atoms: C_12  and  C_13 
ROOT
HETATM    1  C   UNL     1      28.387  44.888  53.829  1.00  0.00     0.139 A 
HETATM    2  N   UNL     1      29.183  44.788  54.915  1.00  0.00    -0.224 NA
HETATM    3  C   UNL     1      29.014  45.630  55.943  1.00  0.00     0.236 A 
HETATM    4  N   UNL     1      28.116  46.606  56.048  1.00  0.00    -0.234 NA
HETATM    5  C   UNL     1      27.321  46.683  54.970  1.00  0.00     0.113 A 
HETATM    6  C   UNL     1      27.371  45.883  53.836  1.00  0.00     0.055 A 
HETATM    7  S   UNL     1      26.096  47.860  54.907  1.00  0.00    -0.081 SA
HETATM    8  C   UNL     1      25.584  47.328  53.372  1.00  0.00     0.062 A 
HETATM    9  C   UNL     1      26.322  46.260  52.887  1.00  0.00    -0.003 A 
ENDROOT
BRANCH   9  10
HETATM   10  C   UNL     1      26.087  45.565  51.553  1.00  0.00     0.188 C 
HETATM   11  O   UNL     1      27.017  46.029  50.553  1.00  0.00    -0.336 OA
HETATM   12  C   UNL     1      26.582  47.167  49.926  1.00  0.00     0.103 A 
HETATM   13  C   UNL     1      25.256  47.604  49.964  1.00  0.00     0.102 A 
HETATM   14  C   UNL     1      27.541  47.900  49.228  1.00  0.00     0.040 A 
HETATM   15  O   UNL     1      24.256  46.929  50.613  1.00  0.00    -0.345 OA
HETATM   16  C   UNL     1      24.898  48.796  49.337  1.00  0.00     0.039 A 
HETATM   17  C   UNL     1      24.662  45.607  50.992  1.00  0.00     0.213 C 
HETATM   18  C   UNL     1      25.859  49.538  48.650  1.00  0.00     0.003 A 
HETATM   19  C   UNL     1      27.180  49.088  48.592  1.00  0.00     0.003 A 
ENDBRANCH   9  10
BRANCH   1  20
HETATM   20  N   UNL     1      28.565  44.029  52.750  1.00  0.00    -0.366 N 
HETATM   21  H   UNL     1      29.451  44.234  52.289  1.00  0.00     0.162 HD
BRANCH  20  22
HETATM   22  C   UNL     1      28.294  42.584  52.811  1.00  0.00     0.021 C 
HETATM   23  C   UNL     1      27.329  42.220  53.948  1.00  0.00     0.037 C 
HETATM   24  C   UNL     1      29.599  41.781  52.899  1.00  0.00     0.037 C 
HETATM   25  C   UNL     1      27.596  42.223  51.480  1.00  0.00     0.037 C 
ENDBRANCH  20  22
ENDBRANCH   1  20
TORSDOF 3
ENDMDL
MODEL 2
REMARK VINA RESULT:      -7.4      3.694      6.634
REMARK  3 active torsions:
REMARK  status: ('A' for Active; 'I' for Inactive)
REMARK    1  A    between atoms: C_2  and  N_3 
REMARK    2  A    between atoms: N_3  and  C_4 
REMARK    3  A    between atoms: C_12  and  C_13 
ROOT
HETATM    1  C   UNL     1      23.339  47.021  49.378  1.00  0.00     0.139 A 
HETATM    2  N   UNL     1      22.620  48.139  49.138  1.00  0.00    -0.224 NA
HETATM    3  C   UNL     1      23.247  49.315  49.001  1.00  0.00     0.236 A 
HETATM    4  N   UNL     1      24.555  49.546  49.070  1.00  0.00    -0.234 NA
HETATM    5  C   UNL     1      25.258  48.424  49.292  1.00  0.00     0.113 A 
HETATM    6  C   UNL     1      24.754  47.140  49.449  1.00  0.00     0.055 A 
HETATM    7  S   UNL     1      26.952  48.497  49.404  1.00  0.00    -0.081 SA
HETATM    8  C   UNL     1      27.067  46.817  49.651  1.00  0.00     0.062 A 
HETATM    9  C   UNL     1      25.838  46.177  49.650  1.00  0.00    -0.003 A 
ENDROOT
BRANCH   9  10
HETATM   10  C   UNL     1      25.628  44.680  49.832  1.00  0.00     0.188 C 
HETATM   11  O   UNL     1      24.912  44.399  51.053  1.00  0.00    -0.336 OA
HETATM   12  C   UNL     1      25.746  44.315  52.137  1.00  0.00     0.103 A 
HETATM   13  C   UNL     1      27.127  44.137  52.029  1.00  0.00     0.102 A 
HETATM   14  C   UNL     1      25.149  44.420  53.392  1.00  0.00     0.040 A 
HETATM   15  O   UNL     1      27.782  44.007  50.833  1.00  0.00    -0.345 OA
HETATM   16  C   UNL     1      27.916  44.104  53.178  1.00  0.00     0.039 A 
HETATM   17  C   UNL     1      26.872  43.790  49.747  1.00  0.00     0.213 C 
HETATM   18  C   UNL     1      27.322  44.224  54.435  1.00  0.00     0.003 A 
HETATM   19  C   UNL     1      25.938  44.378  54.542  1.00  0.00     0.003 A 
ENDBRANCH   9  10
BRANCH   1  20
HETATM   20  N   UNL     1      22.696  45.798  49.537  1.00  0.00    -0.366 N 
HETATM   21  H   UNL     1      22.175  45.795  50.413  1.00  0.00     0.162 HD
BRANCH  20  22
HETATM   22  C   UNL     1      21.965  45.119  48.455  1.00  0.00     0.021 C 
HETATM   23  C   UNL     1      22.386  45.618  47.066  1.00  0.00     0.037 C 
HETATM   24  C   UNL     1      20.448  45.231  48.659  1.00  0.00     0.037 C 
HETATM   25  C   UNL     1      22.355  43.627  48.548  1.00  0.00     0.037 C 
ENDBRANCH  20  22
ENDBRANCH   1  20
TORSDOF 3
ENDMDL
MODEL 3
REMARK VINA RESULT:      -7.1     11.693     13.683
REMARK  3 active torsions:
REMARK  status: ('A' for Active; 'I' for Inactive)
REMARK    1  A    between atoms: C_2  and  N_3 
REMARK    2  A    between atoms: N_3  and  C_4 
REMARK    3  A    between atoms: C_12  and  C_13 
ROOT
HETATM    1  C   UNL     1      32.404  52.215  41.016  1.00  0.00     0.139 A 
HETATM    2  N   UNL     1      33.692  52.425  40.665  1.00  0.00    -0.224 NA
HETATM    3  C   UNL     1      34.057  52.316  39.381  1.00  0.00     0.236 A 
HETATM    4  N   UNL     1      33.280  52.014  38.344  1.00  0.00    -0.234 NA
HETATM    5  C   UNL     1      32.002  51.824  38.704  1.00  0.00     0.113 A 
HETATM    6  C   UNL     1      31.474  51.907  39.986  1.00  0.00     0.055 A 
HETATM    7  S   UNL     1      30.840  51.439  37.525  1.00  0.00    -0.081 SA
HETATM    8  C   UNL     1      29.595  51.385  38.685  1.00  0.00     0.062 A 
HETATM    9  C   UNL     1      30.031  51.659  39.971  1.00  0.00    -0.003 A 
ENDROOT
BRANCH   9  10
HETATM   10  C   UNL     1      29.146  51.697  41.208  1.00  0.00     0.188 C 
HETATM   11  O   UNL     1      29.249  50.472  41.963  1.00  0.00    -0.336 OA
HETATM   12  C   UNL     1      28.396  49.504  41.502  1.00  0.00     0.103 A 
HETATM   13  C   UNL     1      27.303  49.776  40.675  1.00  0.00     0.102 A 
HETATM   14  C   UNL     1      28.667  48.195  41.896  1.00  0.00     0.040 A 
HETATM   15  O   UNL     1      26.963  51.036  40.262  1.00  0.00    -0.345 OA
HETATM   16  C   UNL     1      26.505  48.731  40.212  1.00  0.00     0.039 A 
HETATM   17  C   UNL     1      27.669  52.047  40.993  1.00  0.00     0.213 C 
HETATM   18  C   UNL     1      26.784  47.418  40.594  1.00  0.00     0.003 A 
HETATM   19  C   UNL     1      27.863  47.151  41.440  1.00  0.00     0.003 A 
ENDBRANCH   9  10
BRANCH   1  20
HETATM   20  N   UNL     1      32.019  52.310  42.349  1.00  0.00    -0.366 N 
HETATM   21  H   UNL     1      31.002  52.330  42.412  1.00  0.00     0.162 HD
BRANCH  20  22
HETATM   22  C   UNL     1      32.627  51.514  43.428  1.00  0.00     0.021 C 
HETATM   23  C   UNL     1      32.146  51.954  44.818  1.00  0.00     0.037 C 
HETATM   24  C   UNL     1      34.158  51.530  43.329  1.00  0.00     0.037 C 
HETATM   25  C   UNL     1      32.145  50.063  43.211  1.00  0.00     0.037 C 
ENDBRANCH  20  22
ENDBRANCH   1  20
TORSDOF 3
ENDMDL
MODEL 4
REMARK VINA RESULT:      -7.0     13.111     15.197
REMARK  3 active torsions:
REMARK  status: ('A' for Active; 'I' for Inactive)
REMARK    1  A    between atoms: C_2  and  N_3 
REMARK    2  A    between atoms: N_3  and  C_4 
REMARK    3  A    between atoms: C_12  and  C_13 
ROOT
HETATM    1  C   UNL     1      30.749  50.846  39.507  1.00  0.00     0.139 A 
HETATM    2  N   UNL     1      29.805  50.339  38.686  1.00  0.00    -0.224 NA
HETATM    3  C   UNL     1      29.657  49.012  38.585  1.00  0.00     0.236 A 
HETATM    4  N   UNL     1      30.350  48.071  39.221  1.00  0.00    -0.234 NA
HETATM    5  C   UNL     1      31.272  48.590  40.046  1.00  0.00     0.113 A 
HETATM    6  C   UNL     1      31.539  49.936  40.261  1.00  0.00     0.055 A 
HETATM    7  S   UNL     1      32.260  47.556  40.965  1.00  0.00    -0.081 SA
HETATM    8  C   UNL     1      33.064  48.871  41.688  1.00  0.00     0.062 A 
HETATM    9  C   UNL     1      32.601  50.103  41.254  1.00  0.00    -0.003 A 
ENDROOT
BRANCH   9  10
HETATM   10  C   UNL     1      33.117  51.452  41.732  1.00  0.00     0.188 C 
HETATM   11  O   UNL     1      33.695  52.205  40.646  1.00  0.00    -0.336 OA
HETATM   12  C   UNL     1      35.010  51.887  40.434  1.00  0.00     0.103 A 
HETATM   13  C   UNL     1      35.799  51.220  41.375  1.00  0.00     0.102 A 
HETATM   14  C   UNL     1      35.553  52.261  39.206  1.00  0.00     0.040 A 
HETATM   15  O   UNL     1      35.342  50.837  42.609  1.00  0.00    -0.345 OA
HETATM   16  C   UNL     1      37.118  50.892  41.070  1.00  0.00     0.039 A 
HETATM   17  C   UNL     1      34.082  51.443  42.923  1.00  0.00     0.213 C 
HETATM   18  C   UNL     1      37.659  51.253  39.835  1.00  0.00     0.003 A 
HETATM   19  C   UNL     1      36.877  51.942  38.904  1.00  0.00     0.003 A 
ENDBRANCH   9  10
BRANCH   1  20
HETATM   20  N   UNL     1      30.922  52.224  39.607  1.00  0.00    -0.366 N 
HETATM   21  H   UNL     1      31.165  52.606  38.694  1.00  0.00     0.162 HD
BRANCH  20  22
HETATM   22  C   UNL     1      30.007  53.103  40.352  1.00  0.00     0.021 C 
HETATM   23  C   UNL     1      29.422  52.417  41.594  1.00  0.00     0.037 C 
HETATM   24  C   UNL     1      28.903  53.652  39.438  1.00  0.00     0.037 C 
HETATM   25  C   UNL     1      30.863  54.293  40.841  1.00  0.00     0.037 C 
ENDBRANCH  20  22
ENDBRANCH   1  20
TORSDOF 3
ENDMDL
MODEL 5
REMARK VINA RESULT:      -6.9     11.503     13.552
REMARK  3 active torsions:
REMARK  status: ('A' for Active; 'I' for Inactive)
REMARK    1  A    between atoms: C_2  and  N_3 
REMARK    2  A    between atoms: N_3  and  C_4 
REMARK    3  A    between atoms: C_12  and  C_13 
ROOT
HETATM    1  C   UNL     1      30.266  50.771  41.219  1.00  0.00     0.139 A 
HETATM    2  N   UNL     1      30.739  51.647  42.132  1.00  0.00    -0.224 NA
HETATM    3  C   UNL     1      31.807  51.324  42.872  1.00  0.00     0.236 A 
HETATM    4  N   UNL     1      32.508  50.195  42.828  1.00  0.00    -0.234 NA
HETATM    5  C   UNL     1      32.038  49.340  41.906  1.00  0.00     0.113 A 
HETATM    6  C   UNL     1      30.951  49.535  41.064  1.00  0.00     0.055 A 
HETATM    7  S   UNL     1      32.801  47.838  41.680  1.00  0.00    -0.081 SA
HETATM    8  C   UNL     1      31.713  47.407  40.443  1.00  0.00     0.062 A 
HETATM    9  C   UNL     1      30.766  48.383  40.179  1.00  0.00    -0.003 A 
ENDROOT
BRANCH   9  10
HETATM   10  C   UNL     1      29.677  48.286  39.121  1.00  0.00     0.188 C 
HETATM   11  O   UNL     1      28.364  48.346  39.716  1.00  0.00    -0.336 OA
HETATM   12  C   UNL     1      27.928  47.118  40.138  1.00  0.00     0.103 A 
HETATM   13  C   UNL     1      28.493  45.914  39.708  1.00  0.00     0.102 A 
HETATM   14  C   UNL     1      26.868  47.109  41.043  1.00  0.00     0.040 A 
HETATM   15  O   UNL     1      29.522  45.842  38.808  1.00  0.00    -0.345 OA
HETATM   16  C   UNL     1      28.022  44.705  40.216  1.00  0.00     0.039 A 
HETATM   17  C   UNL     1      29.752  47.097  38.156  1.00  0.00     0.213 C 
HETATM   18  C   UNL     1      26.971  44.695  41.134  1.00  0.00     0.003 A 
HETATM   19  C   UNL     1      26.391  45.898  41.544  1.00  0.00     0.003 A 
ENDBRANCH   9  10
BRANCH   1  20
HETATM   20  N   UNL     1      29.148  51.091  40.456  1.00  0.00    -0.366 N 
HETATM   21  H   UNL     1      28.353  51.270  41.069  1.00  0.00     0.162 HD
BRANCH  20  22
HETATM   22  C   UNL     1      29.185  52.016  39.312  1.00  0.00     0.021 C 
HETATM   23  C   UNL     1      30.412  51.788  38.418  1.00  0.00     0.037 C 
HETATM   24  C   UNL     1      29.090  53.475  39.778  1.00  0.00     0.037 C 
HETATM   25  C   UNL     1      27.932  51.698  38.466  1.00  0.00     0.037 C 
ENDBRANCH  20  22
ENDBRANCH   1  20
TORSDOF 3
ENDMDL
MODEL 6
REMARK VINA RESULT:      -6.8     16.178     18.155
REMARK  3 active torsions:
REMARK  status: ('A' for Active; 'I' for Inactive)
REMARK    1  A    between atoms: C_2  and  N_3 
REMARK    2  A    between atoms: N_3  and  C_4 
REMARK    3  A    between atoms: C_12  and  C_13 
ROOT
HETATM    1  C   UNL     1      38.455  46.635  64.949  1.00  0.00     0.139 A 
HETATM    2  N   UNL     1      38.830  47.932  64.949  1.00  0.00    -0.224 NA
HETATM    3  C   UNL     1      40.118  48.251  64.768  1.00  0.00     0.236 A 
HETATM    4  N   UNL     1      41.137  47.418  64.574  1.00  0.00    -0.234 NA
HETATM    5  C   UNL     1      40.747  46.134  64.560  1.00  0.00     0.113 A 
HETATM    6  C   UNL     1      39.456  45.650  64.728  1.00  0.00     0.055 A 
HETATM    7  S   UNL     1      41.896  44.905  64.315  1.00  0.00    -0.081 SA
HETATM    8  C   UNL     1      40.705  43.692  64.410  1.00  0.00     0.062 A 
HETATM    9  C   UNL     1      39.430  44.190  64.623  1.00  0.00    -0.003 A 
ENDROOT
BRANCH   9  10
HETATM   10  C   UNL     1      38.167  43.349  64.737  1.00  0.00     0.188 C 
HETATM   11  O   UNL     1      38.429  42.103  65.415  1.00  0.00    -0.336 OA
HETATM   12  C   UNL     1      38.882  41.132  64.561  1.00  0.00     0.103 A 
HETATM   13  C   UNL     1      38.743  41.205  63.173  1.00  0.00     0.102 A 
HETATM   14  C   UNL     1      39.511  40.032  65.144  1.00  0.00     0.040 A 
HETATM   15  O   UNL     1      38.121  42.243  62.530  1.00  0.00    -0.345 OA
HETATM   16  C   UNL     1      39.268  40.197  62.367  1.00  0.00     0.039 A 
HETATM   17  C   UNL     1      37.396  43.078  63.441  1.00  0.00     0.213 C 
HETATM   18  C   UNL     1      39.911  39.103  62.948  1.00  0.00     0.003 A 
HETATM   19  C   UNL     1      40.028  39.019  64.337  1.00  0.00     0.003 A 
ENDBRANCH   9  10
BRANCH   1  20
HETATM   20  N   UNL     1      37.122  46.293  65.153  1.00  0.00    -0.366 N 
HETATM   21  H   UNL     1      36.882  45.486  64.578  1.00  0.00     0.162 HD
BRANCH  20  22
HETATM   22  C   UNL     1      36.494  46.233  66.483  1.00  0.00     0.021 C 
HETATM   23  C   UNL     1      37.528  46.264  67.617  1.00  0.00     0.037 C 
HETATM   24  C   UNL     1      35.565  45.017  66.600  1.00  0.00     0.037 C 
HETATM   25  C   UNL     1      35.634  47.510  66.607  1.00  0.00     0.037 C 
ENDBRANCH  20  22
ENDBRANCH   1  20
TORSDOF 3
ENDMDL
MODEL 7
REMARK VINA RESULT:      -6.7     12.499     14.116
REMARK  3 active torsions:
REMARK  status: ('A' for Active; 'I' for Inactive)
REMARK    1  A    between atoms: C_2  and  N_3 
REMARK    2  A    between atoms: N_3  and  C_4 
REMARK    3  A    between atoms: C_12  and  C_13 
ROOT
HETATM    1  C   UNL     1      31.562  51.792  41.104  1.00  0.00     0.139 A 
HETATM    2  N   UNL     1      31.570  53.080  41.511  1.00  0.00    -0.224 NA
HETATM    3  C   UNL     1      30.735  53.961  40.945  1.00  0.00     0.236 A 
HETATM    4  N   UNL     1      29.844  53.727  39.985  1.00  0.00    -0.234 NA
HETATM    5  C   UNL     1      29.834  52.441  39.603  1.00  0.00     0.113 A 
HETATM    6  C   UNL     1      30.632  51.417  40.096  1.00  0.00     0.055 A 
HETATM    7  S   UNL     1      28.759  51.928  38.391  1.00  0.00    -0.081 SA
HETATM    8  C   UNL     1      29.313  50.321  38.498  1.00  0.00     0.062 A 
HETATM    9  C   UNL     1      30.309  50.146  39.444  1.00  0.00    -0.003 A 
ENDROOT
BRANCH   9  10
HETATM   10  C   UNL     1      30.986  48.823  39.772  1.00  0.00     0.188 C 
HETATM   11  O   UNL     1      30.729  47.838  38.749  1.00  0.00    -0.336 OA
HETATM   12  C   UNL     1      29.549  47.174  38.952  1.00  0.00     0.103 A 
HETATM   13  C   UNL     1      28.874  47.165  40.176  1.00  0.00     0.102 A 
HETATM   14  C   UNL     1      29.024  46.486  37.859  1.00  0.00     0.040 A 
HETATM   15  O   UNL     1      29.336  47.800  41.298  1.00  0.00    -0.345 OA
HETATM   16  C   UNL     1      27.655  46.501  40.293  1.00  0.00     0.039 A 
HETATM   17  C   UNL     1      30.698  48.221  41.152  1.00  0.00     0.213 C 
HETATM   18  C   UNL     1      27.121  45.824  39.195  1.00  0.00     0.003 A 
HETATM   19  C   UNL     1      27.808  45.813  37.979  1.00  0.00     0.003 A 
ENDBRANCH   9  10
BRANCH   1  20
HETATM   20  N   UNL     1      32.437  50.874  41.674  1.00  0.00    -0.366 N 
HETATM   21  H   UNL     1      32.044  49.936  41.607  1.00  0.00     0.162 HD
BRANCH  20  22
HETATM   22  C   UNL     1      33.890  50.884  41.439  1.00  0.00     0.021 C 
HETATM   23  C   UNL     1      34.666  51.502  42.610  1.00  0.00     0.037 C 
HETATM   24  C   UNL     1      34.228  51.576  40.111  1.00  0.00     0.037 C 
HETATM   25  C   UNL     1      34.316  49.403  41.332  1.00  0.00     0.037 C 
ENDBRANCH  20  22
ENDBRANCH   1  20
TORSDOF 3
ENDMDL
MODEL 8
REMARK VINA RESULT:      -6.7      4.175      6.704
REMARK  3 active torsions:
REMARK  status: ('A' for Active; 'I' for Inactive)
REMARK    1  A    between atoms: C_2  and  N_3 
REMARK    2  A    between atoms: N_3  and  C_4 
REMARK    3  A    between atoms: C_12  and  C_13 
ROOT
HETATM    1  C   UNL     1      25.083  41.375  47.985  1.00  0.00     0.139 A 
HETATM    2  N   UNL     1      24.223  40.499  47.422  1.00  0.00    -0.224 NA
HETATM    3  C   UNL     1      22.909  40.620  47.650  1.00  0.00     0.236 A 
HETATM    4  N   UNL     1      22.299  41.539  48.394  1.00  0.00    -0.234 NA
HETATM    5  C   UNL     1      23.164  42.413  48.932  1.00  0.00     0.113 A 
HETATM    6  C   UNL     1      24.545  42.420  48.785  1.00  0.00     0.055 A 
HETATM    7  S   UNL     1      22.589  43.677  49.912  1.00  0.00    -0.081 SA
HETATM    8  C   UNL     1      24.161  44.281  50.157  1.00  0.00     0.062 A 
HETATM    9  C   UNL     1      25.139  43.546  49.506  1.00  0.00    -0.003 A 
ENDROOT
BRANCH   9  10
HETATM   10  C   UNL     1      26.629  43.854  49.529  1.00  0.00     0.188 C 
HETATM   11  O   UNL     1      27.351  42.884  50.316  1.00  0.00    -0.336 OA
HETATM   12  C   UNL     1      27.363  43.201  51.649  1.00  0.00     0.103 A 
HETATM   13  C   UNL     1      27.063  44.475  52.137  1.00  0.00     0.102 A 
HETATM   14  C   UNL     1      27.694  42.174  52.531  1.00  0.00     0.040 A 
HETATM   15  O   UNL     1      26.748  45.538  51.332  1.00  0.00    -0.345 OA
HETATM   16  C   UNL     1      27.055  44.710  53.510  1.00  0.00     0.039 A 
HETATM   17  C   UNL     1      27.038  45.269  49.954  1.00  0.00     0.213 C 
HETATM   18  C   UNL     1      27.371  43.679  54.396  1.00  0.00     0.003 A 
HETATM   19  C   UNL     1      27.696  42.412  53.906  1.00  0.00     0.003 A 
ENDBRANCH   9  10
BRANCH   1  20
HETATM   20  N   UNL     1      26.452  41.247  47.767  1.00  0.00    -0.366 N 
HETATM   21  H   UNL     1      26.924  42.109  48.038  1.00  0.00     0.162 HD
BRANCH  20  22
HETATM   22  C   UNL     1      27.223  40.050  48.138  1.00  0.00     0.021 C 
HETATM   23  C   UNL     1      27.145  38.952  47.068  1.00  0.00     0.037 C 
HETATM   24  C   UNL     1      26.800  39.526  49.516  1.00  0.00     0.037 C 
HETATM   25  C   UNL     1      28.698  40.504  48.226  1.00  0.00     0.037 C 
ENDBRANCH  20  22
ENDBRANCH   1  20
TORSDOF 3
ENDMDL
MODEL 9
REMARK VINA RESULT:      -6.7      5.368      7.676
REMARK  3 active torsions:
REMARK  status: ('A' for Active; 'I' for Inactive)
REMARK    1  A    between atoms: C_2  and  N_3 
REMARK    2  A    between atoms: N_3  and  C_4 
REMARK    3  A    between atoms: C_12  and  C_13 
ROOT
HETATM    1  C   UNL     1      23.188  46.715  49.264  1.00  0.00     0.139 A 
HETATM    2  N   UNL     1      24.366  46.286  49.767  1.00  0.00    -0.224 NA
HETATM    3  C   UNL     1      25.409  47.124  49.823  1.00  0.00     0.236 A 
HETATM    4  N   UNL     1      25.446  48.395  49.431  1.00  0.00    -0.234 NA
HETATM    5  C   UNL     1      24.265  48.812  48.948  1.00  0.00     0.113 A 
HETATM    6  C   UNL     1      23.099  48.067  48.832  1.00  0.00     0.055 A 
HETATM    7  S   UNL     1      24.094  50.412  48.401  1.00  0.00    -0.081 SA
HETATM    8  C   UNL     1      22.457  50.165  48.006  1.00  0.00     0.062 A 
HETATM    9  C   UNL     1      22.014  48.881  48.282  1.00  0.00    -0.003 A 
ENDROOT
BRANCH   9  10
HETATM   10  C   UNL     1      20.599  48.372  48.049  1.00  0.00     0.188 C 
HETATM   11  O   UNL     1      19.848  49.279  47.216  1.00  0.00    -0.336 OA
HETATM   12  C   UNL     1      19.263  50.285  47.938  1.00  0.00     0.103 A 
HETATM   13  C   UNL     1      19.085  50.232  49.323  1.00  0.00     0.102 A 
HETATM   14  C   UNL     1      18.839  51.403  47.221  1.00  0.00     0.040 A 
HETATM   15  O   UNL     1      19.458  49.161  50.092  1.00  0.00    -0.345 OA
HETATM   16  C   UNL     1      18.520  51.314  49.994  1.00  0.00     0.039 A 
HETATM   17  C   UNL     1      19.778  48.015  49.293  1.00  0.00     0.213 C 
HETATM   18  C   UNL     1      18.109  52.440  49.280  1.00  0.00     0.003 A 
HETATM   19  C   UNL     1      18.265  52.483  47.893  1.00  0.00     0.003 A 
ENDBRANCH   9  10
BRANCH   1  20
HETATM   20  N   UNL     1      22.103  45.847  49.187  1.00  0.00    -0.366 N 
HETATM   21  H   UNL     1      21.246  46.346  49.421  1.00  0.00     0.162 HD
BRANCH  20  22
HETATM   22  C   UNL     1      21.906  44.892  48.085  1.00  0.00     0.021 C 
HETATM   23  C   UNL     1      22.667  45.301  46.816  1.00  0.00     0.037 C 
HETATM   24  C   UNL     1      20.413  44.676  47.802  1.00  0.00     0.037 C 
HETATM   25  C   UNL     1      22.503  43.552  48.569  1.00  0.00     0.037 C 
ENDBRANCH  20  22
ENDBRANCH   1  20
TORSDOF 3
ENDMDL
MODEL 10
REMARK VINA RESULT:      -6.5      4.000      6.488
REMARK  3 active torsions:
REMARK  status: ('A' for Active; 'I' for Inactive)
REMARK    1  A    between atoms: C_2  and  N_3 
REMARK    2  A    between atoms: N_3  and  C_4 
REMARK    3  A    between atoms: C_12  and  C_13 
ROOT
HETATM    1  C   UNL     1      26.786  43.979  51.842  1.00  0.00     0.139 A 
HETATM    2  N   UNL     1      26.137  44.930  52.549  1.00  0.00    -0.224 NA
HETATM    3  C   UNL     1      24.828  45.131  52.345  1.00  0.00     0.236 A 
HETATM    4  N   UNL     1      24.034  44.484  51.496  1.00  0.00    -0.234 NA
HETATM    5  C   UNL     1      24.688  43.532  50.814  1.00  0.00     0.113 A 
HETATM    6  C   UNL     1      26.034  43.204  50.918  1.00  0.00     0.055 A 
HETATM    7  S   UNL     1      23.852  42.578  49.682  1.00  0.00    -0.081 SA
HETATM    8  C   UNL     1      25.255  41.690  49.307  1.00  0.00     0.062 A 
HETATM    9  C   UNL     1      26.369  42.092  50.026  1.00  0.00    -0.003 A 
ENDROOT
BRANCH   9  10
HETATM   10  C   UNL     1      27.755  41.475  49.915  1.00  0.00     0.188 C 
HETATM   11  O   UNL     1      28.216  41.469  48.548  1.00  0.00    -0.336 OA
HETATM   12  C   UNL     1      27.778  40.371  47.857  1.00  0.00     0.103 A 
HETATM   13  C   UNL     1      27.284  39.220  48.477  1.00  0.00     0.102 A 
HETATM   14  C   UNL     1      27.842  40.443  46.466  1.00  0.00     0.040 A 
HETATM   15  O   UNL     1      27.210  39.069  49.837  1.00  0.00    -0.345 OA
HETATM   16  C   UNL     1      26.817  38.159  47.705  1.00  0.00     0.039 A 
HETATM   17  C   UNL     1      27.946  40.084  50.530  1.00  0.00     0.213 C 
HETATM   18  C   UNL     1      26.866  38.236  46.312  1.00  0.00     0.003 A 
HETATM   19  C   UNL     1      27.382  39.376  45.693  1.00  0.00     0.003 A 
ENDBRANCH   9  10
BRANCH   1  20
HETATM   20  N   UNL     1      28.148  43.774  52.035  1.00  0.00    -0.366 N 
HETATM   21  H   UNL     1      28.670  44.576  51.683  1.00  0.00     0.162 HD
BRANCH  20  22
HETATM   22  C   UNL     1      28.720  43.246  53.284  1.00  0.00     0.021 C 
HETATM   23  C   UNL     1      27.954  42.020  53.802  1.00  0.00     0.037 C 
HETATM   24  C   UNL     1      28.819  44.342  54.353  1.00  0.00     0.037 C 
HETATM   25  C   UNL     1      30.152  42.782  52.935  1.00  0.00     0.037 C 
ENDBRANCH  20  22
ENDBRANCH   1  20
TORSDOF 3
ENDMDL
