MODEL 1
REMARK VINA RESULT:      -9.3      0.000      0.000
REMARK  6 active torsions:
REMARK  status: ('A' for Active; 'I' for Inactive)
REMARK    1  A    between atoms: C_2  and  C_3 
REMARK    2  A    between atoms: C_3  and  C_4 
REMARK    3  A    between atoms: C_3  and  C_10 
REMARK    4  A    between atoms: C_10  and  C_11 
REMARK       I    between atoms: C_11  and  N_12 
REMARK    5  A    between atoms: N_12  and  C_13 
REMARK    6  A    between atoms: C_15  and  C_16 
ROOT
HETATM    1  C   UNL     1      27.105  44.981  53.592  1.00  0.00     0.223 C 
HETATM    2  N   UNL     1      26.850  44.702  52.266  1.00  0.00    -0.327 N 
HETATM    3  O   UNL     1      26.693  45.967  54.200  1.00  0.00    -0.273 OA
HETATM    4  H   UNL     1      27.322  43.904  51.864  1.00  0.00     0.169 HD
ENDROOT
BRANCH   2   5
HETATM    5  C   UNL     1      26.091  45.458  51.347  1.00  0.00     0.035 A 
HETATM    6  C   UNL     1      26.552  46.615  50.712  1.00  0.00     0.042 A 
HETATM    7  C   UNL     1      25.733  47.324  49.815  1.00  0.00    -0.021 A 
HETATM    8  C   UNL     1      24.443  46.844  49.553  1.00  0.00     0.012 A 
HETATM    9  C   UNL     1      23.974  45.691  50.183  1.00  0.00     0.003 A 
HETATM   10  C   UNL     1      24.793  45.007  51.081  1.00  0.00     0.029 A 
BRANCH   7  11
HETATM   11  C   UNL     1      26.228  48.532  49.176  1.00  0.00     0.010 A 
HETATM   12  C   UNL     1      25.566  49.495  48.374  1.00  0.00     0.152 A 
HETATM   13  N   UNL     1      26.381  50.467  47.953  1.00  0.00    -0.187 NA
HETATM   14  N   UNL     1      27.570  50.126  48.471  1.00  0.00    -0.289 N 
HETATM   15  H   UNL     1      28.368  50.721  48.275  1.00  0.00     0.188 HD
HETATM   16  C   UNL     1      27.533  48.979  49.211  1.00  0.00     0.123 A 
ENDBRANCH   7  11
ENDBRANCH   2   5
BRANCH   1  17
HETATM   17  C   UNL     1      27.882  43.911  54.359  1.00  0.00     0.116 C 
BRANCH  17  18
HETATM   18  C   UNL     1      29.424  43.976  54.373  1.00  0.00     0.049 C 
BRANCH  18  19
HETATM   19  C   UNL     1      29.976  42.826  53.541  1.00  0.00    -0.027 C 
HETATM   20  C   UNL     1      29.294  41.858  52.912  1.00  0.00     0.007 C 
ENDBRANCH  18  19
BRANCH  18  21
HETATM   21  C   UNL     1      30.107  44.240  55.723  1.00  0.00    -0.050 A 
HETATM   22  C   UNL     1      31.111  43.378  56.201  1.00  0.00     0.008 A 
HETATM   23  C   UNL     1      31.758  43.614  57.418  1.00  0.00     0.001 A 
HETATM   24  C   UNL     1      31.439  44.738  58.172  1.00  0.00     0.000 A 
HETATM   25  C   UNL     1      30.487  45.633  57.699  1.00  0.00     0.001 A 
HETATM   26  C   UNL     1      29.838  45.394  56.483  1.00  0.00     0.008 A 
ENDBRANCH  18  21
ENDBRANCH  17  18
ENDBRANCH   1  17
TORSDOF 6
ENDMDL
MODEL 2
REMARK VINA RESULT:      -8.7      1.706      2.436
REMARK  6 active torsions:
REMARK  status: ('A' for Active; 'I' for Inactive)
REMARK    1  A    between atoms: C_2  and  C_3 
REMARK    2  A    between atoms: C_3  and  C_4 
REMARK    3  A    between atoms: C_3  and  C_10 
REMARK    4  A    between atoms: C_10  and  C_11 
REMARK       I    between atoms: C_11  and  N_12 
REMARK    5  A    between atoms: N_12  and  C_13 
REMARK    6  A    between atoms: C_15  and  C_16 
ROOT
HETATM    1  C   UNL     1      26.444  47.196  53.692  1.00  0.00     0.223 C 
HETATM    2  N   UNL     1      26.529  46.535  52.486  1.00  0.00    -0.327 N 
HETATM    3  O   UNL     1      25.488  47.878  54.061  1.00  0.00    -0.273 OA
HETATM    4  H   UNL     1      27.406  46.083  52.269  1.00  0.00     0.169 HD
ENDROOT
BRANCH   2   5
HETATM    5  C   UNL     1      25.577  46.496  51.444  1.00  0.00     0.035 A 
HETATM    6  C   UNL     1      25.276  47.580  50.614  1.00  0.00     0.042 A 
HETATM    7  C   UNL     1      24.305  47.469  49.603  1.00  0.00    -0.021 A 
HETATM    8  C   UNL     1      23.647  46.245  49.428  1.00  0.00     0.012 A 
HETATM    9  C   UNL     1      23.940  45.159  50.252  1.00  0.00     0.003 A 
HETATM   10  C   UNL     1      24.895  45.288  51.260  1.00  0.00     0.029 A 
BRANCH   7  11
HETATM   11  C   UNL     1      23.999  48.614  48.760  1.00  0.00     0.010 A 
HETATM   12  C   UNL     1      24.842  49.612  48.211  1.00  0.00     0.152 A 
HETATM   13  N   UNL     1      24.171  50.519  47.493  1.00  0.00    -0.187 NA
HETATM   14  N   UNL     1      22.896  50.114  47.590  1.00  0.00    -0.289 N 
HETATM   15  H   UNL     1      22.182  50.665  47.125  1.00  0.00     0.188 HD
HETATM   16  C   UNL     1      22.739  48.981  48.334  1.00  0.00     0.123 A 
ENDBRANCH   7  11
ENDBRANCH   2   5
BRANCH   1  17
HETATM   17  C   UNL     1      27.603  46.963  54.661  1.00  0.00     0.116 C 
BRANCH  17  18
HETATM   18  C   UNL     1      28.152  45.530  54.835  1.00  0.00     0.049 C 
BRANCH  18  19
HETATM   19  C   UNL     1      26.988  44.548  54.811  1.00  0.00    -0.027 C 
HETATM   20  C   UNL     1      26.955  43.317  54.282  1.00  0.00     0.007 C 
ENDBRANCH  18  19
BRANCH  18  21
HETATM   21  C   UNL     1      29.218  45.310  55.918  1.00  0.00    -0.050 A 
HETATM   22  C   UNL     1      29.145  45.991  57.148  1.00  0.00     0.008 A 
HETATM   23  C   UNL     1      30.095  45.788  58.153  1.00  0.00     0.001 A 
HETATM   24  C   UNL     1      31.124  44.873  57.967  1.00  0.00     0.000 A 
HETATM   25  C   UNL     1      31.193  44.150  56.781  1.00  0.00     0.001 A 
HETATM   26  C   UNL     1      30.243  44.356  55.775  1.00  0.00     0.008 A 
ENDBRANCH  18  21
ENDBRANCH  17  18
ENDBRANCH   1  17
TORSDOF 6
ENDMDL
MODEL 3
REMARK VINA RESULT:      -8.6      2.336      3.537
REMARK  6 active torsions:
REMARK  status: ('A' for Active; 'I' for Inactive)
REMARK    1  A    between atoms: C_2  and  C_3 
REMARK    2  A    between atoms: C_3  and  C_4 
REMARK    3  A    between atoms: C_3  and  C_10 
REMARK    4  A    between atoms: C_10  and  C_11 
REMARK       I    between atoms: C_11  and  N_12 
REMARK    5  A    between atoms: N_12  and  C_13 
REMARK    6  A    between atoms: C_15  and  C_16 
ROOT
HETATM    1  C   UNL     1      25.927  46.661  52.606  1.00  0.00     0.223 C 
HETATM    2  N   UNL     1      26.022  46.591  51.232  1.00  0.00    -0.327 N 
HETATM    3  O   UNL     1      25.562  47.649  53.241  1.00  0.00    -0.273 OA
HETATM    4  H   UNL     1      26.420  45.748  50.841  1.00  0.00     0.169 HD
ENDROOT
BRANCH   2   5
HETATM    5  C   UNL     1      25.736  47.598  50.286  1.00  0.00     0.035 A 
HETATM    6  C   UNL     1      24.445  47.948  49.878  1.00  0.00     0.042 A 
HETATM    7  C   UNL     1      24.238  48.956  48.920  1.00  0.00    -0.021 A 
HETATM    8  C   UNL     1      25.349  49.620  48.384  1.00  0.00     0.012 A 
HETATM    9  C   UNL     1      26.641  49.276  48.784  1.00  0.00     0.003 A 
HETATM   10  C   UNL     1      26.831  48.265  49.725  1.00  0.00     0.029 A 
BRANCH   7  11
HETATM   11  C   UNL     1      22.887  49.296  48.501  1.00  0.00     0.010 A 
HETATM   12  C   UNL     1      21.653  48.640  48.733  1.00  0.00     0.152 A 
HETATM   13  N   UNL     1      20.619  49.263  48.159  1.00  0.00    -0.187 NA
HETATM   14  N   UNL     1      21.187  50.313  47.546  1.00  0.00    -0.289 N 
HETATM   15  H   UNL     1      20.589  50.942  47.021  1.00  0.00     0.188 HD
HETATM   16  C   UNL     1      22.539  50.379  47.720  1.00  0.00     0.123 A 
ENDBRANCH   7  11
ENDBRANCH   2   5
BRANCH   1  17
HETATM   17  C   UNL     1      26.211  45.361  53.359  1.00  0.00     0.116 C 
BRANCH  17  18
HETATM   18  C   UNL     1      27.465  44.541  52.984  1.00  0.00     0.049 C 
BRANCH  18  19
HETATM   19  C   UNL     1      27.025  43.220  52.365  1.00  0.00    -0.027 C 
HETATM   20  C   UNL     1      27.314  42.740  51.148  1.00  0.00     0.007 C 
ENDBRANCH  18  19
BRANCH  18  21
HETATM   21  C   UNL     1      28.600  44.476  54.015  1.00  0.00    -0.050 A 
HETATM   22  C   UNL     1      28.732  45.472  55.001  1.00  0.00     0.008 A 
HETATM   23  C   UNL     1      29.747  45.419  55.961  1.00  0.00     0.001 A 
HETATM   24  C   UNL     1      30.635  44.350  55.980  1.00  0.00     0.000 A 
HETATM   25  C   UNL     1      30.496  43.327  55.050  1.00  0.00     0.001 A 
HETATM   26  C   UNL     1      29.483  43.382  54.087  1.00  0.00     0.008 A 
ENDBRANCH  18  21
ENDBRANCH  17  18
ENDBRANCH   1  17
TORSDOF 6
ENDMDL
MODEL 4
REMARK VINA RESULT:      -8.5      2.505      8.252
REMARK  6 active torsions:
REMARK  status: ('A' for Active; 'I' for Inactive)
REMARK    1  A    between atoms: C_2  and  C_3 
REMARK    2  A    between atoms: C_3  and  C_4 
REMARK    3  A    between atoms: C_3  and  C_10 
REMARK    4  A    between atoms: C_10  and  C_11 
REMARK       I    between atoms: C_11  and  N_12 
REMARK    5  A    between atoms: N_12  and  C_13 
REMARK    6  A    between atoms: C_15  and  C_16 
ROOT
HETATM    1  C   UNL     1      25.945  45.303  52.813  1.00  0.00     0.223 C 
HETATM    2  N   UNL     1      27.289  45.573  52.959  1.00  0.00    -0.327 N 
HETATM    3  O   UNL     1      25.393  44.253  53.139  1.00  0.00    -0.273 OA
HETATM    4  H   UNL     1      27.629  46.440  52.569  1.00  0.00     0.169 HD
ENDROOT
BRANCH   2   5
HETATM    5  C   UNL     1      28.293  44.736  53.493  1.00  0.00     0.035 A 
HETATM    6  C   UNL     1      28.944  44.968  54.708  1.00  0.00     0.042 A 
HETATM    7  C   UNL     1      29.945  44.095  55.170  1.00  0.00    -0.021 A 
HETATM    8  C   UNL     1      30.275  42.974  54.398  1.00  0.00     0.012 A 
HETATM    9  C   UNL     1      29.631  42.736  53.183  1.00  0.00     0.003 A 
HETATM   10  C   UNL     1      28.650  43.618  52.731  1.00  0.00     0.029 A 
BRANCH   7  11
HETATM   11  C   UNL     1      30.618  44.363  56.431  1.00  0.00     0.010 A 
HETATM   12  C   UNL     1      31.658  43.664  57.093  1.00  0.00     0.152 A 
HETATM   13  N   UNL     1      31.998  44.222  58.259  1.00  0.00    -0.187 NA
HETATM   14  N   UNL     1      31.171  45.274  58.355  1.00  0.00    -0.289 N 
HETATM   15  H   UNL     1      31.234  45.859  59.181  1.00  0.00     0.188 HD
HETATM   16  C   UNL     1      30.327  45.403  57.290  1.00  0.00     0.123 A 
ENDBRANCH   7  11
ENDBRANCH   2   5
BRANCH   1  17
HETATM   17  C   UNL     1      25.088  46.457  52.292  1.00  0.00     0.116 C 
BRANCH  17  18
HETATM   18  C   UNL     1      24.794  46.543  50.778  1.00  0.00     0.049 C 
BRANCH  18  19
HETATM   19  C   UNL     1      24.886  45.146  50.177  1.00  0.00    -0.027 C 
HETATM   20  C   UNL     1      24.843  44.798  48.883  1.00  0.00     0.007 C 
ENDBRANCH  18  19
BRANCH  18  21
HETATM   21  C   UNL     1      25.465  47.678  49.992  1.00  0.00    -0.050 A 
HETATM   22  C   UNL     1      26.868  47.774  49.925  1.00  0.00     0.008 A 
HETATM   23  C   UNL     1      27.497  48.789  49.197  1.00  0.00     0.001 A 
HETATM   24  C   UNL     1      26.737  49.715  48.491  1.00  0.00     0.000 A 
HETATM   25  C   UNL     1      25.351  49.615  48.501  1.00  0.00     0.001 A 
HETATM   26  C   UNL     1      24.723  48.600  49.231  1.00  0.00     0.008 A 
ENDBRANCH  18  21
ENDBRANCH  17  18
ENDBRANCH   1  17
TORSDOF 6
ENDMDL
MODEL 5
REMARK VINA RESULT:      -8.2      2.334      3.467
REMARK  6 active torsions:
REMARK  status: ('A' for Active; 'I' for Inactive)
REMARK    1  A    between atoms: C_2  and  C_3 
REMARK    2  A    between atoms: C_3  and  C_4 
REMARK    3  A    between atoms: C_3  and  C_10 
REMARK    4  A    between atoms: C_10  and  C_11 
REMARK       I    between atoms: C_11  and  N_12 
REMARK    5  A    between atoms: N_12  and  C_13 
REMARK    6  A    between atoms: C_15  and  C_16 
ROOT
HETATM    1  C   UNL     1      26.287  44.148  53.570  1.00  0.00     0.223 C 
HETATM    2  N   UNL     1      26.629  44.769  52.388  1.00  0.00    -0.327 N 
HETATM    3  O   UNL     1      25.151  44.092  54.039  1.00  0.00    -0.273 OA
HETATM    4  H   UNL     1      27.612  44.819  52.162  1.00  0.00     0.169 HD
ENDROOT
BRANCH   2   5
HETATM    5  C   UNL     1      25.785  45.455  51.488  1.00  0.00     0.035 A 
HETATM    6  C   UNL     1      24.780  44.843  50.733  1.00  0.00     0.042 A 
HETATM    7  C   UNL     1      23.985  45.590  49.846  1.00  0.00    -0.021 A 
HETATM    8  C   UNL     1      24.206  46.969  49.737  1.00  0.00     0.012 A 
HETATM    9  C   UNL     1      25.207  47.588  50.485  1.00  0.00     0.003 A 
HETATM   10  C   UNL     1      25.997  46.831  51.350  1.00  0.00     0.029 A 
BRANCH   7  11
HETATM   11  C   UNL     1      22.953  44.930  49.061  1.00  0.00     0.010 A 
HETATM   12  C   UNL     1      22.768  43.564  48.737  1.00  0.00     0.152 A 
HETATM   13  N   UNL     1      21.694  43.355  47.967  1.00  0.00    -0.187 NA
HETATM   14  N   UNL     1      21.195  44.586  47.785  1.00  0.00    -0.289 N 
HETATM   15  H   UNL     1      20.365  44.687  47.210  1.00  0.00     0.188 HD
HETATM   16  C   UNL     1      21.910  45.563  48.417  1.00  0.00     0.123 A 
ENDBRANCH   7  11
ENDBRANCH   2   5
BRANCH   1  17
HETATM   17  C   UNL     1      27.416  43.398  54.278  1.00  0.00     0.116 C 
BRANCH  17  18
HETATM   18  C   UNL     1      28.868  43.892  54.095  1.00  0.00     0.049 C 
BRANCH  18  19
HETATM   19  C   UNL     1      29.527  43.088  52.982  1.00  0.00    -0.027 C 
HETATM   20  C   UNL     1      29.237  41.844  52.576  1.00  0.00     0.007 C 
ENDBRANCH  18  19
BRANCH  18  21
HETATM   21  C   UNL     1      29.699  44.123  55.365  1.00  0.00    -0.050 A 
HETATM   22  C   UNL     1      30.699  43.209  55.745  1.00  0.00     0.008 A 
HETATM   23  C   UNL     1      31.480  43.414  56.887  1.00  0.00     0.001 A 
HETATM   24  C   UNL     1      31.303  44.557  57.658  1.00  0.00     0.000 A 
HETATM   25  C   UNL     1      30.356  45.500  57.278  1.00  0.00     0.001 A 
HETATM   26  C   UNL     1      29.573  45.293  56.137  1.00  0.00     0.008 A 
ENDBRANCH  18  21
ENDBRANCH  17  18
ENDBRANCH   1  17
TORSDOF 6
ENDMDL
MODEL 6
REMARK VINA RESULT:      -8.2      2.084      3.126
REMARK  6 active torsions:
REMARK  status: ('A' for Active; 'I' for Inactive)
REMARK    1  A    between atoms: C_2  and  C_3 
REMARK    2  A    between atoms: C_3  and  C_4 
REMARK    3  A    between atoms: C_3  and  C_10 
REMARK    4  A    between atoms: C_10  and  C_11 
REMARK       I    between atoms: C_11  and  N_12 
REMARK    5  A    between atoms: N_12  and  C_13 
REMARK    6  A    between atoms: C_15  and  C_16 
ROOT
HETATM    1  C   UNL     1      25.689  44.962  52.419  1.00  0.00     0.223 C 
HETATM    2  N   UNL     1      25.799  45.622  51.213  1.00  0.00    -0.327 N 
HETATM    3  O   UNL     1      24.634  44.591  52.930  1.00  0.00    -0.273 OA
HETATM    4  H   UNL     1      26.718  45.950  50.950  1.00  0.00     0.169 HD
ENDROOT
BRANCH   2   5
HETATM    5  C   UNL     1      24.765  46.005  50.332  1.00  0.00     0.035 A 
HETATM    6  C   UNL     1      24.378  47.329  50.103  1.00  0.00     0.042 A 
HETATM    7  C   UNL     1      23.329  47.634  49.219  1.00  0.00    -0.021 A 
HETATM    8  C   UNL     1      22.679  46.587  48.554  1.00  0.00     0.012 A 
HETATM    9  C   UNL     1      23.056  45.262  48.777  1.00  0.00     0.003 A 
HETATM   10  C   UNL     1      24.089  44.975  49.668  1.00  0.00     0.029 A 
BRANCH   7  11
HETATM   11  C   UNL     1      22.936  49.018  49.005  1.00  0.00     0.010 A 
HETATM   12  C   UNL     1      23.695  50.146  48.605  1.00  0.00     0.152 A 
HETATM   13  N   UNL     1      22.965  51.264  48.539  1.00  0.00    -0.187 NA
HETATM   14  N   UNL     1      21.740  50.861  48.908  1.00  0.00    -0.289 N 
HETATM   15  H   UNL     1      20.999  51.553  48.945  1.00  0.00     0.188 HD
HETATM   16  C   UNL     1      21.669  49.529  49.196  1.00  0.00     0.123 A 
ENDBRANCH   7  11
ENDBRANCH   2   5
BRANCH   1  17
HETATM   17  C   UNL     1      27.009  44.595  53.098  1.00  0.00     0.116 C 
BRANCH  17  18
HETATM   18  C   UNL     1      27.405  45.323  54.401  1.00  0.00     0.049 C 
BRANCH  18  19
HETATM   19  C   UNL     1      27.210  46.822  54.210  1.00  0.00    -0.027 C 
HETATM   20  C   UNL     1      26.430  47.652  54.916  1.00  0.00     0.007 C 
ENDBRANCH  18  19
BRANCH  18  21
HETATM   21  C   UNL     1      28.702  44.879  55.092  1.00  0.00    -0.050 A 
HETATM   22  C   UNL     1      29.396  43.737  54.650  1.00  0.00     0.008 A 
HETATM   23  C   UNL     1      30.590  43.328  55.252  1.00  0.00     0.001 A 
HETATM   24  C   UNL     1      31.137  44.072  56.292  1.00  0.00     0.000 A 
HETATM   25  C   UNL     1      30.498  45.232  56.715  1.00  0.00     0.001 A 
HETATM   26  C   UNL     1      29.303  45.638  56.113  1.00  0.00     0.008 A 
ENDBRANCH  18  21
ENDBRANCH  17  18
ENDBRANCH   1  17
TORSDOF 6
ENDMDL
MODEL 7
REMARK VINA RESULT:      -8.1      1.230      1.981
REMARK  6 active torsions:
REMARK  status: ('A' for Active; 'I' for Inactive)
REMARK    1  A    between atoms: C_2  and  C_3 
REMARK    2  A    between atoms: C_3  and  C_4 
REMARK    3  A    between atoms: C_3  and  C_10 
REMARK    4  A    between atoms: C_10  and  C_11 
REMARK       I    between atoms: C_11  and  N_12 
REMARK    5  A    between atoms: N_12  and  C_13 
REMARK    6  A    between atoms: C_15  and  C_16 
ROOT
HETATM    1  C   UNL     1      27.548  44.374  52.874  1.00  0.00     0.223 C 
HETATM    2  N   UNL     1      26.351  45.059  52.845  1.00  0.00    -0.327 N 
HETATM    3  O   UNL     1      28.224  44.088  51.888  1.00  0.00    -0.273 OA
HETATM    4  H   UNL     1      25.852  45.151  53.719  1.00  0.00     0.169 HD
ENDROOT
BRANCH   2   5
HETATM    5  C   UNL     1      25.662  45.562  51.721  1.00  0.00     0.035 A 
HETATM    6  C   UNL     1      26.031  46.718  51.026  1.00  0.00     0.042 A 
HETATM    7  C   UNL     1      25.287  47.166  49.920  1.00  0.00    -0.021 A 
HETATM    8  C   UNL     1      24.170  46.426  49.512  1.00  0.00     0.012 A 
HETATM    9  C   UNL     1      23.793  45.273  50.201  1.00  0.00     0.003 A 
HETATM   10  C   UNL     1      24.532  44.849  51.304  1.00  0.00     0.029 A 
BRANCH   7  11
HETATM   11  C   UNL     1      25.682  48.378  49.220  1.00  0.00     0.010 A 
HETATM   12  C   UNL     1      26.964  48.928  48.972  1.00  0.00     0.152 A 
HETATM   13  N   UNL     1      26.911  50.083  48.299  1.00  0.00    -0.187 NA
HETATM   14  N   UNL     1      25.596  50.283  48.124  1.00  0.00    -0.289 N 
HETATM   15  H   UNL     1      25.299  51.121  47.637  1.00  0.00     0.188 HD
HETATM   16  C   UNL     1      24.819  49.293  48.654  1.00  0.00     0.123 A 
ENDBRANCH   7  11
ENDBRANCH   2   5
BRANCH   1  17
HETATM   17  C   UNL     1      28.093  44.047  54.265  1.00  0.00     0.116 C 
BRANCH  17  18
HETATM   18  C   UNL     1      28.368  45.204  55.249  1.00  0.00     0.049 C 
BRANCH  18  19
HETATM   19  C   UNL     1      28.377  46.518  54.478  1.00  0.00    -0.027 C 
HETATM   20  C   UNL     1      27.835  47.690  54.835  1.00  0.00     0.007 C 
ENDBRANCH  18  19
BRANCH  18  21
HETATM   21  C   UNL     1      29.487  45.002  56.281  1.00  0.00    -0.050 A 
HETATM   22  C   UNL     1      30.482  44.027  56.079  1.00  0.00     0.008 A 
HETATM   23  C   UNL     1      31.520  43.842  56.997  1.00  0.00     0.001 A 
HETATM   24  C   UNL     1      31.608  44.651  58.124  1.00  0.00     0.000 A 
HETATM   25  C   UNL     1      30.667  45.654  58.323  1.00  0.00     0.001 A 
HETATM   26  C   UNL     1      29.627  45.837  57.405  1.00  0.00     0.008 A 
ENDBRANCH  18  21
ENDBRANCH  17  18
ENDBRANCH   1  17
TORSDOF 6
ENDMDL
MODEL 8
REMARK VINA RESULT:      -8.0      2.569      8.795
REMARK  6 active torsions:
REMARK  status: ('A' for Active; 'I' for Inactive)
REMARK    1  A    between atoms: C_2  and  C_3 
REMARK    2  A    between atoms: C_3  and  C_4 
REMARK    3  A    between atoms: C_3  and  C_10 
REMARK    4  A    between atoms: C_10  and  C_11 
REMARK       I    between atoms: C_11  and  N_12 
REMARK    5  A    between atoms: N_12  and  C_13 
REMARK    6  A    between atoms: C_15  and  C_16 
ROOT
HETATM    1  C   UNL     1      26.079  45.629  50.573  1.00  0.00     0.223 C 
HETATM    2  N   UNL     1      26.160  45.295  51.908  1.00  0.00    -0.327 N 
HETATM    3  O   UNL     1      26.762  45.137  49.676  1.00  0.00    -0.273 OA
HETATM    4  H   UNL     1      25.605  45.838  52.553  1.00  0.00     0.169 HD
ENDROOT
BRANCH   2   5
HETATM    5  C   UNL     1      27.013  44.351  52.519  1.00  0.00     0.035 A 
HETATM    6  C   UNL     1      27.927  44.658  53.532  1.00  0.00     0.042 A 
HETATM    7  C   UNL     1      28.754  43.665  54.086  1.00  0.00    -0.021 A 
HETATM    8  C   UNL     1      28.640  42.350  53.616  1.00  0.00     0.012 A 
HETATM    9  C   UNL     1      27.732  42.034  52.605  1.00  0.00     0.003 A 
HETATM   10  C   UNL     1      26.929  43.033  52.056  1.00  0.00     0.029 A 
BRANCH   7  11
HETATM   11  C   UNL     1      29.707  44.010  55.129  1.00  0.00     0.010 A 
HETATM   12  C   UNL     1      30.787  43.275  55.677  1.00  0.00     0.152 A 
HETATM   13  N   UNL     1      31.426  43.937  56.647  1.00  0.00    -0.187 NA
HETATM   14  N   UNL     1      30.751  45.094  56.733  1.00  0.00    -0.289 N 
HETATM   15  H   UNL     1      31.050  45.773  57.425  1.00  0.00     0.188 HD
HETATM   16  C   UNL     1      29.716  45.187  55.848  1.00  0.00     0.123 A 
ENDBRANCH   7  11
ENDBRANCH   2   5
BRANCH   1  17
HETATM   17  C   UNL     1      24.978  46.623  50.202  1.00  0.00     0.116 C 
BRANCH  17  18
HETATM   18  C   UNL     1      25.337  47.840  49.323  1.00  0.00     0.049 C 
BRANCH  18  19
HETATM   19  C   UNL     1      26.642  48.445  49.824  1.00  0.00    -0.027 C 
HETATM   20  C   UNL     1      27.748  48.725  49.121  1.00  0.00     0.007 C 
ENDBRANCH  18  19
BRANCH  18  21
HETATM   21  C   UNL     1      24.207  48.822  48.982  1.00  0.00    -0.050 A 
HETATM   22  C   UNL     1      24.477  50.015  48.286  1.00  0.00     0.008 A 
HETATM   23  C   UNL     1      23.458  50.911  47.949  1.00  0.00     0.001 A 
HETATM   24  C   UNL     1      22.137  50.619  48.270  1.00  0.00     0.000 A 
HETATM   25  C   UNL     1      21.836  49.425  48.914  1.00  0.00     0.001 A 
HETATM   26  C   UNL     1      22.857  48.530  49.253  1.00  0.00     0.008 A 
ENDBRANCH  18  21
ENDBRANCH  17  18
ENDBRANCH   1  17
TORSDOF 6
ENDMDL
MODEL 9
REMARK VINA RESULT:      -8.0      3.324      6.756
REMARK  6 active torsions:
REMARK  status: ('A' for Active; 'I' for Inactive)
REMARK    1  A    between atoms: C_2  and  C_3 
REMARK    2  A    between atoms: C_3  and  C_4 
REMARK    3  A    between atoms: C_3  and  C_10 
REMARK    4  A    between atoms: C_10  and  C_11 
REMARK       I    between atoms: C_11  and  N_12 
REMARK    5  A    between atoms: N_12  and  C_13 
REMARK    6  A    between atoms: C_15  and  C_16 
ROOT
HETATM    1  C   UNL     1      28.574  41.239  52.573  1.00  0.00     0.223 C 
HETATM    2  N   UNL     1      29.304  42.407  52.624  1.00  0.00    -0.327 N 
HETATM    3  O   UNL     1      27.764  40.872  53.423  1.00  0.00    -0.273 OA
HETATM    4  H   UNL     1      30.001  42.547  51.905  1.00  0.00     0.169 HD
ENDROOT
BRANCH   2   5
HETATM    5  C   UNL     1      29.288  43.402  53.625  1.00  0.00     0.035 A 
HETATM    6  C   UNL     1      28.353  44.440  53.686  1.00  0.00     0.042 A 
HETATM    7  C   UNL     1      28.407  45.404  54.708  1.00  0.00    -0.021 A 
HETATM    8  C   UNL     1      29.410  45.303  55.681  1.00  0.00     0.012 A 
HETATM    9  C   UNL     1      30.349  44.273  55.627  1.00  0.00     0.003 A 
HETATM   10  C   UNL     1      30.290  43.332  54.599  1.00  0.00     0.029 A 
BRANCH   7  11
HETATM   11  C   UNL     1      27.431  46.482  54.744  1.00  0.00     0.010 A 
HETATM   12  C   UNL     1      26.343  46.775  53.886  1.00  0.00     0.152 A 
HETATM   13  N   UNL     1      25.681  47.880  54.247  1.00  0.00    -0.187 NA
HETATM   14  N   UNL     1      26.350  48.305  55.330  1.00  0.00    -0.289 N 
HETATM   15  H   UNL     1      26.033  49.154  55.785  1.00  0.00     0.188 HD
HETATM   16  C   UNL     1      27.403  47.505  55.669  1.00  0.00     0.123 A 
ENDBRANCH   7  11
ENDBRANCH   2   5
BRANCH   1  17
HETATM   17  C   UNL     1      28.738  40.408  51.300  1.00  0.00     0.116 C 
BRANCH  17  18
HETATM   18  C   UNL     1      27.758  40.639  50.128  1.00  0.00     0.049 C 
BRANCH  18  19
HETATM   19  C   UNL     1      28.519  40.513  48.815  1.00  0.00    -0.027 C 
HETATM   20  C   UNL     1      28.027  40.264  47.594  1.00  0.00     0.007 C 
ENDBRANCH  18  19
BRANCH  18  21
HETATM   21  C   UNL     1      26.780  41.816  50.249  1.00  0.00    -0.050 A 
HETATM   22  C   UNL     1      27.170  43.115  49.876  1.00  0.00     0.008 A 
HETATM   23  C   UNL     1      26.286  44.196  49.959  1.00  0.00     0.001 A 
HETATM   24  C   UNL     1      24.978  43.997  50.386  1.00  0.00     0.000 A 
HETATM   25  C   UNL     1      24.552  42.715  50.713  1.00  0.00     0.001 A 
HETATM   26  C   UNL     1      25.437  41.635  50.632  1.00  0.00     0.008 A 
ENDBRANCH  18  21
ENDBRANCH  17  18
ENDBRANCH   1  17
TORSDOF 6
ENDMDL
MODEL 10
REMARK VINA RESULT:      -7.9      5.491     11.115
REMARK  6 active torsions:
REMARK  status: ('A' for Active; 'I' for Inactive)
REMARK    1  A    between atoms: C_2  and  C_3 
REMARK    2  A    between atoms: C_3  and  C_4 
REMARK    3  A    between atoms: C_3  and  C_10 
REMARK    4  A    between atoms: C_10  and  C_11 
REMARK       I    between atoms: C_11  and  N_12 
REMARK    5  A    between atoms: N_12  and  C_13 
REMARK    6  A    between atoms: C_15  and  C_16 
ROOT
HETATM    1  C   UNL     1      22.176  50.694  49.346  1.00  0.00     0.223 C 
HETATM    2  N   UNL     1      22.961  49.950  48.491  1.00  0.00    -0.327 N 
HETATM    3  O   UNL     1      22.516  51.084  50.462  1.00  0.00    -0.273 OA
HETATM    4  H   UNL     1      22.528  49.618  47.641  1.00  0.00     0.169 HD
ENDROOT
BRANCH   2   5
HETATM    5  C   UNL     1      24.278  49.487  48.698  1.00  0.00     0.035 A 
HETATM    6  C   UNL     1      24.600  48.323  49.404  1.00  0.00     0.042 A 
HETATM    7  C   UNL     1      25.938  47.931  49.580  1.00  0.00    -0.021 A 
HETATM    8  C   UNL     1      26.953  48.719  49.024  1.00  0.00     0.012 A 
HETATM    9  C   UNL     1      26.642  49.883  48.320  1.00  0.00     0.003 A 
HETATM   10  C   UNL     1      25.310  50.266  48.165  1.00  0.00     0.029 A 
BRANCH   7  11
HETATM   11  C   UNL     1      26.250  46.724  50.329  1.00  0.00     0.010 A 
HETATM   12  C   UNL     1      26.055  46.404  51.695  1.00  0.00     0.152 A 
HETATM   13  N   UNL     1      26.496  45.182  52.010  1.00  0.00    -0.187 NA
HETATM   14  N   UNL     1      26.987  44.718  50.852  1.00  0.00    -0.289 N 
HETATM   15  H   UNL     1      27.398  43.791  50.842  1.00  0.00     0.188 HD
HETATM   16  C   UNL     1      26.864  45.599  49.816  1.00  0.00     0.123 A 
ENDBRANCH   7  11
ENDBRANCH   2   5
BRANCH   1  17
HETATM   17  C   UNL     1      20.819  51.130  48.792  1.00  0.00     0.116 C 
BRANCH  17  18
HETATM   18  C   UNL     1      19.556  50.908  49.653  1.00  0.00     0.049 C 
BRANCH  18  19
HETATM   19  C   UNL     1      19.503  49.448  50.085  1.00  0.00    -0.027 C 
HETATM   20  C   UNL     1      18.713  48.888  51.011  1.00  0.00     0.007 C 
ENDBRANCH  18  19
BRANCH  18  21
HETATM   21  C   UNL     1      18.244  51.527  49.152  1.00  0.00    -0.050 A 
HETATM   22  C   UNL     1      17.712  51.168  47.899  1.00  0.00     0.008 A 
HETATM   23  C   UNL     1      16.507  51.706  47.435  1.00  0.00     0.001 A 
HETATM   24  C   UNL     1      15.787  52.592  48.228  1.00  0.00     0.000 A 
HETATM   25  C   UNL     1      16.265  52.926  49.490  1.00  0.00     0.001 A 
HETATM   26  C   UNL     1      17.471  52.390  49.952  1.00  0.00     0.008 A 
ENDBRANCH  18  21
ENDBRANCH  17  18
ENDBRANCH   1  17
TORSDOF 6
ENDMDL
