MODEL 1
REMARK VINA RESULT:      -9.2      0.000      0.000
REMARK  11 active torsions:
REMARK  status: ('A' for Active; 'I' for Inactive)
REMARK    1  A    between atoms: N_2  and  C_4 
REMARK    2  A    between atoms: C_4  and  C_5 
REMARK    3  A    between atoms: C_5  and  C_6 
REMARK    4  A    between atoms: C_6  and  N_7 
REMARK    5  A    between atoms: N_7  and  C_8 
REMARK    6  A    between atoms: N_7  and  C_21 
REMARK    7  A    between atoms: C_8  and  N_9 
REMARK    8  A    between atoms: N_9  and  C_10 
REMARK    9  A    between atoms: C_11  and  C_12 
REMARK   10  A    between atoms: C_12  and  O_13 
REMARK   11  A    between atoms: C_21  and  C_22 
ROOT
HETATM    1  N   UNL     1      25.210  44.875  50.519  1.00  0.00    -0.354 N 
ENDROOT
BRANCH   1   2
HETATM    2  C   UNL     1      26.121  43.878  49.921  1.00  0.00     0.127 C 
BRANCH   2   3
HETATM    3  C   UNL     1      25.558  42.456  49.775  1.00  0.00     0.047 C 
BRANCH   3   4
HETATM    4  C   UNL     1      26.186  41.456  50.741  1.00  0.00     0.235 C 
BRANCH   4   5
HETATM    5  N   UNL     1      27.695  41.415  50.544  1.00  0.00    -0.079 N 
HETATM    6  C   UNL     1      28.129  40.575  49.376  1.00  0.00     0.269 C 
HETATM    7  H   UNL     1      28.001  42.380  50.361  1.00  0.00     0.278 HD
HETATM    8  C   UNL     1      28.401  41.000  51.809  1.00  0.00     0.269 C 
ENDBRANCH   4   5
ENDBRANCH   3   4
ENDBRANCH   2   3
ENDBRANCH   1   2
BRANCH   1   9
HETATM    9  C   UNL     1      24.372  45.749  49.772  1.00  0.00     0.174 C 
HETATM   10  S   UNL     1      23.278  45.164  48.646  1.00  0.00    -0.041 SA
BRANCH   9  11
HETATM   11  N   UNL     1      24.605  47.080  50.092  1.00  0.00    -0.332 N 
HETATM   12  H   UNL     1      24.343  47.293  51.053  1.00  0.00     0.168 HD
BRANCH  11  13
HETATM   13  C   UNL     1      25.472  48.071  49.549  1.00  0.00     0.050 A 
HETATM   14  C   UNL     1      24.904  49.147  48.815  1.00  0.00     0.066 A 
HETATM   15  C   UNL     1      25.725  50.156  48.284  1.00  0.00     0.020 A 
HETATM   16  C   UNL     1      27.105  50.105  48.465  1.00  0.00     0.001 A 
HETATM   17  C   UNL     1      27.670  49.039  49.156  1.00  0.00     0.002 A 
HETATM   18  C   UNL     1      26.863  48.027  49.685  1.00  0.00     0.030 A 
BRANCH  14  19
HETATM   19  C   UNL     1      23.428  49.217  48.604  1.00  0.00     0.295 C 
HETATM   20  O   UNL     1      22.887  48.769  47.600  1.00  0.00    -0.259 OA
BRANCH  19  21
HETATM   21  O   UNL     1      22.802  49.774  49.664  1.00  0.00    -0.322 OA
HETATM   22  C   UNL     1      22.040  50.949  49.368  1.00  0.00     0.213 C 
ENDBRANCH  19  21
ENDBRANCH  14  19
ENDBRANCH  11  13
ENDBRANCH   9  11
ENDBRANCH   1   9
BRANCH   1  23
HETATM   23  C   UNL     1      24.892  44.642  51.960  1.00  0.00     0.169 C 
BRANCH  23  24
HETATM   24  C   UNL     1      26.055  44.936  52.883  1.00  0.00     0.029 A 
HETATM   25  C   UNL     1      26.101  46.356  53.366  1.00  0.00     0.253 A 
HETATM   26  O   UNL     1      25.293  47.185  52.960  1.00  0.00    -0.268 OA
HETATM   27  N   UNL     1      27.081  46.689  54.265  1.00  0.00    -0.322 N 
HETATM   28  C   UNL     1      28.035  45.786  54.750  1.00  0.00     0.048 A 
HETATM   29  H   UNL     1      27.081  47.649  54.588  1.00  0.00     0.169 HD
HETATM   30  C   UNL     1      28.016  44.470  54.281  1.00  0.00    -0.006 A 
HETATM   31  C   UNL     1      28.979  46.188  55.695  1.00  0.00     0.070 A 
HETATM   32  C   UNL     1      28.947  43.544  54.760  1.00  0.00     0.053 A 
HETATM   33  C   UNL     1      26.996  44.077  53.313  1.00  0.00     0.028 A 
HETATM   34  C   UNL     1      29.894  43.941  55.700  1.00  0.00     0.103 A 
HETATM   35  C   UNL     1      29.896  45.254  56.183  1.00  0.00     0.104 A 
HETATM   36  O   UNL     1      30.778  42.979  56.116  1.00  0.00    -0.346 OA
HETATM   37  O   UNL     1      30.774  45.693  57.141  1.00  0.00    -0.346 OA
HETATM   38  C   UNL     1      31.384  44.594  57.829  1.00  0.00     0.202 C 
HETATM   39  C   UNL     1      31.875  43.549  56.841  1.00  0.00     0.202 C 
ENDBRANCH  23  24
ENDBRANCH   1  23
TORSDOF 11
ENDMDL
MODEL 2
REMARK VINA RESULT:      -8.6      1.497      2.401
REMARK  11 active torsions:
REMARK  status: ('A' for Active; 'I' for Inactive)
REMARK    1  A    between atoms: N_2  and  C_4 
REMARK    2  A    between atoms: C_4  and  C_5 
REMARK    3  A    between atoms: C_5  and  C_6 
REMARK    4  A    between atoms: C_6  and  N_7 
REMARK    5  A    between atoms: N_7  and  C_8 
REMARK    6  A    between atoms: N_7  and  C_21 
REMARK    7  A    between atoms: C_8  and  N_9 
REMARK    8  A    between atoms: N_9  and  C_10 
REMARK    9  A    between atoms: C_11  and  C_12 
REMARK   10  A    between atoms: C_12  and  O_13 
REMARK   11  A    between atoms: C_21  and  C_22 
ROOT
HETATM    1  N   UNL     1      25.783  45.822  50.382  1.00  0.00    -0.354 N 
ENDROOT
BRANCH   1   2
HETATM    2  C   UNL     1      26.141  44.681  49.515  1.00  0.00     0.127 C 
BRANCH   2   3
HETATM    3  C   UNL     1      25.423  43.357  49.816  1.00  0.00     0.047 C 
BRANCH   3   4
HETATM    4  C   UNL     1      25.980  42.175  49.027  1.00  0.00     0.235 C 
BRANCH   4   5
HETATM    5  N   UNL     1      27.354  41.793  49.560  1.00  0.00    -0.079 N 
HETATM    6  C   UNL     1      28.055  40.754  48.730  1.00  0.00     0.269 C 
HETATM    7  H   UNL     1      27.932  42.644  49.542  1.00  0.00     0.278 HD
HETATM    8  C   UNL     1      27.284  41.381  51.008  1.00  0.00     0.269 C 
ENDBRANCH   4   5
ENDBRANCH   3   4
ENDBRANCH   2   3
ENDBRANCH   1   2
BRANCH   1   9
HETATM    9  C   UNL     1      25.517  47.139  49.911  1.00  0.00     0.174 C 
HETATM   10  S   UNL     1      26.754  48.177  49.464  1.00  0.00    -0.041 SA
BRANCH   9  11
HETATM   11  N   UNL     1      24.156  47.414  49.901  1.00  0.00    -0.332 N 
HETATM   12  H   UNL     1      23.930  48.240  50.453  1.00  0.00     0.168 HD
BRANCH  11  13
HETATM   13  C   UNL     1      23.103  47.076  49.003  1.00  0.00     0.050 A 
HETATM   14  C   UNL     1      22.552  48.098  48.183  1.00  0.00     0.066 A 
HETATM   15  C   UNL     1      21.527  47.798  47.269  1.00  0.00     0.020 A 
HETATM   16  C   UNL     1      21.037  46.499  47.166  1.00  0.00     0.001 A 
HETATM   17  C   UNL     1      21.551  45.501  47.987  1.00  0.00     0.002 A 
HETATM   18  C   UNL     1      22.568  45.789  48.903  1.00  0.00     0.030 A 
BRANCH  14  19
HETATM   19  C   UNL     1      23.059  49.498  48.282  1.00  0.00     0.295 C 
HETATM   20  O   UNL     1      23.405  50.141  47.299  1.00  0.00    -0.259 OA
BRANCH  19  21
HETATM   21  O   UNL     1      23.028  49.948  49.556  1.00  0.00    -0.322 OA
HETATM   22  C   UNL     1      21.975  50.874  49.845  1.00  0.00     0.213 C 
ENDBRANCH  19  21
ENDBRANCH  14  19
ENDBRANCH  11  13
ENDBRANCH   9  11
ENDBRANCH   1   9
BRANCH   1  23
HETATM   23  C   UNL     1      25.299  45.442  51.742  1.00  0.00     0.169 C 
BRANCH  23  24
HETATM   24  C   UNL     1      26.362  45.569  52.811  1.00  0.00     0.029 A 
HETATM   25  C   UNL     1      26.287  46.849  53.591  1.00  0.00     0.253 A 
HETATM   26  O   UNL     1      25.469  47.716  53.300  1.00  0.00    -0.268 OA
HETATM   27  N   UNL     1      27.168  47.013  54.629  1.00  0.00    -0.322 N 
HETATM   28  C   UNL     1      28.128  46.063  54.995  1.00  0.00     0.048 A 
HETATM   29  H   UNL     1      27.086  47.878  55.149  1.00  0.00     0.169 HD
HETATM   30  C   UNL     1      28.224  44.882  54.253  1.00  0.00    -0.006 A 
HETATM   31  C   UNL     1      28.966  46.283  56.088  1.00  0.00     0.070 A 
HETATM   32  C   UNL     1      29.163  43.910  54.606  1.00  0.00     0.053 A 
HETATM   33  C   UNL     1      27.312  44.673  53.133  1.00  0.00     0.028 A 
HETATM   34  C   UNL     1      30.004  44.126  55.694  1.00  0.00     0.103 A 
HETATM   35  C   UNL     1      29.891  45.300  56.446  1.00  0.00     0.104 A 
HETATM   36  O   UNL     1      30.905  43.130  55.974  1.00  0.00    -0.346 OA
HETATM   37  O   UNL     1      30.660  45.550  57.554  1.00  0.00    -0.346 OA
HETATM   38  C   UNL     1      31.274  44.351  58.044  1.00  0.00     0.202 C 
HETATM   39  C   UNL     1      31.903  43.568  56.904  1.00  0.00     0.202 C 
ENDBRANCH  23  24
ENDBRANCH   1  23
TORSDOF 11
ENDMDL
MODEL 3
REMARK VINA RESULT:      -8.4      1.679      2.456
REMARK  11 active torsions:
REMARK  status: ('A' for Active; 'I' for Inactive)
REMARK    1  A    between atoms: N_2  and  C_4 
REMARK    2  A    between atoms: C_4  and  C_5 
REMARK    3  A    between atoms: C_5  and  C_6 
REMARK    4  A    between atoms: C_6  and  N_7 
REMARK    5  A    between atoms: N_7  and  C_8 
REMARK    6  A    between atoms: N_7  and  C_21 
REMARK    7  A    between atoms: C_8  and  N_9 
REMARK    8  A    between atoms: N_9  and  C_10 
REMARK    9  A    between atoms: C_11  and  C_12 
REMARK   10  A    between atoms: C_12  and  O_13 
REMARK   11  A    between atoms: C_21  and  C_22 
ROOT
HETATM    1  N   UNL     1      25.514  45.917  50.286  1.00  0.00    -0.354 N 
ENDROOT
BRANCH   1   2
HETATM    2  C   UNL     1      25.687  44.811  49.322  1.00  0.00     0.127 C 
BRANCH   2   3
HETATM    3  C   UNL     1      25.778  43.401  49.926  1.00  0.00     0.047 C 
BRANCH   3   4
HETATM    4  C   UNL     1      27.149  42.755  49.749  1.00  0.00     0.235 C 
BRANCH   4   5
HETATM    5  N   UNL     1      27.156  41.366  50.371  1.00  0.00    -0.079 N 
HETATM    6  C   UNL     1      25.788  40.761  50.513  1.00  0.00     0.269 C 
HETATM    7  H   UNL     1      27.699  40.757  49.743  1.00  0.00     0.278 HD
HETATM    8  C   UNL     1      27.898  41.358  51.683  1.00  0.00     0.269 C 
ENDBRANCH   4   5
ENDBRANCH   3   4
ENDBRANCH   2   3
ENDBRANCH   1   2
BRANCH   1   9
HETATM    9  C   UNL     1      25.372  47.286  49.923  1.00  0.00     0.174 C 
HETATM   10  S   UNL     1      26.697  48.227  49.520  1.00  0.00    -0.041 SA
BRANCH   9  11
HETATM   11  N   UNL     1      24.046  47.694  49.973  1.00  0.00    -0.332 N 
HETATM   12  H   UNL     1      23.624  47.509  50.883  1.00  0.00     0.168 HD
BRANCH  11  13
HETATM   13  C   UNL     1      23.294  48.646  49.227  1.00  0.00     0.050 A 
HETATM   14  C   UNL     1      22.204  48.188  48.439  1.00  0.00     0.066 A 
HETATM   15  C   UNL     1      21.425  49.101  47.707  1.00  0.00     0.020 A 
HETATM   16  C   UNL     1      21.721  50.460  47.740  1.00  0.00     0.001 A 
HETATM   17  C   UNL     1      22.805  50.912  48.485  1.00  0.00     0.002 A 
HETATM   18  C   UNL     1      23.590  50.013  49.214  1.00  0.00     0.030 A 
BRANCH  14  19
HETATM   19  C   UNL     1      21.874  46.734  48.385  1.00  0.00     0.295 C 
HETATM   20  O   UNL     1      22.676  45.893  47.996  1.00  0.00    -0.259 OA
BRANCH  19  21
HETATM   21  O   UNL     1      20.633  46.489  48.859  1.00  0.00    -0.322 OA
HETATM   22  C   UNL     1      19.753  45.832  47.941  1.00  0.00     0.213 C 
ENDBRANCH  19  21
ENDBRANCH  14  19
ENDBRANCH  11  13
ENDBRANCH   9  11
ENDBRANCH   1   9
BRANCH   1  23
HETATM   23  C   UNL     1      25.071  45.492  51.647  1.00  0.00     0.169 C 
BRANCH  23  24
HETATM   24  C   UNL     1      26.152  45.632  52.697  1.00  0.00     0.029 A 
HETATM   25  C   UNL     1      26.097  46.926  53.454  1.00  0.00     0.253 A 
HETATM   26  O   UNL     1      25.280  47.793  53.160  1.00  0.00    -0.268 OA
HETATM   27  N   UNL     1      26.996  47.104  54.475  1.00  0.00    -0.322 N 
HETATM   28  C   UNL     1      27.957  46.154  54.842  1.00  0.00     0.048 A 
HETATM   29  H   UNL     1      26.927  47.978  54.980  1.00  0.00     0.169 HD
HETATM   30  C   UNL     1      28.033  44.959  54.121  1.00  0.00    -0.006 A 
HETATM   31  C   UNL     1      28.813  46.389  55.918  1.00  0.00     0.070 A 
HETATM   32  C   UNL     1      28.972  43.988  54.477  1.00  0.00     0.053 A 
HETATM   33  C   UNL     1      27.102  44.736  53.019  1.00  0.00     0.028 A 
HETATM   34  C   UNL     1      29.832  44.218  55.547  1.00  0.00     0.103 A 
HETATM   35  C   UNL     1      29.738  45.407  56.279  1.00  0.00     0.104 A 
HETATM   36  O   UNL     1      30.730  43.222  55.831  1.00  0.00    -0.346 OA
HETATM   37  O   UNL     1      30.526  45.672  57.370  1.00  0.00    -0.346 OA
HETATM   38  C   UNL     1      31.140  44.478  57.872  1.00  0.00     0.202 C 
HETATM   39  C   UNL     1      31.747  43.670  56.736  1.00  0.00     0.202 C 
ENDBRANCH  23  24
ENDBRANCH   1  23
TORSDOF 11
ENDMDL
MODEL 4
REMARK VINA RESULT:      -8.4      2.462      3.549
REMARK  11 active torsions:
REMARK  status: ('A' for Active; 'I' for Inactive)
REMARK    1  A    between atoms: N_2  and  C_4 
REMARK    2  A    between atoms: C_4  and  C_5 
REMARK    3  A    between atoms: C_5  and  C_6 
REMARK    4  A    between atoms: C_6  and  N_7 
REMARK    5  A    between atoms: N_7  and  C_8 
REMARK    6  A    between atoms: N_7  and  C_21 
REMARK    7  A    between atoms: C_8  and  N_9 
REMARK    8  A    between atoms: N_9  and  C_10 
REMARK    9  A    between atoms: C_11  and  C_12 
REMARK   10  A    between atoms: C_12  and  O_13 
REMARK   11  A    between atoms: C_21  and  C_22 
ROOT
HETATM    1  N   UNL     1      23.682  45.271  49.172  1.00  0.00    -0.354 N 
ENDROOT
BRANCH   1   2
HETATM    2  C   UNL     1      24.203  44.495  48.028  1.00  0.00     0.127 C 
BRANCH   2   3
HETATM    3  C   UNL     1      23.264  43.420  47.461  1.00  0.00     0.047 C 
BRANCH   3   4
HETATM    4  C   UNL     1      22.786  43.724  46.043  1.00  0.00     0.235 C 
BRANCH   4   5
HETATM    5  N   UNL     1      23.932  43.547  45.057  1.00  0.00    -0.079 N 
HETATM    6  C   UNL     1      23.833  44.437  43.851  1.00  0.00     0.269 C 
HETATM    7  H   UNL     1      24.799  43.796  45.554  1.00  0.00     0.278 HD
HETATM    8  C   UNL     1      24.095  42.103  44.660  1.00  0.00     0.269 C 
ENDBRANCH   4   5
ENDBRANCH   3   4
ENDBRANCH   2   3
ENDBRANCH   1   2
BRANCH   1   9
HETATM    9  C   UNL     1      23.177  46.598  49.080  1.00  0.00     0.174 C 
HETATM   10  S   UNL     1      21.786  46.950  48.215  1.00  0.00    -0.041 SA
BRANCH   9  11
HETATM   11  N   UNL     1      23.983  47.501  49.761  1.00  0.00    -0.332 N 
HETATM   12  H   UNL     1      23.784  47.511  50.761  1.00  0.00     0.168 HD
BRANCH  11  13
HETATM   13  C   UNL     1      25.249  48.084  49.470  1.00  0.00     0.050 A 
HETATM   14  C   UNL     1      25.285  49.338  48.801  1.00  0.00     0.066 A 
HETATM   15  C   UNL     1      26.514  49.956  48.517  1.00  0.00     0.020 A 
HETATM   16  C   UNL     1      27.709  49.340  48.880  1.00  0.00     0.001 A 
HETATM   17  C   UNL     1      27.683  48.099  49.507  1.00  0.00     0.002 A 
HETATM   18  C   UNL     1      26.465  47.473  49.791  1.00  0.00     0.030 A 
BRANCH  14  19
HETATM   19  C   UNL     1      24.016  50.012  48.398  1.00  0.00     0.295 C 
HETATM   20  O   UNL     1      23.683  50.136  47.225  1.00  0.00    -0.259 OA
BRANCH  19  21
HETATM   21  O   UNL     1      23.295  50.397  49.474  1.00  0.00    -0.322 OA
HETATM   22  C   UNL     1      21.937  50.754  49.197  1.00  0.00     0.213 C 
ENDBRANCH  19  21
ENDBRANCH  14  19
ENDBRANCH  11  13
ENDBRANCH   9  11
ENDBRANCH   1   9
BRANCH   1  23
HETATM   23  C   UNL     1      23.314  44.451  50.364  1.00  0.00     0.169 C 
BRANCH  23  24
HETATM   24  C   UNL     1      24.452  44.285  51.349  1.00  0.00     0.029 A 
HETATM   25  C   UNL     1      25.184  42.983  51.215  1.00  0.00     0.253 A 
HETATM   26  O   UNL     1      24.809  42.129  50.417  1.00  0.00    -0.268 OA
HETATM   27  N   UNL     1      26.276  42.782  52.019  1.00  0.00    -0.322 N 
HETATM   28  C   UNL     1      26.739  43.716  52.954  1.00  0.00     0.048 A 
HETATM   29  H   UNL     1      26.762  41.902  51.898  1.00  0.00     0.169 HD
HETATM   30  C   UNL     1      26.043  44.919  53.105  1.00  0.00    -0.006 A 
HETATM   31  C   UNL     1      27.881  43.458  53.712  1.00  0.00     0.070 A 
HETATM   32  C   UNL     1      26.492  45.876  54.019  1.00  0.00     0.053 A 
HETATM   33  C   UNL     1      24.868  45.166  52.276  1.00  0.00     0.028 A 
HETATM   34  C   UNL     1      27.629  45.622  54.781  1.00  0.00     0.103 A 
HETATM   35  C   UNL     1      28.335  44.426  54.611  1.00  0.00     0.104 A 
HETATM   36  O   UNL     1      28.003  46.604  55.661  1.00  0.00    -0.346 OA
HETATM   37  O   UNL     1      29.486  44.138  55.299  1.00  0.00    -0.346 OA
HETATM   38  C   UNL     1      30.055  45.318  55.879  1.00  0.00     0.202 C 
HETATM   39  C   UNL     1      28.988  46.134  56.590  1.00  0.00     0.202 C 
ENDBRANCH  23  24
ENDBRANCH   1  23
TORSDOF 11
ENDMDL
MODEL 5
REMARK VINA RESULT:      -8.2      2.090      3.643
REMARK  11 active torsions:
REMARK  status: ('A' for Active; 'I' for Inactive)
REMARK    1  A    between atoms: N_2  and  C_4 
REMARK    2  A    between atoms: C_4  and  C_5 
REMARK    3  A    between atoms: C_5  and  C_6 
REMARK    4  A    between atoms: C_6  and  N_7 
REMARK    5  A    between atoms: N_7  and  C_8 
REMARK    6  A    between atoms: N_7  and  C_21 
REMARK    7  A    between atoms: C_8  and  N_9 
REMARK    8  A    between atoms: N_9  and  C_10 
REMARK    9  A    between atoms: C_11  and  C_12 
REMARK   10  A    between atoms: C_12  and  O_13 
REMARK   11  A    between atoms: C_21  and  C_22 
ROOT
HETATM    1  N   UNL     1      23.862  45.249  49.312  1.00  0.00    -0.354 N 
ENDROOT
BRANCH   1   2
HETATM    2  C   UNL     1      23.550  44.165  50.266  1.00  0.00     0.127 C 
BRANCH   2   3
HETATM    3  C   UNL     1      22.964  42.883  49.657  1.00  0.00     0.047 C 
BRANCH   3   4
HETATM    4  C   UNL     1      24.029  41.878  49.224  1.00  0.00     0.235 C 
BRANCH   4   5
HETATM    5  N   UNL     1      24.537  42.223  47.831  1.00  0.00    -0.079 N 
HETATM    6  C   UNL     1      23.445  42.580  46.862  1.00  0.00     0.269 C 
HETATM    7  H   UNL     1      25.146  43.047  47.927  1.00  0.00     0.278 HD
HETATM    8  C   UNL     1      25.418  41.130  47.284  1.00  0.00     0.269 C 
ENDBRANCH   4   5
ENDBRANCH   3   4
ENDBRANCH   2   3
ENDBRANCH   1   2
BRANCH   1   9
HETATM    9  C   UNL     1      22.918  46.204  48.841  1.00  0.00     0.174 C 
HETATM   10  S   UNL     1      21.606  45.750  47.904  1.00  0.00    -0.041 SA
BRANCH   9  11
HETATM   11  N   UNL     1      23.249  47.491  49.240  1.00  0.00    -0.332 N 
HETATM   12  H   UNL     1      24.249  47.594  49.409  1.00  0.00     0.168 HD
BRANCH  11  13
HETATM   13  C   UNL     1      22.611  48.754  49.073  1.00  0.00     0.050 A 
HETATM   14  C   UNL     1      23.382  49.851  48.602  1.00  0.00     0.066 A 
HETATM   15  C   UNL     1      22.782  51.106  48.403  1.00  0.00     0.020 A 
HETATM   16  C   UNL     1      21.429  51.288  48.677  1.00  0.00     0.001 A 
HETATM   17  C   UNL     1      20.676  50.227  49.168  1.00  0.00     0.002 A 
HETATM   18  C   UNL     1      21.264  48.975  49.373  1.00  0.00     0.030 A 
BRANCH  14  19
HETATM   19  C   UNL     1      24.835  49.678  48.308  1.00  0.00     0.295 C 
HETATM   20  O   UNL     1      25.341  50.057  47.258  1.00  0.00    -0.259 OA
BRANCH  19  21
HETATM   21  O   UNL     1      25.488  49.117  49.349  1.00  0.00    -0.322 OA
HETATM   22  C   UNL     1      26.886  48.895  49.138  1.00  0.00     0.213 C 
ENDBRANCH  19  21
ENDBRANCH  14  19
ENDBRANCH  11  13
ENDBRANCH   9  11
ENDBRANCH   1   9
BRANCH   1  23
HETATM   23  C   UNL     1      25.317  45.562  49.181  1.00  0.00     0.169 C 
BRANCH  23  24
HETATM   24  C   UNL     1      26.110  45.250  50.432  1.00  0.00     0.029 A 
HETATM   25  C   UNL     1      27.015  44.062  50.295  1.00  0.00     0.253 A 
HETATM   26  O   UNL     1      27.020  43.389  49.268  1.00  0.00    -0.268 OA
HETATM   27  N   UNL     1      27.824  43.754  51.358  1.00  0.00    -0.322 N 
HETATM   28  C   UNL     1      27.849  44.478  52.556  1.00  0.00     0.048 A 
HETATM   29  H   UNL     1      28.437  42.957  51.234  1.00  0.00     0.169 HD
HETATM   30  C   UNL     1      26.986  45.568  52.701  1.00  0.00    -0.006 A 
HETATM   31  C   UNL     1      28.728  44.128  53.581  1.00  0.00     0.070 A 
HETATM   32  C   UNL     1      27.000  46.318  53.880  1.00  0.00     0.053 A 
HETATM   33  C   UNL     1      26.099  45.922  51.597  1.00  0.00     0.028 A 
HETATM   34  C   UNL     1      27.873  45.971  54.908  1.00  0.00     0.103 A 
HETATM   35  C   UNL     1      28.750  44.892  54.749  1.00  0.00     0.104 A 
HETATM   36  O   UNL     1      27.824  46.749  56.036  1.00  0.00    -0.346 OA
HETATM   37  O   UNL     1      29.663  44.530  55.707  1.00  0.00    -0.346 OA
HETATM   38  C   UNL     1      29.863  45.581  56.660  1.00  0.00     0.202 C 
HETATM   39  C   UNL     1      28.530  46.143  57.126  1.00  0.00     0.202 C 
ENDBRANCH  23  24
ENDBRANCH   1  23
TORSDOF 11
ENDMDL
MODEL 6
REMARK VINA RESULT:      -8.1      2.298      7.836
REMARK  11 active torsions:
REMARK  status: ('A' for Active; 'I' for Inactive)
REMARK    1  A    between atoms: N_2  and  C_4 
REMARK    2  A    between atoms: C_4  and  C_5 
REMARK    3  A    between atoms: C_5  and  C_6 
REMARK    4  A    between atoms: C_6  and  N_7 
REMARK    5  A    between atoms: N_7  and  C_8 
REMARK    6  A    between atoms: N_7  and  C_21 
REMARK    7  A    between atoms: C_8  and  N_9 
REMARK    8  A    between atoms: N_9  and  C_10 
REMARK    9  A    between atoms: C_11  and  C_12 
REMARK   10  A    between atoms: C_12  and  O_13 
REMARK   11  A    between atoms: C_21  and  C_22 
ROOT
HETATM    1  N   UNL     1      27.043  43.119  52.040  1.00  0.00    -0.354 N 
ENDROOT
BRANCH   1   2
HETATM    2  C   UNL     1      27.318  41.675  52.184  1.00  0.00     0.127 C 
BRANCH   2   3
HETATM    3  C   UNL     1      28.596  41.164  51.503  1.00  0.00     0.047 C 
BRANCH   3   4
HETATM    4  C   UNL     1      28.370  39.914  50.656  1.00  0.00     0.235 C 
BRANCH   4   5
HETATM    5  N   UNL     1      27.504  40.250  49.450  1.00  0.00    -0.079 N 
HETATM    6  C   UNL     1      26.562  39.147  49.057  1.00  0.00     0.269 C 
HETATM    7  H   UNL     1      26.933  41.067  49.706  1.00  0.00     0.278 HD
HETATM    8  C   UNL     1      28.344  40.695  48.280  1.00  0.00     0.269 C 
ENDBRANCH   4   5
ENDBRANCH   3   4
ENDBRANCH   2   3
ENDBRANCH   1   2
BRANCH   1   9
HETATM    9  C   UNL     1      26.908  44.025  53.129  1.00  0.00     0.174 C 
HETATM   10  S   UNL     1      25.449  44.224  53.929  1.00  0.00    -0.041 SA
BRANCH   9  11
HETATM   11  N   UNL     1      28.097  44.691  53.392  1.00  0.00    -0.332 N 
HETATM   12  H   UNL     1      28.194  45.536  52.830  1.00  0.00     0.168 HD
BRANCH  11  13
HETATM   13  C   UNL     1      28.980  44.698  54.510  1.00  0.00     0.050 A 
HETATM   14  C   UNL     1      28.958  45.814  55.390  1.00  0.00     0.066 A 
HETATM   15  C   UNL     1      29.798  45.846  56.516  1.00  0.00     0.020 A 
HETATM   16  C   UNL     1      30.667  44.789  56.773  1.00  0.00     0.001 A 
HETATM   17  C   UNL     1      30.716  43.708  55.899  1.00  0.00     0.002 A 
HETATM   18  C   UNL     1      29.887  43.668  54.774  1.00  0.00     0.030 A 
BRANCH  14  19
HETATM   19  C   UNL     1      28.039  46.960  55.129  1.00  0.00     0.295 C 
HETATM   20  O   UNL     1      27.899  47.447  54.013  1.00  0.00    -0.259 OA
BRANCH  19  21
HETATM   21  O   UNL     1      27.373  47.326  56.246  1.00  0.00    -0.322 OA
HETATM   22  C   UNL     1      26.494  48.444  56.087  1.00  0.00     0.213 C 
ENDBRANCH  19  21
ENDBRANCH  14  19
ENDBRANCH  11  13
ENDBRANCH   9  11
ENDBRANCH   1   9
BRANCH   1  23
HETATM   23  C   UNL     1      27.328  43.674  50.684  1.00  0.00     0.169 C 
BRANCH  23  24
HETATM   24  C   UNL     1      26.185  44.492  50.121  1.00  0.00     0.029 A 
HETATM   25  C   UNL     1      25.199  43.688  49.327  1.00  0.00     0.253 A 
HETATM   26  O   UNL     1      25.385  42.493  49.115  1.00  0.00    -0.268 OA
HETATM   27  N   UNL     1      24.093  44.338  48.843  1.00  0.00    -0.322 N 
HETATM   28  C   UNL     1      23.838  45.700  49.043  1.00  0.00     0.048 A 
HETATM   29  H   UNL     1      23.435  43.770  48.324  1.00  0.00     0.169 HD
HETATM   30  C   UNL     1      24.768  46.461  49.757  1.00  0.00    -0.006 A 
HETATM   31  C   UNL     1      22.671  46.285  48.553  1.00  0.00     0.070 A 
HETATM   32  C   UNL     1      24.532  47.819  49.985  1.00  0.00     0.053 A 
HETATM   33  C   UNL     1      25.966  45.809  50.279  1.00  0.00     0.028 A 
HETATM   34  C   UNL     1      23.370  48.409  49.495  1.00  0.00     0.103 A 
HETATM   35  C   UNL     1      22.431  47.638  48.800  1.00  0.00     0.104 A 
HETATM   36  O   UNL     1      23.212  49.746  49.753  1.00  0.00    -0.346 OA
HETATM   37  O   UNL     1      21.249  48.152  48.331  1.00  0.00    -0.346 OA
HETATM   38  C   UNL     1      20.939  49.402  48.959  1.00  0.00     0.202 C 
HETATM   39  C   UNL     1      22.156  50.313  48.967  1.00  0.00     0.202 C 
ENDBRANCH  23  24
ENDBRANCH   1  23
TORSDOF 11
ENDMDL
MODEL 7
REMARK VINA RESULT:      -8.1      3.042      7.972
REMARK  11 active torsions:
REMARK  status: ('A' for Active; 'I' for Inactive)
REMARK    1  A    between atoms: N_2  and  C_4 
REMARK    2  A    between atoms: C_4  and  C_5 
REMARK    3  A    between atoms: C_5  and  C_6 
REMARK    4  A    between atoms: C_6  and  N_7 
REMARK    5  A    between atoms: N_7  and  C_8 
REMARK    6  A    between atoms: N_7  and  C_21 
REMARK    7  A    between atoms: C_8  and  N_9 
REMARK    8  A    between atoms: N_9  and  C_10 
REMARK    9  A    between atoms: C_11  and  C_12 
REMARK   10  A    between atoms: C_12  and  O_13 
REMARK   11  A    between atoms: C_21  and  C_22 
ROOT
HETATM    1  N   UNL     1      25.680  45.712  52.376  1.00  0.00    -0.354 N 
ENDROOT
BRANCH   1   2
HETATM    2  C   UNL     1      25.897  47.081  51.865  1.00  0.00     0.127 C 
BRANCH   2   3
HETATM    3  C   UNL     1      26.417  47.185  50.423  1.00  0.00     0.047 C 
BRANCH   3   4
HETATM    4  C   UNL     1      25.615  48.155  49.561  1.00  0.00     0.235 C 
BRANCH   4   5
HETATM    5  N   UNL     1      26.539  48.878  48.590  1.00  0.00    -0.079 N 
HETATM    6  C   UNL     1      27.862  49.264  49.190  1.00  0.00     0.269 C 
HETATM    7  H   UNL     1      26.729  48.228  47.815  1.00  0.00     0.278 HD
HETATM    8  C   UNL     1      25.854  50.065  47.964  1.00  0.00     0.269 C 
ENDBRANCH   4   5
ENDBRANCH   3   4
ENDBRANCH   2   3
ENDBRANCH   1   2
BRANCH   1   9
HETATM    9  C   UNL     1      26.225  45.211  53.591  1.00  0.00     0.174 C 
HETATM   10  S   UNL     1      25.328  44.238  54.619  1.00  0.00    -0.041 SA
BRANCH   9  11
HETATM   11  N   UNL     1      27.528  45.646  53.786  1.00  0.00    -0.332 N 
HETATM   12  H   UNL     1      27.649  46.623  53.520  1.00  0.00     0.168 HD
BRANCH  11  13
HETATM   13  C   UNL     1      28.588  45.194  54.624  1.00  0.00     0.050 A 
HETATM   14  C   UNL     1      29.208  43.950  54.328  1.00  0.00     0.066 A 
HETATM   15  C   UNL     1      30.273  43.482  55.118  1.00  0.00     0.020 A 
HETATM   16  C   UNL     1      30.721  44.229  56.204  1.00  0.00     0.001 A 
HETATM   17  C   UNL     1      30.098  45.432  56.518  1.00  0.00     0.002 A 
HETATM   18  C   UNL     1      29.036  45.906  55.741  1.00  0.00     0.030 A 
BRANCH  14  19
HETATM   19  C   UNL     1      28.739  43.131  53.172  1.00  0.00     0.295 C 
HETATM   20  O   UNL     1      28.973  43.442  52.010  1.00  0.00    -0.259 OA
BRANCH  19  21
HETATM   21  O   UNL     1      28.093  42.018  53.583  1.00  0.00    -0.322 OA
HETATM   22  C   UNL     1      28.713  40.784  53.205  1.00  0.00     0.213 C 
ENDBRANCH  19  21
ENDBRANCH  14  19
ENDBRANCH  11  13
ENDBRANCH   9  11
ENDBRANCH   1   9
BRANCH   1  23
HETATM   23  C   UNL     1      24.515  45.000  51.771  1.00  0.00     0.169 C 
BRANCH  23  24
HETATM   24  C   UNL     1      24.920  43.887  50.828  1.00  0.00     0.029 A 
HETATM   25  C   UNL     1      24.548  44.142  49.397  1.00  0.00     0.253 A 
HETATM   26  O   UNL     1      23.907  45.139  49.081  1.00  0.00    -0.268 OA
HETATM   27  N   UNL     1      24.944  43.218  48.464  1.00  0.00    -0.322 N 
HETATM   28  C   UNL     1      25.664  42.057  48.772  1.00  0.00     0.048 A 
HETATM   29  H   UNL     1      24.695  43.420  47.504  1.00  0.00     0.169 HD
HETATM   30  C   UNL     1      25.987  41.800  50.107  1.00  0.00    -0.006 A 
HETATM   31  C   UNL     1      26.066  41.181  47.764  1.00  0.00     0.070 A 
HETATM   32  C   UNL     1      26.719  40.657  50.441  1.00  0.00     0.053 A 
HETATM   33  C   UNL     1      25.574  42.753  51.133  1.00  0.00     0.028 A 
HETATM   34  C   UNL     1      27.119  39.777  49.439  1.00  0.00     0.103 A 
HETATM   35  C   UNL     1      26.812  40.050  48.101  1.00  0.00     0.104 A 
HETATM   36  O   UNL     1      27.827  38.675  49.844  1.00  0.00    -0.346 OA
HETATM   37  O   UNL     1      27.217  39.246  47.067  1.00  0.00    -0.346 OA
HETATM   38  C   UNL     1      28.270  38.364  47.474  1.00  0.00     0.202 C 
HETATM   39  C   UNL     1      27.931  37.701  48.799  1.00  0.00     0.202 C 
ENDBRANCH  23  24
ENDBRANCH   1  23
TORSDOF 11
ENDMDL
MODEL 8
REMARK VINA RESULT:      -8.0     12.308     13.763
REMARK  11 active torsions:
REMARK  status: ('A' for Active; 'I' for Inactive)
REMARK    1  A    between atoms: N_2  and  C_4 
REMARK    2  A    between atoms: C_4  and  C_5 
REMARK    3  A    between atoms: C_5  and  C_6 
REMARK    4  A    between atoms: C_6  and  N_7 
REMARK    5  A    between atoms: N_7  and  C_8 
REMARK    6  A    between atoms: N_7  and  C_21 
REMARK    7  A    between atoms: C_8  and  N_9 
REMARK    8  A    between atoms: N_9  and  C_10 
REMARK    9  A    between atoms: C_11  and  C_12 
REMARK   10  A    between atoms: C_12  and  O_13 
REMARK   11  A    between atoms: C_21  and  C_22 
ROOT
HETATM    1  N   UNL     1      28.922  49.227  40.156  1.00  0.00    -0.354 N 
ENDROOT
BRANCH   1   2
HETATM    2  C   UNL     1      28.369  48.259  39.188  1.00  0.00     0.127 C 
BRANCH   2   3
HETATM    3  C   UNL     1      26.871  48.400  38.877  1.00  0.00     0.047 C 
BRANCH   3   4
HETATM    4  C   UNL     1      26.590  49.215  37.618  1.00  0.00     0.235 C 
BRANCH   4   5
HETATM    5  N   UNL     1      25.089  49.382  37.428  1.00  0.00    -0.079 N 
HETATM    6  C   UNL     1      24.352  49.704  38.697  1.00  0.00     0.269 C 
HETATM    7  H   UNL     1      24.953  50.173  36.783  1.00  0.00     0.278 HD
HETATM    8  C   UNL     1      24.489  48.186  36.734  1.00  0.00     0.269 C 
ENDBRANCH   4   5
ENDBRANCH   3   4
ENDBRANCH   2   3
ENDBRANCH   1   2
BRANCH   1   9
HETATM    9  C   UNL     1      28.596  50.612  40.184  1.00  0.00     0.174 C 
HETATM   10  S   UNL     1      27.406  51.212  41.200  1.00  0.00    -0.041 SA
BRANCH   9  11
HETATM   11  N   UNL     1      29.358  51.337  39.279  1.00  0.00    -0.332 N 
HETATM   12  H   UNL     1      28.820  52.081  38.836  1.00  0.00     0.168 HD
BRANCH  11  13
HETATM   13  C   UNL     1      30.760  51.545  39.137  1.00  0.00     0.050 A 
HETATM   14  C   UNL     1      31.358  52.647  39.806  1.00  0.00     0.066 A 
HETATM   15  C   UNL     1      32.742  52.870  39.709  1.00  0.00     0.020 A 
HETATM   16  C   UNL     1      33.538  52.020  38.946  1.00  0.00     0.001 A 
HETATM   17  C   UNL     1      32.955  50.958  38.263  1.00  0.00     0.002 A 
HETATM   18  C   UNL     1      31.578  50.728  38.350  1.00  0.00     0.030 A 
BRANCH  14  19
HETATM   19  C   UNL     1      30.522  53.573  40.624  1.00  0.00     0.295 C 
HETATM   20  O   UNL     1      29.520  54.119  40.178  1.00  0.00    -0.259 OA
BRANCH  19  21
HETATM   21  O   UNL     1      30.985  53.672  41.890  1.00  0.00    -0.322 OA
HETATM   22  C   UNL     1      30.241  52.934  42.865  1.00  0.00     0.213 C 
ENDBRANCH  19  21
ENDBRANCH  14  19
ENDBRANCH  11  13
ENDBRANCH   9  11
ENDBRANCH   1   9
BRANCH   1  23
HETATM   23  C   UNL     1      29.522  48.612  41.377  1.00  0.00     0.169 C 
BRANCH  23  24
HETATM   24  C   UNL     1      30.975  48.984  41.580  1.00  0.00     0.029 A 
HETATM   25  C   UNL     1      31.930  48.163  40.763  1.00  0.00     0.253 A 
HETATM   26  O   UNL     1      31.527  47.235  40.068  1.00  0.00    -0.268 OA
HETATM   27  N   UNL     1      33.261  48.483  40.831  1.00  0.00    -0.322 N 
HETATM   28  C   UNL     1      33.775  49.521  41.617  1.00  0.00     0.048 A 
HETATM   29  H   UNL     1      33.883  47.925  40.259  1.00  0.00     0.169 HD
HETATM   30  C   UNL     1      32.895  50.270  42.403  1.00  0.00    -0.006 A 
HETATM   31  C   UNL     1      35.139  49.813  41.606  1.00  0.00     0.070 A 
HETATM   32  C   UNL     1      33.379  51.322  43.185  1.00  0.00     0.053 A 
HETATM   33  C   UNL     1      31.470  49.953  42.369  1.00  0.00     0.028 A 
HETATM   34  C   UNL     1      34.740  51.616  43.180  1.00  0.00     0.103 A 
HETATM   35  C   UNL     1      35.614  50.877  42.376  1.00  0.00     0.104 A 
HETATM   36  O   UNL     1      35.140  52.657  43.978  1.00  0.00    -0.346 OA
HETATM   37  O   UNL     1      36.957  51.147  42.295  1.00  0.00    -0.346 OA
HETATM   38  C   UNL     1      37.256  52.455  42.799  1.00  0.00     0.202 C 
HETATM   39  C   UNL     1      36.564  52.686  44.132  1.00  0.00     0.202 C 
ENDBRANCH  23  24
ENDBRANCH   1  23
TORSDOF 11
ENDMDL
MODEL 9
REMARK VINA RESULT:      -7.9      2.139      5.469
REMARK  11 active torsions:
REMARK  status: ('A' for Active; 'I' for Inactive)
REMARK    1  A    between atoms: N_2  and  C_4 
REMARK    2  A    between atoms: C_4  and  C_5 
REMARK    3  A    between atoms: C_5  and  C_6 
REMARK    4  A    between atoms: C_6  and  N_7 
REMARK    5  A    between atoms: N_7  and  C_8 
REMARK    6  A    between atoms: N_7  and  C_21 
REMARK    7  A    between atoms: C_8  and  N_9 
REMARK    8  A    between atoms: N_9  and  C_10 
REMARK    9  A    between atoms: C_11  and  C_12 
REMARK   10  A    between atoms: C_12  and  O_13 
REMARK   11  A    between atoms: C_21  and  C_22 
ROOT
HETATM    1  N   UNL     1      25.224  46.094  50.385  1.00  0.00    -0.354 N 
ENDROOT
BRANCH   1   2
HETATM    2  C   UNL     1      24.518  47.359  50.099  1.00  0.00     0.127 C 
BRANCH   2   3
HETATM    3  C   UNL     1      23.271  47.245  49.209  1.00  0.00     0.047 C 
BRANCH   3   4
HETATM    4  C   UNL     1      22.783  48.591  48.679  1.00  0.00     0.235 C 
BRANCH   4   5
HETATM    5  N   UNL     1      21.727  49.168  49.611  1.00  0.00    -0.079 N 
HETATM    6  C   UNL     1      20.323  48.778  49.247  1.00  0.00     0.269 C 
HETATM    7  H   UNL     1      21.918  48.795  50.551  1.00  0.00     0.278 HD
HETATM    8  C   UNL     1      21.865  50.664  49.734  1.00  0.00     0.269 C 
ENDBRANCH   4   5
ENDBRANCH   3   4
ENDBRANCH   2   3
ENDBRANCH   1   2
BRANCH   1   9
HETATM    9  C   UNL     1      26.395  45.654  49.705  1.00  0.00     0.174 C 
HETATM   10  S   UNL     1      27.766  46.611  49.612  1.00  0.00    -0.041 SA
BRANCH   9  11
HETATM   11  N   UNL     1      26.221  44.394  49.149  1.00  0.00    -0.332 N 
HETATM   12  H   UNL     1      26.267  44.416  48.131  1.00  0.00     0.168 HD
BRANCH  11  13
HETATM   13  C   UNL     1      26.404  43.075  49.656  1.00  0.00     0.050 A 
HETATM   14  C   UNL     1      25.474  42.067  49.283  1.00  0.00     0.066 A 
HETATM   15  C   UNL     1      25.635  40.749  49.744  1.00  0.00     0.020 A 
HETATM   16  C   UNL     1      26.700  40.423  50.579  1.00  0.00     0.001 A 
HETATM   17  C   UNL     1      27.596  41.411  50.973  1.00  0.00     0.002 A 
HETATM   18  C   UNL     1      27.444  42.727  50.523  1.00  0.00     0.030 A 
BRANCH  14  19
HETATM   19  C   UNL     1      24.322  42.397  48.394  1.00  0.00     0.295 C 
HETATM   20  O   UNL     1      24.066  41.750  47.386  1.00  0.00    -0.259 OA
BRANCH  19  21
HETATM   21  O   UNL     1      23.605  43.435  48.877  1.00  0.00    -0.322 OA
HETATM   22  C   UNL     1      22.707  43.106  49.942  1.00  0.00     0.213 C 
ENDBRANCH  19  21
ENDBRANCH  14  19
ENDBRANCH  11  13
ENDBRANCH   9  11
ENDBRANCH   1   9
BRANCH   1  23
HETATM   23  C   UNL     1      24.901  45.486  51.710  1.00  0.00     0.169 C 
BRANCH  23  24
HETATM   24  C   UNL     1      26.021  45.622  52.719  1.00  0.00     0.029 A 
HETATM   25  C   UNL     1      26.027  46.936  53.443  1.00  0.00     0.253 A 
HETATM   26  O   UNL     1      25.224  47.818  53.155  1.00  0.00    -0.268 OA
HETATM   27  N   UNL     1      26.965  47.113  54.428  1.00  0.00    -0.322 N 
HETATM   28  C   UNL     1      27.912  46.147  54.788  1.00  0.00     0.048 A 
HETATM   29  H   UNL     1      26.938  48.002  54.912  1.00  0.00     0.169 HD
HETATM   30  C   UNL     1      27.930  44.932  54.096  1.00  0.00    -0.006 A 
HETATM   31  C   UNL     1      28.811  46.384  55.827  1.00  0.00     0.070 A 
HETATM   32  C   UNL     1      28.854  43.944  54.445  1.00  0.00     0.053 A 
HETATM   33  C   UNL     1      26.956  44.708  53.032  1.00  0.00     0.028 A 
HETATM   34  C   UNL     1      29.756  44.177  55.479  1.00  0.00     0.103 A 
HETATM   35  C   UNL     1      29.720  45.385  56.182  1.00  0.00     0.104 A 
HETATM   36  O   UNL     1      30.636  43.163  55.758  1.00  0.00    -0.346 OA
HETATM   37  O   UNL     1      30.553  45.656  57.239  1.00  0.00    -0.346 OA
HETATM   38  C   UNL     1      31.150  44.458  57.750  1.00  0.00     0.202 C 
HETATM   39  C   UNL     1      31.695  43.605  56.617  1.00  0.00     0.202 C 
ENDBRANCH  23  24
ENDBRANCH   1  23
TORSDOF 11
ENDMDL
MODEL 10
REMARK VINA RESULT:      -7.9      2.494      8.942
REMARK  11 active torsions:
REMARK  status: ('A' for Active; 'I' for Inactive)
REMARK    1  A    between atoms: N_2  and  C_4 
REMARK    2  A    between atoms: C_4  and  C_5 
REMARK    3  A    between atoms: C_5  and  C_6 
REMARK    4  A    between atoms: C_6  and  N_7 
REMARK    5  A    between atoms: N_7  and  C_8 
REMARK    6  A    between atoms: N_7  and  C_21 
REMARK    7  A    between atoms: C_8  and  N_9 
REMARK    8  A    between atoms: N_9  and  C_10 
REMARK    9  A    between atoms: C_11  and  C_12 
REMARK   10  A    between atoms: C_12  and  O_13 
REMARK   11  A    between atoms: C_21  and  C_22 
ROOT
HETATM    1  N   UNL     1      26.160  45.510  51.224  1.00  0.00    -0.354 N 
ENDROOT
BRANCH   1   2
HETATM    2  C   UNL     1      25.804  44.239  50.562  1.00  0.00     0.127 C 
BRANCH   2   3
HETATM    3  C   UNL     1      24.396  43.698  50.858  1.00  0.00     0.047 C 
BRANCH   3   4
HETATM    4  C   UNL     1      24.043  42.458  50.043  1.00  0.00     0.235 C 
BRANCH   4   5
HETATM    5  N   UNL     1      22.976  42.797  49.011  1.00  0.00    -0.079 N 
HETATM    6  C   UNL     1      23.500  42.875  47.605  1.00  0.00     0.269 C 
HETATM    7  H   UNL     1      22.278  42.041  49.039  1.00  0.00     0.278 HD
HETATM    8  C   UNL     1      22.229  44.050  49.388  1.00  0.00     0.269 C 
ENDBRANCH   4   5
ENDBRANCH   3   4
ENDBRANCH   2   3
ENDBRANCH   1   2
BRANCH   1   9
HETATM    9  C   UNL     1      26.413  45.649  52.617  1.00  0.00     0.174 C 
HETATM   10  S   UNL     1      25.921  47.006  53.467  1.00  0.00    -0.041 SA
BRANCH   9  11
HETATM   11  N   UNL     1      27.106  44.558  53.123  1.00  0.00    -0.332 N 
HETATM   12  H   UNL     1      26.997  43.731  52.537  1.00  0.00     0.168 HD
BRANCH  11  13
HETATM   13  C   UNL     1      28.221  44.438  54.001  1.00  0.00     0.050 A 
HETATM   14  C   UNL     1      28.938  43.211  54.030  1.00  0.00     0.066 A 
HETATM   15  C   UNL     1      30.058  43.063  54.866  1.00  0.00     0.020 A 
HETATM   16  C   UNL     1      30.468  44.113  55.682  1.00  0.00     0.001 A 
HETATM   17  C   UNL     1      29.752  45.306  55.682  1.00  0.00     0.002 A 
HETATM   18  C   UNL     1      28.634  45.463  54.857  1.00  0.00     0.030 A 
BRANCH  14  19
HETATM   19  C   UNL     1      28.512  42.070  53.168  1.00  0.00     0.295 C 
HETATM   20  O   UNL     1      28.038  41.040  53.631  1.00  0.00    -0.259 OA
BRANCH  19  21
HETATM   21  O   UNL     1      28.668  42.355  51.856  1.00  0.00    -0.322 OA
HETATM   22  C   UNL     1      28.063  41.419  50.958  1.00  0.00     0.213 C 
ENDBRANCH  19  21
ENDBRANCH  14  19
ENDBRANCH  11  13
ENDBRANCH   9  11
ENDBRANCH   1   9
BRANCH   1  23
HETATM   23  C   UNL     1      26.657  46.574  50.301  1.00  0.00     0.169 C 
BRANCH  23  24
HETATM   24  C   UNL     1      25.555  47.466  49.770  1.00  0.00     0.029 A 
HETATM   25  C   UNL     1      26.050  48.756  49.186  1.00  0.00     0.253 A 
HETATM   26  O   UNL     1      27.240  49.052  49.229  1.00  0.00    -0.268 OA
HETATM   27  N   UNL     1      25.123  49.591  48.615  1.00  0.00    -0.322 N 
HETATM   28  C   UNL     1      23.754  49.309  48.551  1.00  0.00     0.048 A 
HETATM   29  H   UNL     1      25.484  50.448  48.214  1.00  0.00     0.169 HD
HETATM   30  C   UNL     1      23.283  48.122  49.119  1.00  0.00    -0.006 A 
HETATM   31  C   UNL     1      22.875  50.189  47.919  1.00  0.00     0.070 A 
HETATM   32  C   UNL     1      21.923  47.808  49.056  1.00  0.00     0.053 A 
HETATM   33  C   UNL     1      24.235  47.212  49.748  1.00  0.00     0.028 A 
HETATM   34  C   UNL     1      21.041  48.685  48.430  1.00  0.00     0.103 A 
HETATM   35  C   UNL     1      21.520  49.862  47.843  1.00  0.00     0.104 A 
HETATM   36  O   UNL     1      19.722  48.312  48.414  1.00  0.00    -0.346 OA
HETATM   37  O   UNL     1      20.708  50.742  47.174  1.00  0.00    -0.346 OA
HETATM   38  C   UNL     1      19.456  50.137  46.829  1.00  0.00     0.202 C 
HETATM   39  C   UNL     1      18.872  49.397  48.021  1.00  0.00     0.202 C 
ENDBRANCH  23  24
ENDBRANCH   1  23
TORSDOF 11
ENDMDL
