MODEL 1
REMARK VINA RESULT:      -8.5      0.000      0.000
REMARK  4 active torsions:
REMARK  status: ('A' for Active; 'I' for Inactive)
REMARK    1  A    between atoms: C_5  and  C_6 
REMARK    2  A    between atoms: C_6  and  N_7 
REMARK       I    between atoms: N_7  and  C_8 
REMARK       I    between atoms: C_8  and  N_9 
REMARK    3  A    between atoms: N_9  and  C_10 
REMARK    4  A    between atoms: C_11  and  C_12 
ROOT
HETATM    1  N   UNL     1      25.943  45.935  51.470  1.00  0.00    -0.339 N 
HETATM    2  C   UNL     1      25.921  46.565  50.257  1.00  0.00     0.321 C 
HETATM    3  N   UNL     1      25.201  47.725  50.220  1.00  0.00    -0.305 N 
HETATM    4  O   UNL     1      26.508  46.042  49.318  1.00  0.00    -0.247 OA
HETATM    5  H   UNL     1      26.535  45.113  51.442  1.00  0.00     0.164 HD
HETATM    6  H   UNL     1      24.442  47.769  50.877  1.00  0.00     0.171 HD
ENDROOT
BRANCH   1   7
HETATM    7  C   UNL     1      25.801  46.569  52.765  1.00  0.00     0.162 C 
BRANCH   7   8
HETATM    8  C   UNL     1      26.904  46.176  53.709  1.00  0.00    -0.040 A 
HETATM    9  C   UNL     1      27.478  44.900  53.643  1.00  0.00     0.009 A 
HETATM   10  C   UNL     1      28.540  44.554  54.484  1.00  0.00     0.007 A 
HETATM   11  C   UNL     1      29.051  45.477  55.401  1.00  0.00    -0.062 A 
HETATM   12  C   UNL     1      30.195  45.120  56.302  1.00  0.00     0.048 C 
HETATM   13  C   UNL     1      28.477  46.752  55.472  1.00  0.00     0.007 A 
HETATM   14  C   UNL     1      27.417  47.099  54.632  1.00  0.00     0.009 A 
ENDBRANCH   7   8
ENDBRANCH   1   7
BRANCH   3  15
HETATM   15  C   UNL     1      25.160  48.642  49.177  1.00  0.00     0.095 A 
HETATM   16  C   UNL     1      24.010  49.052  48.516  1.00  0.00     0.112 A 
HETATM   17  O   UNL     1      24.355  49.970  47.568  1.00  0.00    -0.215 OA
HETATM   18  N   UNL     1      25.707  50.196  47.594  1.00  0.00    -0.131 NA
HETATM   19  C   UNL     1      26.196  49.414  48.564  1.00  0.00     0.087 A 
HETATM   20  C   UNL     1      27.644  49.505  48.865  1.00  0.00     0.075 C 
BRANCH  16  21
HETATM   21  C   UNL     1      22.545  48.656  48.670  1.00  0.00     0.048 A 
HETATM   22  C   UNL     1      21.512  49.067  47.645  1.00  0.00     0.012 A 
HETATM   23  C   UNL     1      21.904  47.630  47.762  1.00  0.00     0.012 A 
ENDBRANCH  16  21
ENDBRANCH   3  15
TORSDOF 4
ENDMDL
MODEL 2
REMARK VINA RESULT:      -8.2      2.201      3.743
REMARK  4 active torsions:
REMARK  status: ('A' for Active; 'I' for Inactive)
REMARK    1  A    between atoms: C_5  and  C_6 
REMARK    2  A    between atoms: C_6  and  N_7 
REMARK       I    between atoms: N_7  and  C_8 
REMARK       I    between atoms: C_8  and  N_9 
REMARK    3  A    between atoms: N_9  and  C_10 
REMARK    4  A    between atoms: C_11  and  C_12 
ROOT
HETATM    1  N   UNL     1      27.059  46.064  53.607  1.00  0.00    -0.339 N 
HETATM    2  C   UNL     1      26.165  46.669  52.770  1.00  0.00     0.321 C 
HETATM    3  N   UNL     1      26.141  46.179  51.495  1.00  0.00    -0.305 N 
HETATM    4  O   UNL     1      25.491  47.594  53.207  1.00  0.00    -0.247 OA
HETATM    5  H   UNL     1      26.988  46.437  54.546  1.00  0.00     0.164 HD
HETATM    6  H   UNL     1      27.011  45.788  51.180  1.00  0.00     0.171 HD
ENDROOT
BRANCH   1   7
HETATM    7  C   UNL     1      27.543  44.702  53.502  1.00  0.00     0.162 C 
BRANCH   7   8
HETATM    8  C   UNL     1      28.713  44.447  54.413  1.00  0.00    -0.040 A 
HETATM    9  C   UNL     1      29.057  45.372  55.406  1.00  0.00     0.009 A 
HETATM   10  C   UNL     1      30.110  45.111  56.288  1.00  0.00     0.007 A 
HETATM   11  C   UNL     1      30.833  43.918  56.196  1.00  0.00    -0.062 A 
HETATM   12  C   UNL     1      31.960  43.623  57.141  1.00  0.00     0.048 C 
HETATM   13  C   UNL     1      30.495  42.993  55.202  1.00  0.00     0.007 A 
HETATM   14  C   UNL     1      29.442  43.253  54.321  1.00  0.00     0.009 A 
ENDBRANCH   7   8
ENDBRANCH   1   7
BRANCH   3  15
HETATM   15  C   UNL     1      25.217  46.489  50.505  1.00  0.00     0.095 A 
HETATM   16  C   UNL     1      25.248  47.625  49.707  1.00  0.00     0.112 A 
HETATM   17  O   UNL     1      24.196  47.578  48.840  1.00  0.00    -0.215 OA
HETATM   18  N   UNL     1      23.475  46.427  49.027  1.00  0.00    -0.131 NA
HETATM   19  C   UNL     1      24.087  45.763  50.015  1.00  0.00     0.087 A 
HETATM   20  C   UNL     1      23.555  44.431  50.387  1.00  0.00     0.075 C 
BRANCH  16  21
HETATM   21  C   UNL     1      26.195  48.821  49.665  1.00  0.00     0.048 A 
HETATM   22  C   UNL     1      27.579  48.702  49.068  1.00  0.00     0.012 A 
HETATM   23  C   UNL     1      26.539  49.511  48.364  1.00  0.00     0.012 A 
ENDBRANCH  16  21
ENDBRANCH   3  15
TORSDOF 4
ENDMDL
MODEL 3
REMARK VINA RESULT:      -8.2      4.495      6.189
REMARK  4 active torsions:
REMARK  status: ('A' for Active; 'I' for Inactive)
REMARK    1  A    between atoms: C_5  and  C_6 
REMARK    2  A    between atoms: C_6  and  N_7 
REMARK       I    between atoms: N_7  and  C_8 
REMARK       I    between atoms: C_8  and  N_9 
REMARK    3  A    between atoms: N_9  and  C_10 
REMARK    4  A    between atoms: C_11  and  C_12 
ROOT
HETATM    1  N   UNL     1      26.336  45.757  54.608  1.00  0.00    -0.339 N 
HETATM    2  C   UNL     1      25.789  44.735  53.884  1.00  0.00     0.321 C 
HETATM    3  N   UNL     1      26.257  44.614  52.607  1.00  0.00    -0.305 N 
HETATM    4  O   UNL     1      24.926  44.043  54.412  1.00  0.00    -0.247 OA
HETATM    5  H   UNL     1      25.985  45.758  55.559  1.00  0.00     0.164 HD
HETATM    6  H   UNL     1      26.574  45.473  52.193  1.00  0.00     0.171 HD
ENDROOT
BRANCH   1   7
HETATM    7  C   UNL     1      27.654  46.328  54.419  1.00  0.00     0.162 C 
BRANCH   7   8
HETATM    8  C   UNL     1      28.716  45.550  55.147  1.00  0.00    -0.040 A 
HETATM    9  C   UNL     1      29.237  44.371  54.599  1.00  0.00     0.009 A 
HETATM   10  C   UNL     1      30.261  43.677  55.249  1.00  0.00     0.007 A 
HETATM   11  C   UNL     1      30.787  44.151  56.455  1.00  0.00    -0.062 A 
HETATM   12  C   UNL     1      31.891  43.419  57.158  1.00  0.00     0.048 C 
HETATM   13  C   UNL     1      30.266  45.326  57.008  1.00  0.00     0.007 A 
HETATM   14  C   UNL     1      29.243  46.021  56.358  1.00  0.00     0.009 A 
ENDBRANCH   7   8
ENDBRANCH   1   7
BRANCH   3  15
HETATM   15  C   UNL     1      26.004  43.569  51.727  1.00  0.00     0.095 A 
HETATM   16  C   UNL     1      26.809  42.452  51.556  1.00  0.00     0.112 A 
HETATM   17  O   UNL     1      26.234  41.636  50.627  1.00  0.00    -0.215 OA
HETATM   18  N   UNL     1      25.052  42.175  50.187  1.00  0.00    -0.131 NA
HETATM   19  C   UNL     1      24.900  43.327  50.850  1.00  0.00     0.087 A 
HETATM   20  C   UNL     1      23.657  44.101  50.620  1.00  0.00     0.075 C 
BRANCH  16  21
HETATM   21  C   UNL     1      28.134  42.038  52.191  1.00  0.00     0.048 A 
HETATM   22  C   UNL     1      28.175  41.097  53.373  1.00  0.00     0.012 A 
HETATM   23  C   UNL     1      28.676  40.634  52.044  1.00  0.00     0.012 A 
ENDBRANCH  16  21
ENDBRANCH   3  15
TORSDOF 4
ENDMDL
MODEL 4
REMARK VINA RESULT:      -8.0      2.855      4.555
REMARK  4 active torsions:
REMARK  status: ('A' for Active; 'I' for Inactive)
REMARK    1  A    between atoms: C_5  and  C_6 
REMARK    2  A    between atoms: C_6  and  N_7 
REMARK       I    between atoms: N_7  and  C_8 
REMARK       I    between atoms: C_8  and  N_9 
REMARK    3  A    between atoms: N_9  and  C_10 
REMARK    4  A    between atoms: C_11  and  C_12 
ROOT
HETATM    1  N   UNL     1      27.071  42.275  50.609  1.00  0.00    -0.339 N 
HETATM    2  C   UNL     1      26.678  43.531  50.241  1.00  0.00     0.321 C 
HETATM    3  N   UNL     1      25.657  44.058  50.980  1.00  0.00    -0.305 N 
HETATM    4  O   UNL     1      27.237  44.062  49.289  1.00  0.00    -0.247 OA
HETATM    5  H   UNL     1      27.864  41.966  50.058  1.00  0.00     0.164 HD
HETATM    6  H   UNL     1      25.030  43.379  51.374  1.00  0.00     0.171 HD
ENDROOT
BRANCH   1   7
HETATM    7  C   UNL     1      26.956  41.696  51.932  1.00  0.00     0.162 C 
BRANCH   7   8
HETATM    8  C   UNL     1      27.982  42.252  52.882  1.00  0.00    -0.040 A 
HETATM    9  C   UNL     1      29.348  42.166  52.585  1.00  0.00     0.009 A 
HETATM   10  C   UNL     1      30.299  42.730  53.441  1.00  0.00     0.007 A 
HETATM   11  C   UNL     1      29.901  43.396  54.604  1.00  0.00    -0.062 A 
HETATM   12  C   UNL     1      30.911  44.012  55.526  1.00  0.00     0.048 C 
HETATM   13  C   UNL     1      28.537  43.481  54.906  1.00  0.00     0.007 A 
HETATM   14  C   UNL     1      27.586  42.918  54.051  1.00  0.00     0.009 A 
ENDBRANCH   7   8
ENDBRANCH   1   7
BRANCH   3  15
HETATM   15  C   UNL     1      25.189  45.366  50.933  1.00  0.00     0.095 A 
HETATM   16  C   UNL     1      25.546  46.376  51.816  1.00  0.00     0.112 A 
HETATM   17  O   UNL     1      24.905  47.523  51.449  1.00  0.00    -0.215 OA
HETATM   18  N   UNL     1      24.145  47.306  50.329  1.00  0.00    -0.131 NA
HETATM   19  C   UNL     1      24.318  46.019  50.006  1.00  0.00     0.087 A 
HETATM   20  C   UNL     1      23.658  45.517  48.777  1.00  0.00     0.075 C 
BRANCH  16  21
HETATM   21  C   UNL     1      26.460  46.392  53.038  1.00  0.00     0.048 A 
HETATM   22  C   UNL     1      26.390  47.512  54.051  1.00  0.00     0.012 A 
HETATM   23  C   UNL     1      25.923  46.145  54.429  1.00  0.00     0.012 A 
ENDBRANCH  16  21
ENDBRANCH   3  15
TORSDOF 4
ENDMDL
MODEL 5
REMARK VINA RESULT:      -7.9      2.774      4.142
REMARK  4 active torsions:
REMARK  status: ('A' for Active; 'I' for Inactive)
REMARK    1  A    between atoms: C_5  and  C_6 
REMARK    2  A    between atoms: C_6  and  N_7 
REMARK       I    between atoms: N_7  and  C_8 
REMARK       I    between atoms: C_8  and  N_9 
REMARK    3  A    between atoms: N_9  and  C_10 
REMARK    4  A    between atoms: C_11  and  C_12 
ROOT
HETATM    1  N   UNL     1      27.689  44.117  52.033  1.00  0.00    -0.339 N 
HETATM    2  C   UNL     1      26.873  44.280  50.949  1.00  0.00     0.321 C 
HETATM    3  N   UNL     1      25.584  44.625  51.241  1.00  0.00    -0.305 N 
HETATM    4  O   UNL     1      27.340  44.085  49.833  1.00  0.00    -0.247 OA
HETATM    5  H   UNL     1      28.639  43.914  51.746  1.00  0.00     0.164 HD
HETATM    6  H   UNL     1      25.255  44.302  52.133  1.00  0.00     0.171 HD
ENDROOT
BRANCH   1   7
HETATM    7  C   UNL     1      27.541  44.766  53.320  1.00  0.00     0.162 C 
BRANCH   7   8
HETATM    8  C   UNL     1      28.690  44.458  54.242  1.00  0.00    -0.040 A 
HETATM    9  C   UNL     1      29.024  45.337  55.280  1.00  0.00     0.009 A 
HETATM   10  C   UNL     1      30.057  45.026  56.170  1.00  0.00     0.007 A 
HETATM   11  C   UNL     1      30.769  43.829  56.042  1.00  0.00    -0.062 A 
HETATM   12  C   UNL     1      31.873  43.481  56.995  1.00  0.00     0.048 C 
HETATM   13  C   UNL     1      30.440  42.951  55.003  1.00  0.00     0.007 A 
HETATM   14  C   UNL     1      29.407  43.261  54.114  1.00  0.00     0.009 A 
ENDBRANCH   7   8
ENDBRANCH   1   7
BRANCH   3  15
HETATM   15  C   UNL     1      24.606  45.020  50.335  1.00  0.00     0.095 A 
HETATM   16  C   UNL     1      23.688  44.174  49.729  1.00  0.00     0.112 A 
HETATM   17  O   UNL     1      22.877  44.916  48.922  1.00  0.00    -0.215 OA
HETATM   18  N   UNL     1      23.221  46.242  48.991  1.00  0.00    -0.131 NA
HETATM   19  C   UNL     1      24.248  46.315  49.845  1.00  0.00     0.087 A 
HETATM   20  C   UNL     1      24.788  47.657  50.169  1.00  0.00     0.075 C 
BRANCH  16  21
HETATM   21  C   UNL     1      23.475  42.665  49.814  1.00  0.00     0.048 A 
HETATM   22  C   UNL     1      23.020  41.871  48.610  1.00  0.00     0.012 A 
HETATM   23  C   UNL     1      24.410  41.695  49.128  1.00  0.00     0.012 A 
ENDBRANCH  16  21
ENDBRANCH   3  15
TORSDOF 4
ENDMDL
MODEL 6
REMARK VINA RESULT:      -7.6      4.185      5.536
REMARK  4 active torsions:
REMARK  status: ('A' for Active; 'I' for Inactive)
REMARK    1  A    between atoms: C_5  and  C_6 
REMARK    2  A    between atoms: C_6  and  N_7 
REMARK       I    between atoms: N_7  and  C_8 
REMARK       I    between atoms: C_8  and  N_9 
REMARK    3  A    between atoms: N_9  and  C_10 
REMARK    4  A    between atoms: C_11  and  C_12 
ROOT
HETATM    1  N   UNL     1      27.977  41.358  50.677  1.00  0.00    -0.339 N 
HETATM    2  C   UNL     1      26.967  42.118  50.156  1.00  0.00     0.321 C 
HETATM    3  N   UNL     1      25.754  41.965  50.764  1.00  0.00    -0.305 N 
HETATM    4  O   UNL     1      27.214  42.836  49.194  1.00  0.00    -0.247 OA
HETATM    5  H   UNL     1      28.857  41.558  50.216  1.00  0.00     0.164 HD
HETATM    6  H   UNL     1      25.605  41.064  51.182  1.00  0.00     0.171 HD
ENDROOT
BRANCH   1   7
HETATM    7  C   UNL     1      28.071  40.881  52.042  1.00  0.00     0.162 C 
BRANCH   7   8
HETATM    8  C   UNL     1      28.568  41.948  52.979  1.00  0.00    -0.040 A 
HETATM    9  C   UNL     1      27.684  42.604  53.845  1.00  0.00     0.009 A 
HETATM   10  C   UNL     1      28.154  43.557  54.754  1.00  0.00     0.007 A 
HETATM   11  C   UNL     1      29.516  43.866  54.817  1.00  0.00    -0.062 A 
HETATM   12  C   UNL     1      30.033  44.880  55.793  1.00  0.00     0.048 C 
HETATM   13  C   UNL     1      30.402  43.216  53.951  1.00  0.00     0.007 A 
HETATM   14  C   UNL     1      29.933  42.263  53.043  1.00  0.00     0.009 A 
ENDBRANCH   7   8
ENDBRANCH   1   7
BRANCH   3  15
HETATM   15  C   UNL     1      24.617  42.735  50.551  1.00  0.00     0.095 A 
HETATM   16  C   UNL     1      24.344  43.948  51.169  1.00  0.00     0.112 A 
HETATM   17  O   UNL     1      23.153  44.418  50.700  1.00  0.00    -0.215 OA
HETATM   18  N   UNL     1      22.634  43.557  49.768  1.00  0.00    -0.131 NA
HETATM   19  C   UNL     1      23.511  42.551  49.663  1.00  0.00     0.087 A 
HETATM   20  C   UNL     1      23.237  41.492  48.663  1.00  0.00     0.075 C 
BRANCH  16  21
HETATM   21  C   UNL     1      25.105  44.760  52.213  1.00  0.00     0.048 A 
HETATM   22  C   UNL     1      26.462  45.353  51.906  1.00  0.00     0.012 A 
HETATM   23  C   UNL     1      25.284  46.255  52.075  1.00  0.00     0.012 A 
ENDBRANCH  16  21
ENDBRANCH   3  15
TORSDOF 4
ENDMDL
MODEL 7
REMARK VINA RESULT:      -7.6      1.579      2.982
REMARK  4 active torsions:
REMARK  status: ('A' for Active; 'I' for Inactive)
REMARK    1  A    between atoms: C_5  and  C_6 
REMARK    2  A    between atoms: C_6  and  N_7 
REMARK       I    between atoms: N_7  and  C_8 
REMARK       I    between atoms: C_8  and  N_9 
REMARK    3  A    between atoms: N_9  and  C_10 
REMARK    4  A    between atoms: C_11  and  C_12 
ROOT
HETATM    1  N   UNL     1      25.143  45.105  51.254  1.00  0.00    -0.339 N 
HETATM    2  C   UNL     1      24.550  45.571  50.115  1.00  0.00     0.321 C 
HETATM    3  N   UNL     1      23.976  46.806  50.223  1.00  0.00    -0.305 N 
HETATM    4  O   UNL     1      24.555  44.856  49.120  1.00  0.00    -0.247 OA
HETATM    5  H   UNL     1      25.593  44.212  51.091  1.00  0.00     0.164 HD
HETATM    6  H   UNL     1      23.654  47.039  51.146  1.00  0.00     0.171 HD
ENDROOT
BRANCH   1   7
HETATM    7  C   UNL     1      25.706  45.913  52.317  1.00  0.00     0.162 C 
BRANCH   7   8
HETATM    8  C   UNL     1      26.851  45.221  53.005  1.00  0.00    -0.040 A 
HETATM    9  C   UNL     1      27.526  44.166  52.378  1.00  0.00     0.009 A 
HETATM   10  C   UNL     1      28.624  43.558  52.994  1.00  0.00     0.007 A 
HETATM   11  C   UNL     1      29.070  43.997  54.245  1.00  0.00    -0.062 A 
HETATM   12  C   UNL     1      30.251  43.358  54.912  1.00  0.00     0.048 C 
HETATM   13  C   UNL     1      28.395  45.048  54.876  1.00  0.00     0.007 A 
HETATM   14  C   UNL     1      27.299  45.657  54.260  1.00  0.00     0.009 A 
ENDBRANCH   7   8
ENDBRANCH   1   7
BRANCH   3  15
HETATM   15  C   UNL     1      23.468  47.578  49.186  1.00  0.00     0.095 A 
HETATM   16  C   UNL     1      24.056  48.730  48.682  1.00  0.00     0.112 A 
HETATM   17  O   UNL     1      23.286  49.203  47.660  1.00  0.00    -0.215 OA
HETATM   18  N   UNL     1      22.207  48.382  47.458  1.00  0.00    -0.131 NA
HETATM   19  C   UNL     1      22.314  47.399  48.360  1.00  0.00     0.087 A 
HETATM   20  C   UNL     1      21.305  46.314  48.326  1.00  0.00     0.075 C 
BRANCH  16  21
HETATM   21  C   UNL     1      25.322  49.488  49.072  1.00  0.00     0.048 A 
HETATM   22  C   UNL     1      26.679  48.822  49.026  1.00  0.00     0.012 A 
HETATM   23  C   UNL     1      26.350  49.894  48.040  1.00  0.00     0.012 A 
ENDBRANCH  16  21
ENDBRANCH   3  15
TORSDOF 4
ENDMDL
MODEL 8
REMARK VINA RESULT:      -7.6      4.285      5.514
REMARK  4 active torsions:
REMARK  status: ('A' for Active; 'I' for Inactive)
REMARK    1  A    between atoms: C_5  and  C_6 
REMARK    2  A    between atoms: C_6  and  N_7 
REMARK       I    between atoms: N_7  and  C_8 
REMARK       I    between atoms: C_8  and  N_9 
REMARK    3  A    between atoms: N_9  and  C_10 
REMARK    4  A    between atoms: C_11  and  C_12 
ROOT
HETATM    1  N   UNL     1      28.982  41.811  53.318  1.00  0.00    -0.339 N 
HETATM    2  C   UNL     1      27.875  41.845  52.518  1.00  0.00     0.321 C 
HETATM    3  N   UNL     1      27.498  43.090  52.101  1.00  0.00    -0.305 N 
HETATM    4  O   UNL     1      27.306  40.790  52.264  1.00  0.00    -0.247 OA
HETATM    5  H   UNL     1      29.237  40.857  53.546  1.00  0.00     0.164 HD
HETATM    6  H   UNL     1      27.747  43.835  52.728  1.00  0.00     0.171 HD
ENDROOT
BRANCH   1   7
HETATM    7  C   UNL     1      30.065  42.773  53.319  1.00  0.00     0.162 C 
BRANCH   7   8
HETATM    8  C   UNL     1      30.101  43.580  54.588  1.00  0.00    -0.040 A 
HETATM    9  C   UNL     1      31.030  43.284  55.594  1.00  0.00     0.009 A 
HETATM   10  C   UNL     1      31.100  44.067  56.750  1.00  0.00     0.007 A 
HETATM   11  C   UNL     1      30.247  45.162  56.919  1.00  0.00    -0.062 A 
HETATM   12  C   UNL     1      30.317  46.014  58.151  1.00  0.00     0.048 C 
HETATM   13  C   UNL     1      29.315  45.458  55.918  1.00  0.00     0.007 A 
HETATM   14  C   UNL     1      29.245  44.677  54.762  1.00  0.00     0.009 A 
ENDBRANCH   7   8
ENDBRANCH   1   7
BRANCH   3  15
HETATM   15  C   UNL     1      26.528  43.389  51.152  1.00  0.00     0.095 A 
HETATM   16  C   UNL     1      25.496  44.301  51.322  1.00  0.00     0.112 A 
HETATM   17  O   UNL     1      24.758  44.343  50.176  1.00  0.00    -0.215 OA
HETATM   18  N   UNL     1      25.285  43.494  49.238  1.00  0.00    -0.131 NA
HETATM   19  C   UNL     1      26.354  42.926  49.810  1.00  0.00     0.087 A 
HETATM   20  C   UNL     1      27.170  42.000  48.990  1.00  0.00     0.075 C 
BRANCH  16  21
HETATM   21  C   UNL     1      25.092  45.182  52.500  1.00  0.00     0.048 A 
HETATM   22  C   UNL     1      25.533  44.854  53.909  1.00  0.00     0.012 A 
HETATM   23  C   UNL     1      26.098  46.052  53.219  1.00  0.00     0.012 A 
ENDBRANCH  16  21
ENDBRANCH   3  15
TORSDOF 4
ENDMDL
MODEL 9
REMARK VINA RESULT:      -7.5     11.569     13.623
REMARK  4 active torsions:
REMARK  status: ('A' for Active; 'I' for Inactive)
REMARK    1  A    between atoms: C_5  and  C_6 
REMARK    2  A    between atoms: C_6  and  N_7 
REMARK       I    between atoms: N_7  and  C_8 
REMARK       I    between atoms: C_8  and  N_9 
REMARK    3  A    between atoms: N_9  and  C_10 
REMARK    4  A    between atoms: C_11  and  C_12 
ROOT
HETATM    1  N   UNL     1      31.785  53.499  40.378  1.00  0.00    -0.339 N 
HETATM    2  C   UNL     1      32.464  52.323  40.225  1.00  0.00     0.321 C 
HETATM    3  N   UNL     1      32.199  51.373  41.169  1.00  0.00    -0.305 N 
HETATM    4  O   UNL     1      33.255  52.224  39.295  1.00  0.00    -0.247 OA
HETATM    5  H   UNL     1      31.986  54.138  39.618  1.00  0.00     0.164 HD
HETATM    6  H   UNL     1      31.924  51.737  42.064  1.00  0.00     0.171 HD
ENDROOT
BRANCH   1   7
HETATM    7  C   UNL     1      30.495  53.664  41.018  1.00  0.00     0.162 C 
BRANCH   7   8
HETATM    8  C   UNL     1      29.434  52.813  40.374  1.00  0.00    -0.040 A 
HETATM    9  C   UNL     1      29.382  52.671  38.982  1.00  0.00     0.009 A 
HETATM   10  C   UNL     1      28.430  51.837  38.387  1.00  0.00     0.007 A 
HETATM   11  C   UNL     1      27.518  51.126  39.173  1.00  0.00    -0.062 A 
HETATM   12  C   UNL     1      26.498  50.223  38.547  1.00  0.00     0.048 C 
HETATM   13  C   UNL     1      27.565  51.269  40.565  1.00  0.00     0.007 A 
HETATM   14  C   UNL     1      28.516  52.101  41.160  1.00  0.00     0.009 A 
ENDBRANCH   7   8
ENDBRANCH   1   7
BRANCH   3  15
HETATM   15  C   UNL     1      32.612  50.047  41.150  1.00  0.00     0.095 A 
HETATM   16  C   UNL     1      31.824  48.967  40.776  1.00  0.00     0.112 A 
HETATM   17  O   UNL     1      32.571  47.830  40.864  1.00  0.00    -0.215 OA
HETATM   18  N   UNL     1      33.847  48.128  41.268  1.00  0.00    -0.131 NA
HETATM   19  C   UNL     1      33.884  49.456  41.431  1.00  0.00     0.087 A 
HETATM   20  C   UNL     1      35.178  50.073  41.804  1.00  0.00     0.075 C 
BRANCH  16  21
HETATM   21  C   UNL     1      30.368  48.868  40.331  1.00  0.00     0.048 A 
HETATM   22  C   UNL     1      29.740  47.533  40.001  1.00  0.00     0.012 A 
HETATM   23  C   UNL     1      29.307  48.269  41.226  1.00  0.00     0.012 A 
ENDBRANCH  16  21
ENDBRANCH   3  15
TORSDOF 4
ENDMDL
MODEL 10
REMARK VINA RESULT:      -7.4     11.226     13.589
REMARK  4 active torsions:
REMARK  status: ('A' for Active; 'I' for Inactive)
REMARK    1  A    between atoms: C_5  and  C_6 
REMARK    2  A    between atoms: C_6  and  N_7 
REMARK       I    between atoms: N_7  and  C_8 
REMARK       I    between atoms: C_8  and  N_9 
REMARK    3  A    between atoms: N_9  and  C_10 
REMARK    4  A    between atoms: C_11  and  C_12 
ROOT
HETATM    1  N   UNL     1      33.167  48.569  41.835  1.00  0.00    -0.339 N 
HETATM    2  C   UNL     1      33.636  49.839  41.647  1.00  0.00     0.321 C 
HETATM    3  N   UNL     1      33.734  50.234  40.344  1.00  0.00    -0.305 N 
HETATM    4  O   UNL     1      33.947  50.497  42.633  1.00  0.00    -0.247 OA
HETATM    5  H   UNL     1      33.069  48.359  42.821  1.00  0.00     0.164 HD
HETATM    6  H   UNL     1      33.891  49.488  39.690  1.00  0.00     0.171 HD
ENDROOT
BRANCH   1   7
HETATM    7  C   UNL     1      32.287  47.842  40.943  1.00  0.00     0.162 C 
BRANCH   7   8
HETATM    8  C   UNL     1      30.966  48.540  40.762  1.00  0.00    -0.040 A 
HETATM    9  C   UNL     1      30.138  48.795  41.864  1.00  0.00     0.009 A 
HETATM   10  C   UNL     1      28.937  49.490  41.704  1.00  0.00     0.007 A 
HETATM   11  C   UNL     1      28.543  49.950  40.444  1.00  0.00    -0.062 A 
HETATM   12  C   UNL     1      27.261  50.705  40.261  1.00  0.00     0.048 C 
HETATM   13  C   UNL     1      29.366  49.694  39.340  1.00  0.00     0.007 A 
HETATM   14  C   UNL     1      30.568  49.000  39.499  1.00  0.00     0.009 A 
ENDBRANCH   7   8
ENDBRANCH   1   7
BRANCH   3  15
HETATM   15  C   UNL     1      34.009  51.516  39.884  1.00  0.00     0.095 A 
HETATM   16  C   UNL     1      33.089  52.552  39.800  1.00  0.00     0.112 A 
HETATM   17  O   UNL     1      33.723  53.662  39.324  1.00  0.00    -0.215 OA
HETATM   18  N   UNL     1      35.050  53.396  39.108  1.00  0.00    -0.131 NA
HETATM   19  C   UNL     1      35.234  52.115  39.452  1.00  0.00     0.087 A 
HETATM   20  C   UNL     1      36.609  51.569  39.383  1.00  0.00     0.075 C 
BRANCH  16  21
HETATM   21  C   UNL     1      31.599  52.626  40.123  1.00  0.00     0.048 A 
HETATM   22  C   UNL     1      31.099  52.505  41.545  1.00  0.00     0.012 A 
HETATM   23  C   UNL     1      31.005  53.818  40.840  1.00  0.00     0.012 A 
ENDBRANCH  16  21
ENDBRANCH   3  15
TORSDOF 4
ENDMDL
