MODEL 1
REMARK VINA RESULT:     -10.0      0.000      0.000
REMARK  4 active torsions:
REMARK  status: ('A' for Active; 'I' for Inactive)
REMARK    1  A    between atoms: N_2  and  C_4 
REMARK    2  A    between atoms: C_7  and  C_21 
REMARK    3  A    between atoms: C_12  and  C_15 
REMARK    4  A    between atoms: C_27  and  C_28 
ROOT
HETATM    1  C   UNL     1      27.004  43.915  51.433  1.00  0.00     0.116 A 
HETATM    2  N   UNL     1      26.806  44.815  52.411  1.00  0.00    -0.330 N 
HETATM    3  H   UNL     1      26.330  45.673  52.161  1.00  0.00     0.168 HD
HETATM    4  C   UNL     1      27.174  44.562  53.673  1.00  0.00     0.112 A 
HETATM    5  N   UNL     1      27.712  43.390  54.061  1.00  0.00    -0.234 NA
HETATM    6  C   UNL     1      27.911  42.456  53.123  1.00  0.00     0.072 A 
HETATM    7  C   UNL     1      28.464  41.244  53.504  1.00  0.00     0.033 A 
HETATM    8  C   UNL     1      28.740  40.235  52.573  1.00  0.00     0.014 A 
HETATM    9  C   UNL     1      28.477  40.430  51.218  1.00  0.00    -0.022 A 
HETATM   10  C   UNL     1      27.907  41.650  50.830  1.00  0.00     0.030 A 
HETATM   11  C   UNL     1      27.595  42.667  51.771  1.00  0.00     0.037 A 
ENDROOT
BRANCH   4  12
HETATM   12  C   UNL     1      26.969  45.602  54.748  1.00  0.00     0.091 C 
HETATM   13  C   UNL     1      25.940  46.662  54.345  1.00  0.00     0.245 C 
HETATM   14  N   UNL     1      26.256  47.837  55.220  1.00  0.00    -0.074 N 
HETATM   15  H   UNL     1      26.022  48.727  54.747  1.00  0.00     0.277 HD
HETATM   16  H   UNL     1      25.686  47.841  56.082  1.00  0.00     0.277 HD
HETATM   17  C   UNL     1      27.720  47.789  55.563  1.00  0.00     0.242 C 
HETATM   18  C   UNL     1      28.229  46.449  54.998  1.00  0.00     0.057 C 
BRANCH  18  19
HETATM   19  C   UNL     1      29.222  45.743  55.890  1.00  0.00    -0.052 A 
HETATM   20  C   UNL     1      30.119  44.782  55.394  1.00  0.00     0.007 A 
HETATM   21  C   UNL     1      31.010  44.134  56.250  1.00  0.00     0.001 A 
HETATM   22  C   UNL     1      31.024  44.442  57.608  1.00  0.00     0.000 A 
HETATM   23  C   UNL     1      30.149  45.399  58.112  1.00  0.00     0.001 A 
HETATM   24  C   UNL     1      29.254  46.048  57.260  1.00  0.00     0.007 A 
ENDBRANCH  18  19
ENDBRANCH   4  12
BRANCH   1  25
HETATM   25  N   UNL     1      26.634  44.240  50.135  1.00  0.00    -0.375 N 
HETATM   26  C   UNL     1      26.949  45.563  49.598  1.00  0.00     0.150 C 
HETATM   27  C   UNL     1      25.349  43.681  49.690  1.00  0.00     0.150 C 
ENDBRANCH   1  25
BRANCH   9  28
HETATM   28  C   UNL     1      28.772  39.405  50.230  1.00  0.00     0.010 A 
HETATM   29  C   UNL     1      28.471  39.334  48.848  1.00  0.00     0.152 A 
HETATM   30  N   UNL     1      28.928  38.223  48.272  1.00  0.00    -0.187 NA
HETATM   31  N   UNL     1      29.524  37.564  49.276  1.00  0.00    -0.289 N 
HETATM   32  H   UNL     1      29.955  36.666  49.077  1.00  0.00     0.188 HD
HETATM   33  C   UNL     1      29.462  38.232  50.468  1.00  0.00     0.123 A 
ENDBRANCH   9  28
TORSDOF 4
ENDMDL
MODEL 2
REMARK VINA RESULT:      -9.7      2.502      7.239
REMARK  4 active torsions:
REMARK  status: ('A' for Active; 'I' for Inactive)
REMARK    1  A    between atoms: N_2  and  C_4 
REMARK    2  A    between atoms: C_7  and  C_21 
REMARK    3  A    between atoms: C_12  and  C_15 
REMARK    4  A    between atoms: C_27  and  C_28 
ROOT
HETATM    1  C   UNL     1      27.443  43.692  52.863  1.00  0.00     0.116 A 
HETATM    2  N   UNL     1      26.458  44.033  52.016  1.00  0.00    -0.330 N 
HETATM    3  H   UNL     1      26.195  43.352  51.312  1.00  0.00     0.168 HD
HETATM    4  C   UNL     1      25.813  45.200  52.133  1.00  0.00     0.112 A 
HETATM    5  N   UNL     1      26.061  46.081  53.121  1.00  0.00    -0.234 NA
HETATM    6  C   UNL     1      27.024  45.775  53.999  1.00  0.00     0.072 A 
HETATM    7  C   UNL     1      27.294  46.670  55.022  1.00  0.00     0.033 A 
HETATM    8  C   UNL     1      28.313  46.438  55.954  1.00  0.00     0.014 A 
HETATM    9  C   UNL     1      29.105  45.294  55.868  1.00  0.00    -0.022 A 
HETATM   10  C   UNL     1      28.828  44.381  54.842  1.00  0.00     0.030 A 
HETATM   11  C   UNL     1      27.776  44.592  53.911  1.00  0.00     0.037 A 
ENDROOT
BRANCH   4  12
HETATM   12  C   UNL     1      24.730  45.573  51.150  1.00  0.00     0.091 C 
HETATM   13  C   UNL     1      23.665  44.481  51.014  1.00  0.00     0.245 C 
HETATM   14  N   UNL     1      23.027  44.748  49.684  1.00  0.00    -0.074 N 
HETATM   15  H   UNL     1      22.690  43.872  49.250  1.00  0.00     0.277 HD
HETATM   16  H   UNL     1      22.183  45.338  49.772  1.00  0.00     0.277 HD
HETATM   17  C   UNL     1      24.043  45.420  48.801  1.00  0.00     0.242 C 
HETATM   18  C   UNL     1      25.257  45.695  49.709  1.00  0.00     0.057 C 
BRANCH  18  19
HETATM   19  C   UNL     1      25.924  47.026  49.458  1.00  0.00    -0.052 A 
HETATM   20  C   UNL     1      25.186  48.207  49.274  1.00  0.00     0.007 A 
HETATM   21  C   UNL     1      25.834  49.418  49.024  1.00  0.00     0.001 A 
HETATM   22  C   UNL     1      27.224  49.467  48.961  1.00  0.00     0.000 A 
HETATM   23  C   UNL     1      27.968  48.307  49.151  1.00  0.00     0.001 A 
HETATM   24  C   UNL     1      27.325  47.094  49.400  1.00  0.00     0.007 A 
ENDBRANCH  18  19
ENDBRANCH   4  12
BRANCH   1  25
HETATM   25  N   UNL     1      28.102  42.484  52.676  1.00  0.00    -0.375 N 
HETATM   26  C   UNL     1      28.277  41.951  51.326  1.00  0.00     0.150 C 
HETATM   27  C   UNL     1      27.864  41.472  53.716  1.00  0.00     0.150 C 
ENDBRANCH   1  25
BRANCH   9  28
HETATM   28  C   UNL     1      30.182  45.040  56.812  1.00  0.00     0.010 A 
HETATM   29  C   UNL     1      31.202  44.058  56.814  1.00  0.00     0.152 A 
HETATM   30  N   UNL     1      32.020  44.159  57.860  1.00  0.00    -0.187 NA
HETATM   31  N   UNL     1      31.535  45.205  58.546  1.00  0.00    -0.289 N 
HETATM   32  H   UNL     1      32.004  45.480  59.404  1.00  0.00     0.188 HD
HETATM   33  C   UNL     1      30.438  45.770  57.956  1.00  0.00     0.123 A 
ENDBRANCH   9  28
TORSDOF 4
ENDMDL
MODEL 3
REMARK VINA RESULT:      -9.7      2.277      7.286
REMARK  4 active torsions:
REMARK  status: ('A' for Active; 'I' for Inactive)
REMARK    1  A    between atoms: N_2  and  C_4 
REMARK    2  A    between atoms: C_7  and  C_21 
REMARK    3  A    between atoms: C_12  and  C_15 
REMARK    4  A    between atoms: C_27  and  C_28 
ROOT
HETATM    1  C   UNL     1      26.887  44.707  52.882  1.00  0.00     0.116 A 
HETATM    2  N   UNL     1      26.386  44.382  51.679  1.00  0.00    -0.330 N 
HETATM    3  H   UNL     1      25.530  44.844  51.394  1.00  0.00     0.168 HD
HETATM    4  C   UNL     1      27.021  43.527  50.869  1.00  0.00     0.112 A 
HETATM    5  N   UNL     1      28.213  42.977  51.168  1.00  0.00    -0.234 NA
HETATM    6  C   UNL     1      28.760  43.286  52.351  1.00  0.00     0.072 A 
HETATM    7  C   UNL     1      29.987  42.729  52.678  1.00  0.00     0.033 A 
HETATM    8  C   UNL     1      30.601  42.972  53.912  1.00  0.00     0.014 A 
HETATM    9  C   UNL     1      29.981  43.779  54.865  1.00  0.00    -0.022 A 
HETATM   10  C   UNL     1      28.746  44.353  54.535  1.00  0.00     0.030 A 
HETATM   11  C   UNL     1      28.130  44.137  53.273  1.00  0.00     0.037 A 
ENDROOT
BRANCH   4  12
HETATM   12  C   UNL     1      26.422  43.155  49.534  1.00  0.00     0.091 C 
HETATM   13  C   UNL     1      25.182  43.988  49.199  1.00  0.00     0.245 C 
HETATM   14  N   UNL     1      24.442  43.164  48.189  1.00  0.00    -0.074 N 
HETATM   15  H   UNL     1      23.422  43.322  48.255  1.00  0.00     0.277 HD
HETATM   16  H   UNL     1      24.686  43.429  47.221  1.00  0.00     0.277 HD
HETATM   17  C   UNL     1      24.770  41.717  48.431  1.00  0.00     0.242 C 
HETATM   18  C   UNL     1      25.865  41.720  49.516  1.00  0.00     0.057 C 
BRANCH  18  19
HETATM   19  C   UNL     1      26.949  40.691  49.300  1.00  0.00    -0.052 A 
HETATM   20  C   UNL     1      27.018  39.511  50.058  1.00  0.00     0.007 A 
HETATM   21  C   UNL     1      28.045  38.590  49.845  1.00  0.00     0.001 A 
HETATM   22  C   UNL     1      29.010  38.831  48.871  1.00  0.00     0.000 A 
HETATM   23  C   UNL     1      28.948  39.992  48.105  1.00  0.00     0.001 A 
HETATM   24  C   UNL     1      27.924  40.916  48.316  1.00  0.00     0.007 A 
ENDBRANCH  18  19
ENDBRANCH   4  12
BRANCH   1  25
HETATM   25  N   UNL     1      26.172  45.573  53.697  1.00  0.00    -0.375 N 
HETATM   26  C   UNL     1      25.062  45.065  54.502  1.00  0.00     0.150 C 
HETATM   27  C   UNL     1      25.978  46.926  53.157  1.00  0.00     0.150 C 
ENDBRANCH   1  25
BRANCH   9  28
HETATM   28  C   UNL     1      30.589  44.031  56.162  1.00  0.00     0.010 A 
HETATM   29  C   UNL     1      31.554  43.295  56.892  1.00  0.00     0.152 A 
HETATM   30  N   UNL     1      31.873  43.864  58.054  1.00  0.00    -0.187 NA
HETATM   31  N   UNL     1      31.116  44.971  58.086  1.00  0.00    -0.289 N 
HETATM   32  H   UNL     1      31.187  45.582  58.895  1.00  0.00     0.188 HD
HETATM   33  C   UNL     1      30.334  45.118  56.974  1.00  0.00     0.123 A 
ENDBRANCH   9  28
TORSDOF 4
ENDMDL
MODEL 4
REMARK VINA RESULT:      -9.7      2.287      7.764
REMARK  4 active torsions:
REMARK  status: ('A' for Active; 'I' for Inactive)
REMARK    1  A    between atoms: N_2  and  C_4 
REMARK    2  A    between atoms: C_7  and  C_21 
REMARK    3  A    between atoms: C_12  and  C_15 
REMARK    4  A    between atoms: C_27  and  C_28 
ROOT
HETATM    1  C   UNL     1      26.895  43.704  53.165  1.00  0.00     0.116 A 
HETATM    2  N   UNL     1      26.582  42.987  52.073  1.00  0.00    -0.330 N 
HETATM    3  H   UNL     1      25.676  43.157  51.651  1.00  0.00     0.168 HD
HETATM    4  C   UNL     1      27.452  42.126  51.533  1.00  0.00     0.112 A 
HETATM    5  N   UNL     1      28.702  41.954  52.001  1.00  0.00    -0.234 NA
HETATM    6  C   UNL     1      29.065  42.661  53.079  1.00  0.00     0.072 A 
HETATM    7  C   UNL     1      30.349  42.496  53.577  1.00  0.00     0.033 A 
HETATM    8  C   UNL     1      30.786  43.169  54.723  1.00  0.00     0.014 A 
HETATM    9  C   UNL     1      29.928  44.023  55.414  1.00  0.00    -0.022 A 
HETATM   10  C   UNL     1      28.633  44.201  54.908  1.00  0.00     0.030 A 
HETATM   11  C   UNL     1      28.191  43.547  53.728  1.00  0.00     0.037 A 
ENDROOT
BRANCH   4  12
HETATM   12  C   UNL     1      27.065  41.311  50.323  1.00  0.00     0.091 C 
HETATM   13  C   UNL     1      28.213  40.432  49.819  1.00  0.00     0.245 C 
HETATM   14  N   UNL     1      27.863  40.147  48.391  1.00  0.00    -0.074 N 
HETATM   15  H   UNL     1      28.714  40.024  47.816  1.00  0.00     0.277 HD
HETATM   16  H   UNL     1      27.348  39.256  48.289  1.00  0.00     0.277 HD
HETATM   17  C   UNL     1      27.034  41.289  47.871  1.00  0.00     0.242 C 
HETATM   18  C   UNL     1      26.762  42.186  49.094  1.00  0.00     0.057 C 
BRANCH  18  19
HETATM   19  C   UNL     1      25.367  42.763  49.135  1.00  0.00    -0.052 A 
HETATM   20  C   UNL     1      25.131  44.148  49.130  1.00  0.00     0.007 A 
HETATM   21  C   UNL     1      23.829  44.647  49.189  1.00  0.00     0.001 A 
HETATM   22  C   UNL     1      22.747  43.772  49.246  1.00  0.00     0.000 A 
HETATM   23  C   UNL     1      22.965  42.398  49.241  1.00  0.00     0.001 A 
HETATM   24  C   UNL     1      24.265  41.894  49.185  1.00  0.00     0.007 A 
ENDBRANCH  18  19
ENDBRANCH   4  12
BRANCH   1  25
HETATM   25  N   UNL     1      25.944  44.559  53.704  1.00  0.00    -0.375 N 
HETATM   26  C   UNL     1      25.069  44.090  54.778  1.00  0.00     0.150 C 
HETATM   27  C   UNL     1      25.311  45.478  52.747  1.00  0.00     0.150 C 
ENDBRANCH   1  25
BRANCH   9  28
HETATM   28  C   UNL     1      30.353  44.719  56.618  1.00  0.00     0.010 A 
HETATM   29  C   UNL     1      30.010  45.998  57.121  1.00  0.00     0.152 A 
HETATM   30  N   UNL     1      30.606  46.279  58.279  1.00  0.00    -0.187 NA
HETATM   31  N   UNL     1      31.342  45.188  58.533  1.00  0.00    -0.289 N 
HETATM   32  H   UNL     1      31.900  45.167  59.382  1.00  0.00     0.188 HD
HETATM   33  C   UNL     1      31.221  44.223  57.571  1.00  0.00     0.123 A 
ENDBRANCH   9  28
TORSDOF 4
ENDMDL
MODEL 5
REMARK VINA RESULT:      -9.4      3.041      6.912
REMARK  4 active torsions:
REMARK  status: ('A' for Active; 'I' for Inactive)
REMARK    1  A    between atoms: N_2  and  C_4 
REMARK    2  A    between atoms: C_7  and  C_21 
REMARK    3  A    between atoms: C_12  and  C_15 
REMARK    4  A    between atoms: C_27  and  C_28 
ROOT
HETATM    1  C   UNL     1      25.090  43.637  49.817  1.00  0.00     0.116 A 
HETATM    2  N   UNL     1      26.051  42.860  50.344  1.00  0.00    -0.330 N 
HETATM    3  H   UNL     1      25.968  41.860  50.203  1.00  0.00     0.168 HD
HETATM    4  C   UNL     1      27.103  43.389  50.981  1.00  0.00     0.112 A 
HETATM    5  N   UNL     1      27.302  44.716  51.094  1.00  0.00    -0.234 NA
HETATM    6  C   UNL     1      26.379  45.530  50.568  1.00  0.00     0.072 A 
HETATM    7  C   UNL     1      26.566  46.900  50.676  1.00  0.00     0.033 A 
HETATM    8  C   UNL     1      25.624  47.812  50.187  1.00  0.00     0.014 A 
HETATM    9  C   UNL     1      24.449  47.365  49.585  1.00  0.00    -0.022 A 
HETATM   10  C   UNL     1      24.260  45.981  49.464  1.00  0.00     0.030 A 
HETATM   11  C   UNL     1      25.225  45.048  49.929  1.00  0.00     0.037 A 
ENDROOT
BRANCH   4  12
HETATM   12  C   UNL     1      28.154  42.493  51.590  1.00  0.00     0.091 C 
HETATM   13  C   UNL     1      28.185  41.106  50.942  1.00  0.00     0.245 C 
HETATM   14  N   UNL     1      28.840  40.232  51.967  1.00  0.00    -0.074 N 
HETATM   15  H   UNL     1      28.490  39.261  51.907  1.00  0.00     0.277 HD
HETATM   16  H   UNL     1      29.860  40.152  51.813  1.00  0.00     0.277 HD
HETATM   17  C   UNL     1      28.563  40.812  53.327  1.00  0.00     0.242 C 
HETATM   18  C   UNL     1      27.860  42.157  53.063  1.00  0.00     0.057 C 
BRANCH  18  19
HETATM   19  C   UNL     1      28.286  43.266  53.996  1.00  0.00    -0.052 A 
HETATM   20  C   UNL     1      27.393  44.262  54.425  1.00  0.00     0.007 A 
HETATM   21  C   UNL     1      27.825  45.285  55.272  1.00  0.00     0.001 A 
HETATM   22  C   UNL     1      29.147  45.322  55.706  1.00  0.00     0.000 A 
HETATM   23  C   UNL     1      30.040  44.336  55.297  1.00  0.00     0.001 A 
HETATM   24  C   UNL     1      29.614  43.313  54.448  1.00  0.00     0.007 A 
ENDBRANCH  18  19
ENDBRANCH   4  12
BRANCH   1  25
HETATM   25  N   UNL     1      24.004  43.036  49.196  1.00  0.00    -0.375 N 
HETATM   26  C   UNL     1      22.837  42.647  49.987  1.00  0.00     0.150 C 
HETATM   27  C   UNL     1      24.338  42.123  48.094  1.00  0.00     0.150 C 
ENDBRANCH   1  25
BRANCH   9  28
HETATM   28  C   UNL     1      23.446  48.293  49.087  1.00  0.00     0.010 A 
HETATM   29  C   UNL     1      23.537  49.668  48.760  1.00  0.00     0.152 A 
HETATM   30  N   UNL     1      22.387  50.174  48.317  1.00  0.00    -0.187 NA
HETATM   31  N   UNL     1      21.542  49.133  48.358  1.00  0.00    -0.289 N 
HETATM   32  H   UNL     1      20.581  49.278  48.061  1.00  0.00     0.188 HD
HETATM   33  C   UNL     1      22.130  47.983  48.807  1.00  0.00     0.123 A 
ENDBRANCH   9  28
TORSDOF 4
ENDMDL
MODEL 6
REMARK VINA RESULT:      -9.1      3.029      6.513
REMARK  4 active torsions:
REMARK  status: ('A' for Active; 'I' for Inactive)
REMARK    1  A    between atoms: N_2  and  C_4 
REMARK    2  A    between atoms: C_7  and  C_21 
REMARK    3  A    between atoms: C_12  and  C_15 
REMARK    4  A    between atoms: C_27  and  C_28 
ROOT
HETATM    1  C   UNL     1      25.871  45.321  50.836  1.00  0.00     0.116 A 
HETATM    2  N   UNL     1      26.880  44.568  51.306  1.00  0.00    -0.330 N 
HETATM    3  H   UNL     1      27.612  45.044  51.822  1.00  0.00     0.168 HD
HETATM    4  C   UNL     1      26.888  43.239  51.148  1.00  0.00     0.112 A 
HETATM    5  N   UNL     1      25.881  42.562  50.565  1.00  0.00    -0.234 NA
HETATM    6  C   UNL     1      24.846  43.270  50.097  1.00  0.00     0.072 A 
HETATM    7  C   UNL     1      23.800  42.590  49.491  1.00  0.00     0.033 A 
HETATM    8  C   UNL     1      22.704  43.264  48.941  1.00  0.00     0.014 A 
HETATM    9  C   UNL     1      22.639  44.656  48.973  1.00  0.00    -0.022 A 
HETATM   10  C   UNL     1      23.689  45.347  49.593  1.00  0.00     0.030 A 
HETATM   11  C   UNL     1      24.790  44.670  50.182  1.00  0.00     0.037 A 
ENDROOT
BRANCH   4  12
HETATM   12  C   UNL     1      28.048  42.419  51.660  1.00  0.00     0.091 C 
HETATM   13  C   UNL     1      28.126  41.042  50.996  1.00  0.00     0.245 C 
HETATM   14  N   UNL     1      28.925  40.212  51.955  1.00  0.00    -0.074 N 
HETATM   15  H   UNL     1      28.642  39.218  51.914  1.00  0.00     0.277 HD
HETATM   16  H   UNL     1      29.931  40.208  51.718  1.00  0.00     0.277 HD
HETATM   17  C   UNL     1      28.719  40.763  53.339  1.00  0.00     0.242 C 
HETATM   18  C   UNL     1      27.901  42.055  53.149  1.00  0.00     0.057 C 
BRANCH  18  19
HETATM   19  C   UNL     1      28.320  43.188  54.056  1.00  0.00    -0.052 A 
HETATM   20  C   UNL     1      27.413  44.168  54.492  1.00  0.00     0.007 A 
HETATM   21  C   UNL     1      27.838  45.213  55.314  1.00  0.00     0.001 A 
HETATM   22  C   UNL     1      29.169  45.288  55.717  1.00  0.00     0.000 A 
HETATM   23  C   UNL     1      30.076  44.318  55.301  1.00  0.00     0.001 A 
HETATM   24  C   UNL     1      29.656  43.273  54.477  1.00  0.00     0.007 A 
ENDBRANCH  18  19
ENDBRANCH   4  12
BRANCH   1  25
HETATM   25  N   UNL     1      25.928  46.698  50.998  1.00  0.00    -0.375 N 
HETATM   26  C   UNL     1      26.558  47.526  49.970  1.00  0.00     0.150 C 
HETATM   27  C   UNL     1      26.134  47.161  52.378  1.00  0.00     0.150 C 
ENDBRANCH   1  25
BRANCH   9  28
HETATM   28  C   UNL     1      21.520  45.380  48.391  1.00  0.00     0.010 A 
HETATM   29  C   UNL     1      20.130  45.302  48.649  1.00  0.00     0.152 A 
HETATM   30  N   UNL     1      19.415  46.149  47.910  1.00  0.00    -0.187 NA
HETATM   31  N   UNL     1      20.335  46.780  47.166  1.00  0.00    -0.289 N 
HETATM   32  H   UNL     1      20.022  47.488  46.508  1.00  0.00     0.188 HD
HETATM   33  C   UNL     1      21.611  46.358  47.420  1.00  0.00     0.123 A 
ENDBRANCH   9  28
TORSDOF 4
ENDMDL
MODEL 7
REMARK VINA RESULT:      -8.9      6.600     10.262
REMARK  4 active torsions:
REMARK  status: ('A' for Active; 'I' for Inactive)
REMARK    1  A    between atoms: N_2  and  C_4 
REMARK    2  A    between atoms: C_7  and  C_21 
REMARK    3  A    between atoms: C_12  and  C_15 
REMARK    4  A    between atoms: C_27  and  C_28 
ROOT
HETATM    1  C   UNL     1      22.097  47.442  48.538  1.00  0.00     0.116 A 
HETATM    2  N   UNL     1      23.413  47.480  48.806  1.00  0.00    -0.330 N 
HETATM    3  H   UNL     1      23.957  46.657  48.572  1.00  0.00     0.168 HD
HETATM    4  C   UNL     1      23.989  48.579  49.307  1.00  0.00     0.112 A 
HETATM    5  N   UNL     1      23.318  49.725  49.528  1.00  0.00    -0.234 NA
HETATM    6  C   UNL     1      22.007  49.740  49.259  1.00  0.00     0.072 A 
HETATM    7  C   UNL     1      21.299  50.911  49.482  1.00  0.00     0.033 A 
HETATM    8  C   UNL     1      19.919  50.990  49.263  1.00  0.00     0.014 A 
HETATM    9  C   UNL     1      19.205  49.875  48.825  1.00  0.00    -0.022 A 
HETATM   10  C   UNL     1      19.919  48.692  48.589  1.00  0.00     0.030 A 
HETATM   11  C   UNL     1      21.324  48.612  48.778  1.00  0.00     0.037 A 
ENDROOT
BRANCH   4  12
HETATM   12  C   UNL     1      25.464  48.586  49.627  1.00  0.00     0.091 C 
HETATM   13  C   UNL     1      26.293  49.282  48.544  1.00  0.00     0.245 C 
HETATM   14  N   UNL     1      27.677  48.738  48.728  1.00  0.00    -0.074 N 
HETATM   15  H   UNL     1      28.187  48.706  47.829  1.00  0.00     0.277 HD
HETATM   16  H   UNL     1      28.253  49.345  49.335  1.00  0.00     0.277 HD
HETATM   17  C   UNL     1      27.566  47.361  49.322  1.00  0.00     0.242 C 
HETATM   18  C   UNL     1      26.071  47.171  49.642  1.00  0.00     0.057 C 
BRANCH  18  19
HETATM   19  C   UNL     1      25.807  46.452  50.943  1.00  0.00    -0.052 A 
HETATM   20  C   UNL     1      25.271  45.154  50.982  1.00  0.00     0.007 A 
HETATM   21  C   UNL     1      25.021  44.526  52.203  1.00  0.00     0.001 A 
HETATM   22  C   UNL     1      25.307  45.181  53.398  1.00  0.00     0.000 A 
HETATM   23  C   UNL     1      25.848  46.463  53.375  1.00  0.00     0.001 A 
HETATM   24  C   UNL     1      26.098  47.096  52.156  1.00  0.00     0.007 A 
ENDBRANCH  18  19
ENDBRANCH   4  12
BRANCH   1  25
HETATM   25  N   UNL     1      21.543  46.267  48.050  1.00  0.00    -0.375 N 
HETATM   26  C   UNL     1      21.713  45.019  48.793  1.00  0.00     0.150 C 
HETATM   27  C   UNL     1      21.562  46.124  46.587  1.00  0.00     0.150 C 
ENDBRANCH   1  25
BRANCH   9  28
HETATM   28  C   UNL     1      17.768  49.927  48.610  1.00  0.00     0.010 A 
HETATM   29  C   UNL     1      16.855  48.926  48.198  1.00  0.00     0.152 A 
HETATM   30  N   UNL     1      15.599  49.364  48.128  1.00  0.00    -0.187 NA
HETATM   31  N   UNL     1      15.689  50.653  48.489  1.00  0.00    -0.289 N 
HETATM   32  H   UNL     1      14.839  51.210  48.510  1.00  0.00     0.188 HD
HETATM   33  C   UNL     1      16.966  51.037  48.792  1.00  0.00     0.123 A 
ENDBRANCH   9  28
TORSDOF 4
ENDMDL
MODEL 8
REMARK VINA RESULT:      -8.7      1.884      8.386
REMARK  4 active torsions:
REMARK  status: ('A' for Active; 'I' for Inactive)
REMARK    1  A    between atoms: N_2  and  C_4 
REMARK    2  A    between atoms: C_7  and  C_21 
REMARK    3  A    between atoms: C_12  and  C_15 
REMARK    4  A    between atoms: C_27  and  C_28 
ROOT
HETATM    1  C   UNL     1      26.808  42.460  51.115  1.00  0.00     0.116 A 
HETATM    2  N   UNL     1      27.092  41.297  50.505  1.00  0.00    -0.330 N 
HETATM    3  H   UNL     1      26.550  41.062  49.682  1.00  0.00     0.168 HD
HETATM    4  C   UNL     1      28.087  40.511  50.935  1.00  0.00     0.112 A 
HETATM    5  N   UNL     1      28.897  40.844  51.957  1.00  0.00    -0.234 NA
HETATM    6  C   UNL     1      28.663  42.003  52.584  1.00  0.00     0.072 A 
HETATM    7  C   UNL     1      29.485  42.361  53.641  1.00  0.00     0.033 A 
HETATM    8  C   UNL     1      29.277  43.538  54.371  1.00  0.00     0.014 A 
HETATM    9  C   UNL     1      28.213  44.384  54.062  1.00  0.00    -0.022 A 
HETATM   10  C   UNL     1      27.385  44.031  52.988  1.00  0.00     0.030 A 
HETATM   11  C   UNL     1      27.608  42.856  52.222  1.00  0.00     0.037 A 
ENDROOT
BRANCH   4  12
HETATM   12  C   UNL     1      28.366  39.195  50.250  1.00  0.00     0.091 C 
HETATM   13  C   UNL     1      29.422  38.367  50.987  1.00  0.00     0.245 C 
HETATM   14  N   UNL     1      29.950  37.427  49.946  1.00  0.00    -0.074 N 
HETATM   15  H   UNL     1      30.940  37.190  50.126  1.00  0.00     0.277 HD
HETATM   16  H   UNL     1      29.457  36.519  49.960  1.00  0.00     0.277 HD
HETATM   17  C   UNL     1      29.798  38.082  48.600  1.00  0.00     0.242 C 
HETATM   18  C   UNL     1      29.006  39.377  48.862  1.00  0.00     0.057 C 
BRANCH  18  19
HETATM   19  C   UNL     1      27.980  39.696  47.800  1.00  0.00    -0.052 A 
HETATM   20  C   UNL     1      26.774  38.985  47.691  1.00  0.00     0.007 A 
HETATM   21  C   UNL     1      25.857  39.293  46.684  1.00  0.00     0.001 A 
HETATM   22  C   UNL     1      26.128  40.316  45.780  1.00  0.00     0.000 A 
HETATM   23  C   UNL     1      27.315  41.036  45.883  1.00  0.00     0.001 A 
HETATM   24  C   UNL     1      28.236  40.730  46.886  1.00  0.00     0.007 A 
ENDBRANCH  18  19
ENDBRANCH   4  12
BRANCH   1  25
HETATM   25  N   UNL     1      25.745  43.222  50.650  1.00  0.00    -0.375 N 
HETATM   26  C   UNL     1      24.395  42.660  50.644  1.00  0.00     0.150 C 
HETATM   27  C   UNL     1      26.054  44.104  49.515  1.00  0.00     0.150 C 
ENDBRANCH   1  25
BRANCH   9  28
HETATM   28  C   UNL     1      27.965  45.602  54.818  1.00  0.00     0.010 A 
HETATM   29  C   UNL     1      27.167  46.733  54.518  1.00  0.00     0.152 A 
HETATM   30  N   UNL     1      27.185  47.652  55.482  1.00  0.00    -0.187 NA
HETATM   31  N   UNL     1      27.997  47.127  56.411  1.00  0.00    -0.289 N 
HETATM   32  H   UNL     1      28.171  47.658  57.259  1.00  0.00     0.188 HD
HETATM   33  C   UNL     1      28.486  45.897  56.062  1.00  0.00     0.123 A 
ENDBRANCH   9  28
TORSDOF 4
ENDMDL
MODEL 9
REMARK VINA RESULT:      -8.6      4.957      8.457
REMARK  4 active torsions:
REMARK  status: ('A' for Active; 'I' for Inactive)
REMARK    1  A    between atoms: N_2  and  C_4 
REMARK    2  A    between atoms: C_7  and  C_21 
REMARK    3  A    between atoms: C_12  and  C_15 
REMARK    4  A    between atoms: C_27  and  C_28 
ROOT
HETATM    1  C   UNL     1      23.790  45.472  49.316  1.00  0.00     0.116 A 
HETATM    2  N   UNL     1      23.242  46.559  48.747  1.00  0.00    -0.330 N 
HETATM    3  H   UNL     1      22.565  46.404  48.009  1.00  0.00     0.168 HD
HETATM    4  C   UNL     1      23.536  47.792  49.177  1.00  0.00     0.112 A 
HETATM    5  N   UNL     1      24.346  48.031  50.225  1.00  0.00    -0.234 NA
HETATM    6  C   UNL     1      24.902  46.977  50.835  1.00  0.00     0.072 A 
HETATM    7  C   UNL     1      25.740  47.203  51.916  1.00  0.00     0.033 A 
HETATM    8  C   UNL     1      26.389  46.154  52.577  1.00  0.00     0.014 A 
HETATM    9  C   UNL     1      26.221  44.837  52.153  1.00  0.00    -0.022 A 
HETATM   10  C   UNL     1      25.366  44.602  51.067  1.00  0.00     0.030 A 
HETATM   11  C   UNL     1      24.679  45.657  50.410  1.00  0.00     0.037 A 
ENDROOT
BRANCH   4  12
HETATM   12  C   UNL     1      22.930  48.998  48.501  1.00  0.00     0.091 C 
HETATM   13  C   UNL     1      23.894  50.186  48.453  1.00  0.00     0.245 C 
HETATM   14  N   UNL     1      23.005  51.380  48.278  1.00  0.00    -0.074 N 
HETATM   15  H   UNL     1      23.418  52.220  48.718  1.00  0.00     0.277 HD
HETATM   16  H   UNL     1      22.892  51.635  47.282  1.00  0.00     0.277 HD
HETATM   17  C   UNL     1      21.668  51.064  48.889  1.00  0.00     0.242 C 
HETATM   18  C   UNL     1      21.739  49.578  49.287  1.00  0.00     0.057 C 
BRANCH  18  19
HETATM   19  C   UNL     1      20.463  48.811  49.033  1.00  0.00    -0.052 A 
HETATM   20  C   UNL     1      20.243  48.102  47.841  1.00  0.00     0.007 A 
HETATM   21  C   UNL     1      19.043  47.420  47.631  1.00  0.00     0.001 A 
HETATM   22  C   UNL     1      18.052  47.432  48.609  1.00  0.00     0.000 A 
HETATM   23  C   UNL     1      18.260  48.122  49.800  1.00  0.00     0.001 A 
HETATM   24  C   UNL     1      19.457  48.807  50.013  1.00  0.00     0.007 A 
ENDBRANCH  18  19
ENDBRANCH   4  12
BRANCH   1  25
HETATM   25  N   UNL     1      23.476  44.218  48.810  1.00  0.00    -0.375 N 
HETATM   26  C   UNL     1      23.466  43.998  47.365  1.00  0.00     0.150 C 
HETATM   27  C   UNL     1      22.448  43.479  49.557  1.00  0.00     0.150 C 
ENDBRANCH   1  25
BRANCH   9  28
HETATM   28  C   UNL     1      26.900  43.732  52.811  1.00  0.00     0.010 A 
HETATM   29  C   UNL     1      27.385  42.504  52.300  1.00  0.00     0.152 A 
HETATM   30  N   UNL     1      27.967  41.747  53.228  1.00  0.00    -0.187 NA
HETATM   31  N   UNL     1      27.861  42.477  54.349  1.00  0.00    -0.289 N 
HETATM   32  H   UNL     1      28.242  42.097  55.211  1.00  0.00     0.188 HD
HETATM   33  C   UNL     1      27.234  43.676  54.150  1.00  0.00     0.123 A 
ENDBRANCH   9  28
TORSDOF 4
ENDMDL
MODEL 10
REMARK VINA RESULT:      -8.6      2.678      7.810
REMARK  4 active torsions:
REMARK  status: ('A' for Active; 'I' for Inactive)
REMARK    1  A    between atoms: N_2  and  C_4 
REMARK    2  A    between atoms: C_7  and  C_21 
REMARK    3  A    between atoms: C_12  and  C_15 
REMARK    4  A    between atoms: C_27  and  C_28 
ROOT
HETATM    1  C   UNL     1      27.086  44.533  52.151  1.00  0.00     0.116 A 
HETATM    2  N   UNL     1      26.372  44.936  51.086  1.00  0.00    -0.330 N 
HETATM    3  H   UNL     1      26.168  44.242  50.376  1.00  0.00     0.168 HD
HETATM    4  C   UNL     1      25.905  46.187  50.995  1.00  0.00     0.112 A 
HETATM    5  N   UNL     1      26.065  47.104  51.968  1.00  0.00    -0.234 NA
HETATM    6  C   UNL     1      26.755  46.741  53.056  1.00  0.00     0.072 A 
HETATM    7  C   UNL     1      26.931  47.673  54.068  1.00  0.00     0.033 A 
HETATM    8  C   UNL     1      27.675  47.380  55.217  1.00  0.00     0.014 A 
HETATM    9  C   UNL     1      28.281  46.134  55.371  1.00  0.00    -0.022 A 
HETATM   10  C   UNL     1      28.096  45.185  54.356  1.00  0.00     0.030 A 
HETATM   11  C   UNL     1      27.317  45.463  53.201  1.00  0.00     0.037 A 
ENDROOT
BRANCH   4  12
HETATM   12  C   UNL     1      25.132  46.623  49.774  1.00  0.00     0.091 C 
HETATM   13  C   UNL     1      24.991  48.145  49.685  1.00  0.00     0.245 C 
HETATM   14  N   UNL     1      23.805  48.357  48.796  1.00  0.00    -0.074 N 
HETATM   15  H   UNL     1      23.305  49.229  49.042  1.00  0.00     0.277 HD
HETATM   16  H   UNL     1      24.080  48.484  47.807  1.00  0.00     0.277 HD
HETATM   17  C   UNL     1      22.894  47.168  48.933  1.00  0.00     0.242 C 
HETATM   18  C   UNL     1      23.663  46.163  49.811  1.00  0.00     0.057 C 
BRANCH  18  19
HETATM   19  C   UNL     1      23.506  44.724  49.379  1.00  0.00    -0.052 A 
HETATM   20  C   UNL     1      23.081  43.721  50.266  1.00  0.00     0.007 A 
HETATM   21  C   UNL     1      22.965  42.397  49.838  1.00  0.00     0.001 A 
HETATM   22  C   UNL     1      23.266  42.059  48.521  1.00  0.00     0.000 A 
HETATM   23  C   UNL     1      23.679  43.044  47.629  1.00  0.00     0.001 A 
HETATM   24  C   UNL     1      23.798  44.368  48.052  1.00  0.00     0.007 A 
ENDBRANCH  18  19
ENDBRANCH   4  12
BRANCH   1  25
HETATM   25  N   UNL     1      27.575  43.234  52.180  1.00  0.00    -0.375 N 
HETATM   26  C   UNL     1      29.018  43.000  52.160  1.00  0.00     0.150 C 
HETATM   27  C   UNL     1      26.777  42.246  51.441  1.00  0.00     0.150 C 
ENDBRANCH   1  25
BRANCH   9  28
HETATM   28  C   UNL     1      29.074  45.813  56.546  1.00  0.00     0.010 A 
HETATM   29  C   UNL     1      30.303  45.120  56.676  1.00  0.00     0.152 A 
HETATM   30  N   UNL     1      30.724  45.038  57.937  1.00  0.00    -0.187 NA
HETATM   31  N   UNL     1      29.771  45.674  58.634  1.00  0.00    -0.289 N 
HETATM   32  H   UNL     1      29.874  45.742  59.643  1.00  0.00     0.188 HD
HETATM   33  C   UNL     1      28.764  46.160  57.847  1.00  0.00     0.123 A 
ENDBRANCH   9  28
TORSDOF 4
ENDMDL
