MODEL 1
REMARK VINA RESULT:     -10.3      0.000      0.000
REMARK  3 active torsions:
REMARK  status: ('A' for Active; 'I' for Inactive)
REMARK    1  A    between atoms: C_9  and  C_10 
REMARK       I    between atoms: C_10  and  N_11 
REMARK    2  A    between atoms: N_11  and  C_12 
REMARK    3  A    between atoms: C_19  and  C_20 
REMARK       I    between atoms: C_20  and  N_21 
ROOT
HETATM    1  C   UNL     1      25.861  47.350  50.465  1.00  0.00     0.035 A 
HETATM    2  C   UNL     1      24.594  47.617  49.932  1.00  0.00     0.046 A 
HETATM    3  C   UNL     1      24.449  48.647  48.978  1.00  0.00     0.030 A 
HETATM    4  C   UNL     1      25.575  49.352  48.572  1.00  0.00     0.063 A 
HETATM    5  N   UNL     1      25.122  50.271  47.668  1.00  0.00    -0.277 N 
HETATM    6  H   UNL     1      25.671  50.962  47.169  1.00  0.00     0.189 HD
HETATM    7  N   UNL     1      23.796  50.237  47.456  1.00  0.00    -0.168 NA
HETATM    8  C   UNL     1      23.365  49.237  48.260  1.00  0.00     0.156 A 
HETATM    9  C   UNL     1      26.855  49.092  49.062  1.00  0.00     0.034 A 
HETATM   10  C   UNL     1      26.972  48.082  50.023  1.00  0.00     0.032 A 
ENDROOT
BRANCH   1  11
HETATM   11  N   UNL     1      26.087  46.435  51.507  1.00  0.00    -0.325 N 
HETATM   12  C   UNL     1      26.492  45.115  51.409  1.00  0.00     0.252 C 
HETATM   13  O   UNL     1      27.066  44.605  50.451  1.00  0.00    -0.270 OA
HETATM   14  H   UNL     1      25.807  46.726  52.437  1.00  0.00     0.169 HD
BRANCH  12  15
HETATM   15  C   UNL     1      26.055  44.257  52.618  1.00  0.00     0.225 C 
HETATM   16  C   UNL     1      25.964  45.161  53.857  1.00  0.00     0.083 C 
HETATM   17  C   UNL     1      27.299  44.879  54.436  1.00  0.00    -0.021 A 
HETATM   18  C   UNL     1      27.785  43.702  53.898  1.00  0.00     0.076 A 
HETATM   19  C   UNL     1      28.042  45.599  55.351  1.00  0.00     0.017 A 
HETATM   20  C   UNL     1      29.008  43.179  54.258  1.00  0.00     0.044 A 
HETATM   21  O   UNL     1      26.981  43.178  52.912  1.00  0.00    -0.336 OA
HETATM   22  C   UNL     1      29.795  43.896  55.174  1.00  0.00    -0.053 A 
HETATM   23  C   UNL     1      29.315  45.120  55.714  1.00  0.00    -0.055 A 
HETATM   24  C   UNL     1      31.159  43.369  55.531  1.00  0.00     0.049 C 
HETATM   25  C   UNL     1      30.162  45.945  56.647  1.00  0.00     0.049 C 
ENDBRANCH  12  15
ENDBRANCH   1  11
BRANCH   8  26
HETATM   26  C   UNL     1      21.941  48.885  48.336  1.00  0.00     0.270 C 
HETATM   27  N   UNL     1      21.338  49.249  49.509  1.00  0.00    -0.365 N 
HETATM   28  H   UNL     1      21.898  49.708  50.218  1.00  0.00     0.159 HD
HETATM   29  H   UNL     1      20.366  49.033  49.657  1.00  0.00     0.159 HD
HETATM   30  O   UNL     1      21.315  48.306  47.454  1.00  0.00    -0.266 OA
ENDBRANCH   8  26
TORSDOF 3
ENDMDL
MODEL 2
REMARK VINA RESULT:      -9.2      2.947      8.394
REMARK  3 active torsions:
REMARK  status: ('A' for Active; 'I' for Inactive)
REMARK    1  A    between atoms: C_9  and  C_10 
REMARK       I    between atoms: C_10  and  N_11 
REMARK    2  A    between atoms: N_11  and  C_12 
REMARK    3  A    between atoms: C_19  and  C_20 
REMARK       I    between atoms: C_20  and  N_21 
ROOT
HETATM    1  C   UNL     1      27.107  45.931  53.965  1.00  0.00     0.035 A 
HETATM    2  C   UNL     1      28.155  45.070  54.314  1.00  0.00     0.046 A 
HETATM    3  C   UNL     1      28.880  45.311  55.502  1.00  0.00     0.030 A 
HETATM    4  C   UNL     1      28.515  46.382  56.308  1.00  0.00     0.063 A 
HETATM    5  N   UNL     1      29.390  46.361  57.356  1.00  0.00    -0.277 N 
HETATM    6  H   UNL     1      29.424  47.005  58.139  1.00  0.00     0.189 HD
HETATM    7  N   UNL     1      30.303  45.378  57.302  1.00  0.00    -0.168 NA
HETATM    8  C   UNL     1      30.000  44.719  56.159  1.00  0.00     0.156 A 
HETATM    9  C   UNL     1      27.459  47.241  56.003  1.00  0.00     0.034 A 
HETATM   10  C   UNL     1      26.768  46.997  54.810  1.00  0.00     0.032 A 
ENDROOT
BRANCH   1  11
HETATM   11  N   UNL     1      26.411  45.851  52.747  1.00  0.00    -0.325 N 
HETATM   12  C   UNL     1      25.356  45.016  52.422  1.00  0.00     0.252 C 
HETATM   13  O   UNL     1      24.606  44.456  53.217  1.00  0.00    -0.270 OA
HETATM   14  H   UNL     1      26.795  46.375  51.968  1.00  0.00     0.169 HD
BRANCH  12  15
HETATM   15  C   UNL     1      25.247  44.743  50.905  1.00  0.00     0.225 C 
HETATM   16  C   UNL     1      26.559  45.174  50.230  1.00  0.00     0.083 C 
HETATM   17  C   UNL     1      26.145  46.524  49.782  1.00  0.00    -0.021 A 
HETATM   18  C   UNL     1      24.764  46.593  49.772  1.00  0.00     0.076 A 
HETATM   19  C   UNL     1      26.911  47.616  49.422  1.00  0.00     0.017 A 
HETATM   20  C   UNL     1      24.088  47.730  49.386  1.00  0.00     0.044 A 
HETATM   21  O   UNL     1      24.157  45.467  50.275  1.00  0.00    -0.336 OA
HETATM   22  C   UNL     1      24.838  48.863  49.031  1.00  0.00    -0.053 A 
HETATM   23  C   UNL     1      26.259  48.810  49.062  1.00  0.00    -0.055 A 
HETATM   24  C   UNL     1      24.114  50.131  48.665  1.00  0.00     0.049 C 
HETATM   25  C   UNL     1      27.090  50.026  48.750  1.00  0.00     0.049 C 
ENDBRANCH  12  15
ENDBRANCH   1  11
BRANCH   8  26
HETATM   26  C   UNL     1      30.792  43.562  55.717  1.00  0.00     0.270 C 
HETATM   27  N   UNL     1      31.570  43.011  56.698  1.00  0.00    -0.365 N 
HETATM   28  H   UNL     1      31.554  43.430  57.621  1.00  0.00     0.159 HD
HETATM   29  H   UNL     1      32.159  42.223  56.482  1.00  0.00     0.159 HD
HETATM   30  O   UNL     1      30.791  43.109  54.577  1.00  0.00    -0.266 OA
ENDBRANCH   8  26
TORSDOF 3
ENDMDL
MODEL 3
REMARK VINA RESULT:      -8.6      4.002     10.386
REMARK  3 active torsions:
REMARK  status: ('A' for Active; 'I' for Inactive)
REMARK    1  A    between atoms: C_9  and  C_10 
REMARK       I    between atoms: C_10  and  N_11 
REMARK    2  A    between atoms: N_11  and  C_12 
REMARK    3  A    between atoms: C_19  and  C_20 
REMARK       I    between atoms: C_20  and  N_21 
ROOT
HETATM    1  C   UNL     1      22.856  49.336  48.823  1.00  0.00     0.035 A 
HETATM    2  C   UNL     1      23.746  48.441  49.428  1.00  0.00     0.046 A 
HETATM    3  C   UNL     1      25.128  48.557  49.165  1.00  0.00     0.030 A 
HETATM    4  C   UNL     1      25.571  49.576  48.330  1.00  0.00     0.063 A 
HETATM    5  N   UNL     1      26.927  49.425  48.261  1.00  0.00    -0.277 N 
HETATM    6  H   UNL     1      27.580  49.994  47.734  1.00  0.00     0.189 HD
HETATM    7  N   UNL     1      27.409  48.390  48.967  1.00  0.00    -0.168 NA
HETATM    8  C   UNL     1      26.309  47.843  49.532  1.00  0.00     0.156 A 
HETATM    9  C   UNL     1      24.713  50.501  47.734  1.00  0.00     0.034 A 
HETATM   10  C   UNL     1      23.345  50.353  47.992  1.00  0.00     0.032 A 
ENDROOT
BRANCH   1  11
HETATM   11  N   UNL     1      21.458  49.225  48.922  1.00  0.00    -0.325 N 
HETATM   12  C   UNL     1      20.588  50.036  49.629  1.00  0.00     0.252 C 
HETATM   13  O   UNL     1      20.811  51.185  50.000  1.00  0.00    -0.270 OA
HETATM   14  H   UNL     1      21.040  48.386  48.535  1.00  0.00     0.169 HD
BRANCH  12  15
HETATM   15  C   UNL     1      19.280  49.315  50.029  1.00  0.00     0.225 C 
HETATM   16  C   UNL     1      18.602  48.781  48.758  1.00  0.00     0.083 C 
HETATM   17  C   UNL     1      17.647  49.892  48.533  1.00  0.00    -0.021 A 
HETATM   18  C   UNL     1      17.500  50.606  49.708  1.00  0.00     0.076 A 
HETATM   19  C   UNL     1      16.968  50.263  47.389  1.00  0.00     0.017 A 
HETATM   20  C   UNL     1      16.662  51.696  49.805  1.00  0.00     0.044 A 
HETATM   21  O   UNL     1      18.339  50.184  50.712  1.00  0.00    -0.336 OA
HETATM   22  C   UNL     1      15.970  52.109  48.655  1.00  0.00    -0.053 A 
HETATM   23  C   UNL     1      16.134  51.395  47.436  1.00  0.00    -0.055 A 
HETATM   24  C   UNL     1      15.098  53.333  48.731  1.00  0.00     0.049 C 
HETATM   25  C   UNL     1      15.457  51.852  46.170  1.00  0.00     0.049 C 
ENDBRANCH  12  15
ENDBRANCH   1  11
BRANCH   8  26
HETATM   26  C   UNL     1      26.406  46.651  50.386  1.00  0.00     0.270 C 
HETATM   27  N   UNL     1      26.710  45.502  49.708  1.00  0.00    -0.365 N 
HETATM   28  H   UNL     1      26.831  45.551  48.703  1.00  0.00     0.159 HD
HETATM   29  H   UNL     1      26.782  44.632  50.210  1.00  0.00     0.159 HD
HETATM   30  O   UNL     1      26.227  46.643  51.599  1.00  0.00    -0.266 OA
ENDBRANCH   8  26
TORSDOF 3
ENDMDL
MODEL 4
REMARK VINA RESULT:      -8.6      4.885      8.240
REMARK  3 active torsions:
REMARK  status: ('A' for Active; 'I' for Inactive)
REMARK    1  A    between atoms: C_9  and  C_10 
REMARK       I    between atoms: C_10  and  N_11 
REMARK    2  A    between atoms: N_11  and  C_12 
REMARK    3  A    between atoms: C_19  and  C_20 
REMARK       I    between atoms: C_20  and  N_21 
ROOT
HETATM    1  C   UNL     1      28.639  43.756  52.464  1.00  0.00     0.035 A 
HETATM    2  C   UNL     1      28.491  44.627  53.550  1.00  0.00     0.046 A 
HETATM    3  C   UNL     1      29.308  44.457  54.689  1.00  0.00     0.030 A 
HETATM    4  C   UNL     1      30.258  43.443  54.689  1.00  0.00     0.063 A 
HETATM    5  N   UNL     1      30.872  43.522  55.907  1.00  0.00    -0.277 N 
HETATM    6  H   UNL     1      31.617  42.930  56.257  1.00  0.00     0.189 HD
HETATM    7  N   UNL     1      30.400  44.491  56.708  1.00  0.00    -0.168 NA
HETATM    8  C   UNL     1      29.431  45.078  55.968  1.00  0.00     0.156 A 
HETATM    9  C   UNL     1      30.450  42.576  53.613  1.00  0.00     0.034 A 
HETATM   10  C   UNL     1      29.614  42.749  52.504  1.00  0.00     0.032 A 
ENDROOT
BRANCH   1  11
HETATM   11  N   UNL     1      27.792  43.764  51.342  1.00  0.00    -0.325 N 
HETATM   12  C   UNL     1      26.523  43.224  51.230  1.00  0.00     0.252 C 
HETATM   13  O   UNL     1      25.764  42.961  52.159  1.00  0.00    -0.270 OA
HETATM   14  H   UNL     1      28.194  44.094  50.471  1.00  0.00     0.169 HD
BRANCH  12  15
HETATM   15  C   UNL     1      26.148  42.861  49.775  1.00  0.00     0.225 C 
HETATM   16  C   UNL     1      25.216  41.640  49.796  1.00  0.00     0.083 C 
HETATM   17  C   UNL     1      26.228  40.584  49.553  1.00  0.00    -0.021 A 
HETATM   18  C   UNL     1      27.363  41.162  49.015  1.00  0.00     0.076 A 
HETATM   19  C   UNL     1      26.172  39.226  49.794  1.00  0.00     0.017 A 
HETATM   20  C   UNL     1      28.473  40.421  48.674  1.00  0.00     0.044 A 
HETATM   21  O   UNL     1      27.302  42.535  48.956  1.00  0.00    -0.336 OA
HETATM   22  C   UNL     1      28.454  39.039  48.923  1.00  0.00    -0.053 A 
HETATM   23  C   UNL     1      27.301  38.440  49.498  1.00  0.00    -0.055 A 
HETATM   24  C   UNL     1      29.682  38.226  48.611  1.00  0.00     0.049 C 
HETATM   25  C   UNL     1      27.273  36.973  49.837  1.00  0.00     0.049 C 
ENDBRANCH  12  15
ENDBRANCH   1  11
BRANCH   8  26
HETATM   26  C   UNL     1      28.641  46.197  56.501  1.00  0.00     0.270 C 
HETATM   27  N   UNL     1      28.608  46.255  57.868  1.00  0.00    -0.365 N 
HETATM   28  H   UNL     1      29.103  45.544  58.394  1.00  0.00     0.159 HD
HETATM   29  H   UNL     1      28.077  46.979  58.322  1.00  0.00     0.159 HD
HETATM   30  O   UNL     1      28.041  47.018  55.816  1.00  0.00    -0.266 OA
ENDBRANCH   8  26
TORSDOF 3
ENDMDL
MODEL 5
REMARK VINA RESULT:      -8.2      4.201      9.624
REMARK  3 active torsions:
REMARK  status: ('A' for Active; 'I' for Inactive)
REMARK    1  A    between atoms: C_9  and  C_10 
REMARK       I    between atoms: C_10  and  N_11 
REMARK    2  A    between atoms: N_11  and  C_12 
REMARK    3  A    between atoms: C_19  and  C_20 
REMARK       I    between atoms: C_20  and  N_21 
ROOT
HETATM    1  C   UNL     1      22.251  48.623  49.065  1.00  0.00     0.035 A 
HETATM    2  C   UNL     1      23.482  48.062  49.424  1.00  0.00     0.046 A 
HETATM    3  C   UNL     1      24.675  48.685  48.999  1.00  0.00     0.030 A 
HETATM    4  C   UNL     1      24.595  49.857  48.256  1.00  0.00     0.063 A 
HETATM    5  N   UNL     1      25.888  50.207  47.990  1.00  0.00    -0.277 N 
HETATM    6  H   UNL     1      26.209  51.010  47.461  1.00  0.00     0.189 HD
HETATM    7  N   UNL     1      26.807  49.362  48.483  1.00  0.00    -0.168 NA
HETATM    8  C   UNL     1      26.073  48.414  49.110  1.00  0.00     0.156 A 
HETATM    9  C   UNL     1      23.385  50.456  47.905  1.00  0.00     0.034 A 
HETATM   10  C   UNL     1      22.214  49.809  48.319  1.00  0.00     0.032 A 
ENDROOT
BRANCH   1  11
HETATM   11  N   UNL     1      21.013  48.012  49.331  1.00  0.00    -0.325 N 
HETATM   12  C   UNL     1      20.368  47.037  48.590  1.00  0.00     0.252 C 
HETATM   13  O   UNL     1      20.893  46.278  47.781  1.00  0.00    -0.270 OA
HETATM   14  H   UNL     1      20.462  48.409  50.085  1.00  0.00     0.169 HD
BRANCH  12  15
HETATM   15  C   UNL     1      18.835  47.043  48.790  1.00  0.00     0.225 C 
HETATM   16  C   UNL     1      18.165  47.409  47.456  1.00  0.00     0.083 C 
HETATM   17  C   UNL     1      17.968  48.859  47.698  1.00  0.00    -0.021 A 
HETATM   18  C   UNL     1      18.050  49.105  49.056  1.00  0.00     0.076 A 
HETATM   19  C   UNL     1      17.749  49.887  46.803  1.00  0.00     0.017 A 
HETATM   20  C   UNL     1      17.896  50.369  49.583  1.00  0.00     0.044 A 
HETATM   21  O   UNL     1      18.397  47.998  49.793  1.00  0.00    -0.336 OA
HETATM   22  C   UNL     1      17.688  51.440  48.698  1.00  0.00    -0.053 A 
HETATM   23  C   UNL     1      17.627  51.199  47.298  1.00  0.00    -0.055 A 
HETATM   24  C   UNL     1      17.578  52.834  49.255  1.00  0.00     0.049 C 
HETATM   25  C   UNL     1      17.471  52.333  46.320  1.00  0.00     0.049 C 
ENDBRANCH  12  15
ENDBRANCH   1  11
BRANCH   8  26
HETATM   26  C   UNL     1      26.714  47.273  49.778  1.00  0.00     0.270 C 
HETATM   27  N   UNL     1      26.440  47.184  51.115  1.00  0.00    -0.365 N 
HETATM   28  H   UNL     1      25.846  47.889  51.536  1.00  0.00     0.159 HD
HETATM   29  H   UNL     1      26.850  46.442  51.659  1.00  0.00     0.159 HD
HETATM   30  O   UNL     1      27.446  46.459  49.224  1.00  0.00    -0.266 OA
ENDBRANCH   8  26
TORSDOF 3
ENDMDL
MODEL 6
REMARK VINA RESULT:      -8.2      3.214      8.570
REMARK  3 active torsions:
REMARK  status: ('A' for Active; 'I' for Inactive)
REMARK    1  A    between atoms: C_9  and  C_10 
REMARK       I    between atoms: C_10  and  N_11 
REMARK    2  A    between atoms: N_11  and  C_12 
REMARK    3  A    between atoms: C_19  and  C_20 
REMARK       I    between atoms: C_20  and  N_21 
ROOT
HETATM    1  C   UNL     1      24.536  47.195  50.084  1.00  0.00     0.035 A 
HETATM    2  C   UNL     1      25.139  47.512  51.307  1.00  0.00     0.046 A 
HETATM    3  C   UNL     1      25.301  46.502  52.280  1.00  0.00     0.030 A 
HETATM    4  C   UNL     1      24.879  45.211  51.986  1.00  0.00     0.063 A 
HETATM    5  N   UNL     1      25.153  44.477  53.105  1.00  0.00    -0.277 N 
HETATM    6  H   UNL     1      24.973  43.490  53.250  1.00  0.00     0.189 HD
HETATM    7  N   UNL     1      25.706  45.176  54.110  1.00  0.00    -0.168 NA
HETATM    8  C   UNL     1      25.803  46.431  53.615  1.00  0.00     0.156 A 
HETATM    9  C   UNL     1      24.300  44.856  50.768  1.00  0.00     0.034 A 
HETATM   10  C   UNL     1      24.131  45.877  49.826  1.00  0.00     0.032 A 
ENDROOT
BRANCH   1  11
HETATM   11  N   UNL     1      24.218  48.151  49.105  1.00  0.00    -0.325 N 
HETATM   12  C   UNL     1      24.963  49.251  48.715  1.00  0.00     0.252 C 
HETATM   13  O   UNL     1      26.170  49.402  48.882  1.00  0.00    -0.270 OA
HETATM   14  H   UNL     1      23.282  48.111  48.716  1.00  0.00     0.169 HD
BRANCH  12  15
HETATM   15  C   UNL     1      24.099  50.383  48.114  1.00  0.00     0.225 C 
HETATM   16  C   UNL     1      23.353  51.093  49.255  1.00  0.00     0.083 C 
HETATM   17  C   UNL     1      22.061  50.372  49.158  1.00  0.00    -0.021 A 
HETATM   18  C   UNL     1      21.971  49.773  47.915  1.00  0.00     0.076 A 
HETATM   19  C   UNL     1      21.048  50.235  50.086  1.00  0.00     0.017 A 
HETATM   20  C   UNL     1      20.870  49.037  47.533  1.00  0.00     0.044 A 
HETATM   21  O   UNL     1      23.114  49.900  47.162  1.00  0.00    -0.336 OA
HETATM   22  C   UNL     1      19.829  48.865  48.460  1.00  0.00    -0.053 A 
HETATM   23  C   UNL     1      19.924  49.457  49.749  1.00  0.00    -0.055 A 
HETATM   24  C   UNL     1      18.647  48.015  48.078  1.00  0.00     0.049 C 
HETATM   25  C   UNL     1      18.856  49.237  50.788  1.00  0.00     0.049 C 
ENDBRANCH  12  15
ENDBRANCH   1  11
BRANCH   8  26
HETATM   26  C   UNL     1      26.352  47.528  54.425  1.00  0.00     0.270 C 
HETATM   27  N   UNL     1      27.719  47.567  54.458  1.00  0.00    -0.365 N 
HETATM   28  H   UNL     1      28.236  46.859  53.950  1.00  0.00     0.159 HD
HETATM   29  H   UNL     1      28.183  48.276  55.002  1.00  0.00     0.159 HD
HETATM   30  O   UNL     1      25.678  48.347  55.042  1.00  0.00    -0.266 OA
ENDBRANCH   8  26
TORSDOF 3
ENDMDL
MODEL 7
REMARK VINA RESULT:      -7.9     11.288     13.502
REMARK  3 active torsions:
REMARK  status: ('A' for Active; 'I' for Inactive)
REMARK    1  A    between atoms: C_9  and  C_10 
REMARK       I    between atoms: C_10  and  N_11 
REMARK    2  A    between atoms: N_11  and  C_12 
REMARK    3  A    between atoms: C_19  and  C_20 
REMARK       I    between atoms: C_20  and  N_21 
ROOT
HETATM    1  C   UNL     1      32.303  50.226  41.955  1.00  0.00     0.035 A 
HETATM    2  C   UNL     1      31.431  51.128  41.334  1.00  0.00     0.046 A 
HETATM    3  C   UNL     1      30.050  50.835  41.289  1.00  0.00     0.030 A 
HETATM    4  C   UNL     1      29.591  49.668  41.888  1.00  0.00     0.063 A 
HETATM    5  N   UNL     1      28.242  49.658  41.674  1.00  0.00    -0.277 N 
HETATM    6  H   UNL     1      27.580  48.949  41.970  1.00  0.00     0.189 HD
HETATM    7  N   UNL     1      27.780  50.709  40.978  1.00  0.00    -0.168 NA
HETATM    8  C   UNL     1      28.887  51.446  40.732  1.00  0.00     0.156 A 
HETATM    9  C   UNL     1      30.430  48.762  42.539  1.00  0.00     0.034 A 
HETATM   10  C   UNL     1      31.797  49.063  42.552  1.00  0.00     0.032 A 
ENDROOT
BRANCH   1  11
HETATM   11  N   UNL     1      33.702  50.365  41.941  1.00  0.00    -0.325 N 
HETATM   12  C   UNL     1      34.467  51.335  42.564  1.00  0.00     0.252 C 
HETATM   13  O   UNL     1      34.120  52.028  43.517  1.00  0.00    -0.270 OA
HETATM   14  H   UNL     1      34.213  49.763  41.304  1.00  0.00     0.169 HD
BRANCH  12  15
HETATM   15  C   UNL     1      35.829  51.568  41.871  1.00  0.00     0.225 C 
HETATM   16  C   UNL     1      36.908  50.772  42.623  1.00  0.00     0.083 C 
HETATM   17  C   UNL     1      37.424  51.860  43.487  1.00  0.00    -0.021 A 
HETATM   18  C   UNL     1      37.050  53.079  42.952  1.00  0.00     0.076 A 
HETATM   19  C   UNL     1      38.151  51.795  44.659  1.00  0.00     0.017 A 
HETATM   20  C   UNL     1      37.399  54.276  43.537  1.00  0.00     0.044 A 
HETATM   21  O   UNL     1      36.226  52.965  41.857  1.00  0.00    -0.336 OA
HETATM   22  C   UNL     1      38.125  54.244  44.740  1.00  0.00    -0.053 A 
HETATM   23  C   UNL     1      38.492  52.995  45.311  1.00  0.00    -0.055 A 
HETATM   24  C   UNL     1      38.461  55.542  45.422  1.00  0.00     0.049 C 
HETATM   25  C   UNL     1      39.212  52.925  46.632  1.00  0.00     0.049 C 
ENDBRANCH  12  15
ENDBRANCH   1  11
BRANCH   8  26
HETATM   26  C   UNL     1      28.812  52.696  39.963  1.00  0.00     0.270 C 
HETATM   27  N   UNL     1      28.480  52.522  38.648  1.00  0.00    -0.365 N 
HETATM   28  H   UNL     1      28.325  51.580  38.308  1.00  0.00     0.159 HD
HETATM   29  H   UNL     1      28.421  53.323  38.039  1.00  0.00     0.159 HD
HETATM   30  O   UNL     1      29.033  53.813  40.420  1.00  0.00    -0.266 OA
ENDBRANCH   8  26
TORSDOF 3
ENDMDL
MODEL 8
REMARK VINA RESULT:      -7.7      3.781      9.053
REMARK  3 active torsions:
REMARK  status: ('A' for Active; 'I' for Inactive)
REMARK    1  A    between atoms: C_9  and  C_10 
REMARK       I    between atoms: C_10  and  N_11 
REMARK    2  A    between atoms: N_11  and  C_12 
REMARK    3  A    between atoms: C_19  and  C_20 
REMARK       I    between atoms: C_20  and  N_21 
ROOT
HETATM    1  C   UNL     1      24.999  43.999  51.298  1.00  0.00     0.035 A 
HETATM    2  C   UNL     1      25.909  42.955  51.091  1.00  0.00     0.046 A 
HETATM    3  C   UNL     1      26.888  42.688  52.073  1.00  0.00     0.030 A 
HETATM    4  C   UNL     1      26.905  43.453  53.233  1.00  0.00     0.063 A 
HETATM    5  N   UNL     1      27.950  42.973  53.969  1.00  0.00    -0.277 N 
HETATM    6  H   UNL     1      28.262  43.300  54.876  1.00  0.00     0.189 HD
HETATM    7  N   UNL     1      28.627  41.969  53.388  1.00  0.00    -0.168 NA
HETATM    8  C   UNL     1      27.982  41.781  52.214  1.00  0.00     0.156 A 
HETATM    9  C   UNL     1      25.995  44.481  53.481  1.00  0.00     0.034 A 
HETATM   10  C   UNL     1      25.047  44.742  52.485  1.00  0.00     0.032 A 
ENDROOT
BRANCH   1  11
HETATM   11  N   UNL     1      24.072  44.422  50.330  1.00  0.00    -0.325 N 
HETATM   12  C   UNL     1      22.895  43.802  49.949  1.00  0.00     0.252 C 
HETATM   13  O   UNL     1      22.263  42.982  50.610  1.00  0.00    -0.270 OA
HETATM   14  H   UNL     1      24.347  45.208  49.750  1.00  0.00     0.169 HD
BRANCH  12  15
HETATM   15  C   UNL     1      22.462  44.160  48.509  1.00  0.00     0.225 C 
HETATM   16  C   UNL     1      23.110  45.497  48.117  1.00  0.00     0.083 C 
HETATM   17  C   UNL     1      21.974  46.395  48.433  1.00  0.00    -0.021 A 
HETATM   18  C   UNL     1      20.812  45.648  48.495  1.00  0.00     0.076 A 
HETATM   19  C   UNL     1      21.953  47.756  48.664  1.00  0.00     0.017 A 
HETATM   20  C   UNL     1      19.586  46.218  48.762  1.00  0.00     0.044 A 
HETATM   21  O   UNL     1      21.023  44.296  48.366  1.00  0.00    -0.336 OA
HETATM   22  C   UNL     1      19.534  47.598  49.018  1.00  0.00    -0.053 A 
HETATM   23  C   UNL     1      20.727  48.370  48.981  1.00  0.00    -0.055 A 
HETATM   24  C   UNL     1      18.211  48.224  49.371  1.00  0.00     0.049 C 
HETATM   25  C   UNL     1      20.715  49.838  49.315  1.00  0.00     0.049 C 
ENDBRANCH  12  15
ENDBRANCH   1  11
BRANCH   8  26
HETATM   26  C   UNL     1      28.431  40.762  51.254  1.00  0.00     0.270 C 
HETATM   27  N   UNL     1      29.136  39.736  51.820  1.00  0.00    -0.365 N 
HETATM   28  H   UNL     1      29.302  39.756  52.820  1.00  0.00     0.159 HD
HETATM   29  H   UNL     1      29.498  39.000  51.236  1.00  0.00     0.159 HD
HETATM   30  O   UNL     1      28.222  40.799  50.046  1.00  0.00    -0.266 OA
ENDBRANCH   8  26
TORSDOF 3
ENDMDL
MODEL 9
REMARK VINA RESULT:      -7.7     11.597     14.024
REMARK  3 active torsions:
REMARK  status: ('A' for Active; 'I' for Inactive)
REMARK    1  A    between atoms: C_9  and  C_10 
REMARK       I    between atoms: C_10  and  N_11 
REMARK    2  A    between atoms: N_11  and  C_12 
REMARK    3  A    between atoms: C_19  and  C_20 
REMARK       I    between atoms: C_20  and  N_21 
ROOT
HETATM    1  C   UNL     1      31.805  52.009  40.888  1.00  0.00     0.035 A 
HETATM    2  C   UNL     1      30.920  50.927  40.962  1.00  0.00     0.046 A 
HETATM    3  C   UNL     1      29.529  51.169  40.957  1.00  0.00     0.030 A 
HETATM    4  C   UNL     1      29.075  52.478  40.851  1.00  0.00     0.063 A 
HETATM    5  N   UNL     1      27.712  52.392  40.883  1.00  0.00    -0.277 N 
HETATM    6  H   UNL     1      27.049  53.158  40.833  1.00  0.00     0.189 HD
HETATM    7  N   UNL     1      27.235  51.144  41.012  1.00  0.00    -0.168 NA
HETATM    8  C   UNL     1      28.347  50.376  41.060  1.00  0.00     0.156 A 
HETATM    9  C   UNL     1      29.929  53.576  40.747  1.00  0.00     0.034 A 
HETATM   10  C   UNL     1      31.304  53.314  40.776  1.00  0.00     0.032 A 
ENDROOT
BRANCH   1  11
HETATM   11  N   UNL     1      33.199  51.881  41.012  1.00  0.00    -0.325 N 
HETATM   12  C   UNL     1      34.153  51.956  40.013  1.00  0.00     0.252 C 
HETATM   13  O   UNL     1      34.012  52.491  38.917  1.00  0.00    -0.270 OA
HETATM   14  H   UNL     1      33.549  51.578  41.915  1.00  0.00     0.169 HD
BRANCH  12  15
HETATM   15  C   UNL     1      35.448  51.185  40.356  1.00  0.00     0.225 C 
HETATM   16  C   UNL     1      35.420  50.810  41.846  1.00  0.00     0.083 C 
HETATM   17  C   UNL     1      36.227  51.936  42.373  1.00  0.00    -0.021 A 
HETATM   18  C   UNL     1      36.949  52.498  41.337  1.00  0.00     0.076 A 
HETATM   19  C   UNL     1      36.315  52.443  43.655  1.00  0.00     0.017 A 
HETATM   20  C   UNL     1      37.802  53.564  41.529  1.00  0.00     0.044 A 
HETATM   21  O   UNL     1      36.652  51.958  40.108  1.00  0.00    -0.336 OA
HETATM   22  C   UNL     1      37.902  54.113  42.818  1.00  0.00    -0.053 A 
HETATM   23  C   UNL     1      37.144  53.558  43.885  1.00  0.00    -0.055 A 
HETATM   24  C   UNL     1      38.783  55.315  43.031  1.00  0.00     0.049 C 
HETATM   25  C   UNL     1      37.178  54.165  45.262  1.00  0.00     0.049 C 
ENDBRANCH  12  15
ENDBRANCH   1  11
BRANCH   8  26
HETATM   26  C   UNL     1      28.257  48.918  41.219  1.00  0.00     0.270 C 
HETATM   27  N   UNL     1      28.448  48.484  42.502  1.00  0.00    -0.365 N 
HETATM   28  H   UNL     1      28.642  49.171  43.222  1.00  0.00     0.159 HD
HETATM   29  H   UNL     1      28.420  47.498  42.704  1.00  0.00     0.159 HD
HETATM   30  O   UNL     1      28.042  48.126  40.307  1.00  0.00    -0.266 OA
ENDBRANCH   8  26
TORSDOF 3
ENDMDL
MODEL 10
REMARK VINA RESULT:      -7.6     17.372     20.263
REMARK  3 active torsions:
REMARK  status: ('A' for Active; 'I' for Inactive)
REMARK    1  A    between atoms: C_9  and  C_10 
REMARK       I    between atoms: C_10  and  N_11 
REMARK    2  A    between atoms: N_11  and  C_12 
REMARK    3  A    between atoms: C_19  and  C_20 
REMARK       I    between atoms: C_20  and  N_21 
ROOT
HETATM    1  C   UNL     1      39.769  47.265  65.764  1.00  0.00     0.035 A 
HETATM    2  C   UNL     1      40.916  46.806  65.105  1.00  0.00     0.046 A 
HETATM    3  C   UNL     1      42.187  47.104  65.643  1.00  0.00     0.030 A 
HETATM    4  C   UNL     1      42.264  47.824  66.829  1.00  0.00     0.063 A 
HETATM    5  N   UNL     1      43.600  47.959  67.084  1.00  0.00    -0.277 N 
HETATM    6  H   UNL     1      44.027  48.437  67.870  1.00  0.00     0.189 HD
HETATM    7  N   UNL     1      44.403  47.402  66.164  1.00  0.00    -0.168 NA
HETATM    8  C   UNL     1      43.544  46.869  65.265  1.00  0.00     0.156 A 
HETATM    9  C   UNL     1      41.141  48.271  67.525  1.00  0.00     0.034 A 
HETATM   10  C   UNL     1      39.892  47.984  66.962  1.00  0.00     0.032 A 
ENDROOT
BRANCH   1  11
HETATM   11  N   UNL     1      38.470  47.130  65.245  1.00  0.00    -0.325 N 
HETATM   12  C   UNL     1      37.347  46.632  65.881  1.00  0.00     0.252 C 
HETATM   13  O   UNL     1      37.179  46.551  67.095  1.00  0.00    -0.270 OA
HETATM   14  H   UNL     1      38.358  47.300  64.251  1.00  0.00     0.169 HD
BRANCH  12  15
HETATM   15  C   UNL     1      36.301  46.058  64.898  1.00  0.00     0.225 C 
HETATM   16  C   UNL     1      35.657  44.815  65.533  1.00  0.00     0.083 C 
HETATM   17  C   UNL     1      36.494  43.777  64.885  1.00  0.00    -0.021 A 
HETATM   18  C   UNL     1      37.104  44.320  63.769  1.00  0.00     0.076 A 
HETATM   19  C   UNL     1      36.720  42.463  65.246  1.00  0.00     0.017 A 
HETATM   20  C   UNL     1      37.939  43.583  62.957  1.00  0.00     0.044 A 
HETATM   21  O   UNL     1      36.875  45.668  63.622  1.00  0.00    -0.336 OA
HETATM   22  C   UNL     1      38.202  42.249  63.306  1.00  0.00    -0.053 A 
HETATM   23  C   UNL     1      37.599  41.689  64.466  1.00  0.00    -0.055 A 
HETATM   24  C   UNL     1      39.159  41.450  62.462  1.00  0.00     0.049 C 
HETATM   25  C   UNL     1      37.912  40.283  64.904  1.00  0.00     0.049 C 
ENDBRANCH  12  15
ENDBRANCH   1  11
BRANCH   8  26
HETATM   26  C   UNL     1      44.033  46.170  64.069  1.00  0.00     0.270 C 
HETATM   27  N   UNL     1      45.395  46.162  63.946  1.00  0.00    -0.365 N 
HETATM   28  H   UNL     1      45.948  46.629  64.655  1.00  0.00     0.159 HD
HETATM   29  H   UNL     1      45.820  45.719  63.147  1.00  0.00     0.159 HD
HETATM   30  O   UNL     1      43.316  45.640  63.226  1.00  0.00    -0.266 OA
ENDBRANCH   8  26
TORSDOF 3
ENDMDL
