MODEL 1
REMARK VINA RESULT:     -10.6      0.000      0.000
REMARK  8 active torsions:
REMARK  status: ('A' for Active; 'I' for Inactive)
REMARK    1  A    between atoms: C_6  and  N_7 
REMARK       I    between atoms: N_7  and  C_8 
REMARK    2  A    between atoms: C_8  and  C_9 
REMARK    3  A    between atoms: C_9  and  N_10 
REMARK       I    between atoms: N_10  and  C_11 
REMARK    4  A    between atoms: C_11  and  C_12 
REMARK    5  A    between atoms: C_12  and  S_13 
REMARK    6  A    between atoms: S_13  and  C_14 
REMARK    7  A    between atoms: C_16  and  C_17 
REMARK    8  A    between atoms: C_20  and  O_21 
ROOT
HETATM    1  N   UNL     1      25.762  45.335  51.739  1.00  0.00    -0.352 N 
HETATM    2  C   UNL     1      25.988  46.612  51.293  1.00  0.00     0.227 C 
HETATM    3  O   UNL     1      25.805  47.592  52.015  1.00  0.00    -0.273 OA
HETATM    4  H   UNL     1      26.033  44.561  51.134  1.00  0.00     0.162 HD
ENDROOT
BRANCH   2   5
HETATM    5  C   UNL     1      26.432  46.732  49.842  1.00  0.00     0.185 C 
BRANCH   5   6
HETATM    6  S   UNL     1      27.079  48.387  49.445  1.00  0.00    -0.081 SA
BRANCH   6   7
HETATM    7  C   UNL     1      25.674  49.167  48.838  1.00  0.00     0.185 A 
HETATM    8  N   UNL     1      24.457  49.089  49.313  1.00  0.00    -0.201 NA
HETATM    9  C   UNL     1      23.717  49.847  48.426  1.00  0.00     0.182 A 
HETATM   10  N   UNL     1      24.450  50.390  47.437  1.00  0.00    -0.152 NA
HETATM   11  N   UNL     1      25.684  49.935  47.719  1.00  0.00    -0.253 N 
HETATM   12  H   UNL     1      26.464  50.173  47.118  1.00  0.00     0.191 HD
BRANCH   9  13
HETATM   13  C   UNL     1      22.270  49.983  48.566  1.00  0.00     0.014 A 
HETATM   14  C   UNL     1      21.678  51.253  48.535  1.00  0.00     0.018 A 
HETATM   15  C   UNL     1      20.298  51.401  48.701  1.00  0.00     0.037 A 
HETATM   16  C   UNL     1      19.483  50.286  48.898  1.00  0.00     0.068 A 
HETATM   17  C   UNL     1      20.061  49.016  48.920  1.00  0.00     0.037 A 
HETATM   18  C   UNL     1      21.445  48.867  48.756  1.00  0.00     0.018 A 
BRANCH  16  19
HETATM   19  O   UNL     1      18.156  50.574  49.052  1.00  0.00    -0.356 OA
HETATM   20  C   UNL     1      17.832  51.776  49.739  1.00  0.00     0.210 C 
ENDBRANCH  16  19
ENDBRANCH   9  13
ENDBRANCH   6   7
ENDBRANCH   5   6
ENDBRANCH   2   5
BRANCH   1  21
HETATM   21  C   UNL     1      25.314  45.017  53.080  1.00  0.00     0.225 C 
BRANCH  21  22
HETATM   22  C   UNL     1      26.370  44.277  53.912  1.00  0.00     0.239 C 
HETATM   23  N   UNL     1      27.644  44.799  53.744  1.00  0.00    -0.325 N 
HETATM   24  H   UNL     1      27.666  45.707  53.280  1.00  0.00     0.169 HD
HETATM   25  O   UNL     1      26.042  43.410  54.719  1.00  0.00    -0.271 OA
BRANCH  23  26
HETATM   26  C   UNL     1      28.761  44.466  54.541  1.00  0.00     0.046 A 
HETATM   27  C   UNL     1      29.558  43.332  54.292  1.00  0.00    -0.034 A 
HETATM   28  C   UNL     1      30.637  43.052  55.152  1.00  0.00     0.015 A 
HETATM   29  C   UNL     1      29.359  42.412  53.118  1.00  0.00     0.050 C 
HETATM   30  C   UNL     1      30.958  43.894  56.219  1.00  0.00    -0.061 A 
HETATM   31  C   UNL     1      32.125  43.599  57.112  1.00  0.00     0.048 C 
HETATM   32  C   UNL     1      30.200  45.050  56.416  1.00  0.00     0.015 A 
HETATM   33  C   UNL     1      29.103  45.349  55.591  1.00  0.00    -0.034 A 
HETATM   34  C   UNL     1      28.299  46.586  55.890  1.00  0.00     0.050 C 
ENDBRANCH  23  26
ENDBRANCH  21  22
ENDBRANCH   1  21
TORSDOF 8
ENDMDL
MODEL 2
REMARK VINA RESULT:     -10.0      0.736      1.729
REMARK  8 active torsions:
REMARK  status: ('A' for Active; 'I' for Inactive)
REMARK    1  A    between atoms: C_6  and  N_7 
REMARK       I    between atoms: N_7  and  C_8 
REMARK    2  A    between atoms: C_8  and  C_9 
REMARK    3  A    between atoms: C_9  and  N_10 
REMARK       I    between atoms: N_10  and  C_11 
REMARK    4  A    between atoms: C_11  and  C_12 
REMARK    5  A    between atoms: C_12  and  S_13 
REMARK    6  A    between atoms: S_13  and  C_14 
REMARK    7  A    between atoms: C_16  and  C_17 
REMARK    8  A    between atoms: C_20  and  O_21 
ROOT
HETATM    1  N   UNL     1      25.893  45.379  51.885  1.00  0.00    -0.352 N 
HETATM    2  C   UNL     1      25.201  45.581  50.719  1.00  0.00     0.227 C 
HETATM    3  O   UNL     1      24.016  45.267  50.606  1.00  0.00    -0.273 OA
HETATM    4  H   UNL     1      26.837  45.756  51.954  1.00  0.00     0.162 HD
ENDROOT
BRANCH   2   5
HETATM    5  C   UNL     1      26.007  46.172  49.571  1.00  0.00     0.185 C 
BRANCH   5   6
HETATM    6  S   UNL     1      26.552  47.877  49.905  1.00  0.00    -0.081 SA
BRANCH   6   7
HETATM    7  C   UNL     1      25.300  48.788  49.161  1.00  0.00     0.185 A 
HETATM    8  N   UNL     1      24.039  48.833  49.508  1.00  0.00    -0.201 NA
HETATM    9  C   UNL     1      23.472  49.654  48.552  1.00  0.00     0.182 A 
HETATM   10  N   UNL     1      24.353  50.116  47.646  1.00  0.00    -0.152 NA
HETATM   11  N   UNL     1      25.501  49.544  48.052  1.00  0.00    -0.253 N 
HETATM   12  H   UNL     1      26.358  49.700  47.535  1.00  0.00     0.191 HD
BRANCH   9  13
HETATM   13  C   UNL     1      22.039  49.934  48.544  1.00  0.00     0.014 A 
HETATM   14  C   UNL     1      21.581  51.253  48.420  1.00  0.00     0.018 A 
HETATM   15  C   UNL     1      20.213  51.538  48.443  1.00  0.00     0.037 A 
HETATM   16  C   UNL     1      19.277  50.514  48.589  1.00  0.00     0.068 A 
HETATM   17  C   UNL     1      19.721  49.197  48.702  1.00  0.00     0.037 A 
HETATM   18  C   UNL     1      21.094  48.910  48.681  1.00  0.00     0.018 A 
BRANCH  16  19
HETATM   19  O   UNL     1      17.976  50.933  48.602  1.00  0.00    -0.356 OA
HETATM   20  C   UNL     1      17.522  51.589  49.779  1.00  0.00     0.210 C 
ENDBRANCH  16  19
ENDBRANCH   9  13
ENDBRANCH   6   7
ENDBRANCH   5   6
ENDBRANCH   2   5
BRANCH   1  21
HETATM   21  C   UNL     1      25.308  44.807  53.081  1.00  0.00     0.225 C 
BRANCH  21  22
HETATM   22  C   UNL     1      26.346  44.190  54.028  1.00  0.00     0.239 C 
HETATM   23  N   UNL     1      27.627  44.677  53.807  1.00  0.00    -0.325 N 
HETATM   24  H   UNL     1      27.661  45.508  53.217  1.00  0.00     0.169 HD
HETATM   25  O   UNL     1      26.001  43.450  54.947  1.00  0.00    -0.271 OA
BRANCH  23  26
HETATM   26  C   UNL     1      28.729  44.458  54.661  1.00  0.00     0.046 A 
HETATM   27  C   UNL     1      29.075  45.350  55.695  1.00  0.00    -0.034 A 
HETATM   28  C   UNL     1      30.208  45.077  56.484  1.00  0.00     0.015 A 
HETATM   29  C   UNL     1      28.270  46.572  56.048  1.00  0.00     0.050 C 
HETATM   30  C   UNL     1      30.970  43.923  56.292  1.00  0.00    -0.061 A 
HETATM   31  C   UNL     1      32.159  43.629  57.157  1.00  0.00     0.048 C 
HETATM   32  C   UNL     1      30.579  43.013  55.307  1.00  0.00     0.015 A 
HETATM   33  C   UNL     1      29.467  43.265  54.487  1.00  0.00    -0.034 A 
HETATM   34  C   UNL     1      29.131  42.266  53.412  1.00  0.00     0.050 C 
ENDBRANCH  23  26
ENDBRANCH  21  22
ENDBRANCH   1  21
TORSDOF 8
ENDMDL
MODEL 3
REMARK VINA RESULT:      -9.6      2.728     11.105
REMARK  8 active torsions:
REMARK  status: ('A' for Active; 'I' for Inactive)
REMARK    1  A    between atoms: C_6  and  N_7 
REMARK       I    between atoms: N_7  and  C_8 
REMARK    2  A    between atoms: C_8  and  C_9 
REMARK    3  A    between atoms: C_9  and  N_10 
REMARK       I    between atoms: N_10  and  C_11 
REMARK    4  A    between atoms: C_11  and  C_12 
REMARK    5  A    between atoms: C_12  and  S_13 
REMARK    6  A    between atoms: S_13  and  C_14 
REMARK    7  A    between atoms: C_16  and  C_17 
REMARK    8  A    between atoms: C_20  and  O_21 
ROOT
HETATM    1  N   UNL     1      23.656  45.864  49.880  1.00  0.00    -0.352 N 
HETATM    2  C   UNL     1      24.557  44.831  49.862  1.00  0.00     0.227 C 
HETATM    3  O   UNL     1      25.652  44.936  49.309  1.00  0.00    -0.273 OA
HETATM    4  H   UNL     1      22.814  45.756  50.444  1.00  0.00     0.162 HD
ENDROOT
BRANCH   2   5
HETATM    5  C   UNL     1      24.093  43.542  50.526  1.00  0.00     0.185 C 
BRANCH   5   6
HETATM    6  S   UNL     1      25.095  42.103  50.035  1.00  0.00    -0.081 SA
BRANCH   6   7
HETATM    7  C   UNL     1      26.245  42.037  51.310  1.00  0.00     0.185 A 
HETATM    8  N   UNL     1      26.682  43.034  52.035  1.00  0.00    -0.201 NA
HETATM    9  C   UNL     1      27.624  42.445  52.857  1.00  0.00     0.182 A 
HETATM   10  N   UNL     1      27.762  41.122  52.658  1.00  0.00    -0.152 NA
HETATM   11  N   UNL     1      26.882  40.893  51.666  1.00  0.00    -0.253 N 
HETATM   12  H   UNL     1      26.777  39.960  51.284  1.00  0.00     0.191 HD
BRANCH   9  13
HETATM   13  C   UNL     1      28.401  43.233  53.809  1.00  0.00     0.014 A 
HETATM   14  C   UNL     1      29.644  42.767  54.258  1.00  0.00     0.018 A 
HETATM   15  C   UNL     1      30.384  43.496  55.193  1.00  0.00     0.037 A 
HETATM   16  C   UNL     1      29.899  44.703  55.697  1.00  0.00     0.068 A 
HETATM   17  C   UNL     1      28.668  45.182  55.248  1.00  0.00     0.037 A 
HETATM   18  C   UNL     1      27.924  44.450  54.311  1.00  0.00     0.018 A 
BRANCH  16  19
HETATM   19  O   UNL     1      30.719  45.308  56.608  1.00  0.00    -0.356 OA
HETATM   20  C   UNL     1      30.094  45.944  57.715  1.00  0.00     0.210 C 
ENDBRANCH  16  19
ENDBRANCH   9  13
ENDBRANCH   6   7
ENDBRANCH   5   6
ENDBRANCH   2   5
BRANCH   1  21
HETATM   21  C   UNL     1      23.904  47.161  49.282  1.00  0.00     0.225 C 
BRANCH  21  22
HETATM   22  C   UNL     1      22.639  47.817  48.712  1.00  0.00     0.239 C 
HETATM   23  N   UNL     1      22.028  48.674  49.616  1.00  0.00    -0.325 N 
HETATM   24  H   UNL     1      22.605  48.911  50.423  1.00  0.00     0.169 HD
HETATM   25  O   UNL     1      22.325  47.661  47.534  1.00  0.00    -0.271 OA
BRANCH  23  26
HETATM   26  C   UNL     1      20.988  49.572  49.294  1.00  0.00     0.046 A 
HETATM   27  C   UNL     1      19.628  49.253  49.479  1.00  0.00    -0.034 A 
HETATM   28  C   UNL     1      18.648  50.192  49.105  1.00  0.00     0.015 A 
HETATM   29  C   UNL     1      19.148  47.972  50.106  1.00  0.00     0.050 C 
HETATM   30  C   UNL     1      18.994  51.445  48.594  1.00  0.00    -0.061 A 
HETATM   31  C   UNL     1      17.942  52.446  48.225  1.00  0.00     0.048 C 
HETATM   32  C   UNL     1      20.346  51.774  48.477  1.00  0.00     0.015 A 
HETATM   33  C   UNL     1      21.350  50.853  48.820  1.00  0.00    -0.034 A 
HETATM   34  C   UNL     1      22.788  51.256  48.623  1.00  0.00     0.050 C 
ENDBRANCH  23  26
ENDBRANCH  21  22
ENDBRANCH   1  21
TORSDOF 8
ENDMDL
MODEL 4
REMARK VINA RESULT:      -9.6      1.725      2.024
REMARK  8 active torsions:
REMARK  status: ('A' for Active; 'I' for Inactive)
REMARK    1  A    between atoms: C_6  and  N_7 
REMARK       I    between atoms: N_7  and  C_8 
REMARK    2  A    between atoms: C_8  and  C_9 
REMARK    3  A    between atoms: C_9  and  N_10 
REMARK       I    between atoms: N_10  and  C_11 
REMARK    4  A    between atoms: C_11  and  C_12 
REMARK    5  A    between atoms: C_12  and  S_13 
REMARK    6  A    between atoms: S_13  and  C_14 
REMARK    7  A    between atoms: C_16  and  C_17 
REMARK    8  A    between atoms: C_20  and  O_21 
ROOT
HETATM    1  N   UNL     1      26.403  44.651  51.393  1.00  0.00    -0.352 N 
HETATM    2  C   UNL     1      26.755  44.801  50.076  1.00  0.00     0.227 C 
HETATM    3  O   UNL     1      27.070  43.837  49.376  1.00  0.00    -0.273 OA
HETATM    4  H   UNL     1      26.049  45.467  51.890  1.00  0.00     0.162 HD
ENDROOT
BRANCH   2   5
HETATM    5  C   UNL     1      26.773  46.232  49.559  1.00  0.00     0.185 C 
BRANCH   5   6
HETATM    6  S   UNL     1      26.002  47.403  50.721  1.00  0.00    -0.081 SA
BRANCH   6   7
HETATM    7  C   UNL     1      24.515  47.742  49.929  1.00  0.00     0.185 A 
HETATM    8  N   UNL     1      23.898  48.893  49.860  1.00  0.00    -0.201 NA
HETATM    9  C   UNL     1      22.737  48.595  49.172  1.00  0.00     0.182 A 
HETATM   10  N   UNL     1      22.639  47.302  48.814  1.00  0.00    -0.152 NA
HETATM   11  N   UNL     1      23.776  46.784  49.314  1.00  0.00    -0.253 N 
HETATM   12  H   UNL     1      23.973  45.796  49.210  1.00  0.00     0.191 HD
BRANCH   9  13
HETATM   13  C   UNL     1      21.722  49.613  48.917  1.00  0.00     0.014 A 
HETATM   14  C   UNL     1      21.297  50.456  49.953  1.00  0.00     0.018 A 
HETATM   15  C   UNL     1      20.303  51.414  49.731  1.00  0.00     0.037 A 
HETATM   16  C   UNL     1      19.717  51.549  48.472  1.00  0.00     0.068 A 
HETATM   17  C   UNL     1      20.141  50.723  47.431  1.00  0.00     0.037 A 
HETATM   18  C   UNL     1      21.136  49.761  47.654  1.00  0.00     0.018 A 
BRANCH  16  19
HETATM   19  O   UNL     1      18.756  52.518  48.396  1.00  0.00    -0.356 OA
HETATM   20  C   UNL     1      17.795  52.558  49.444  1.00  0.00     0.210 C 
ENDBRANCH  16  19
ENDBRANCH   9  13
ENDBRANCH   6   7
ENDBRANCH   5   6
ENDBRANCH   2   5
BRANCH   1  21
HETATM   21  C   UNL     1      26.349  43.372  52.073  1.00  0.00     0.225 C 
BRANCH  21  22
HETATM   22  C   UNL     1      27.146  43.349  53.384  1.00  0.00     0.239 C 
HETATM   23  N   UNL     1      28.049  44.399  53.478  1.00  0.00    -0.325 N 
HETATM   24  H   UNL     1      27.905  45.137  52.790  1.00  0.00     0.169 HD
HETATM   25  O   UNL     1      26.879  42.540  54.270  1.00  0.00    -0.271 OA
BRANCH  23  26
HETATM   26  C   UNL     1      28.749  44.753  54.652  1.00  0.00     0.046 A 
HETATM   27  C   UNL     1      29.907  44.071  55.078  1.00  0.00    -0.034 A 
HETATM   28  C   UNL     1      30.531  44.466  56.277  1.00  0.00     0.015 A 
HETATM   29  C   UNL     1      30.558  42.962  54.297  1.00  0.00     0.050 C 
HETATM   30  C   UNL     1      30.053  45.541  57.029  1.00  0.00    -0.061 A 
HETATM   31  C   UNL     1      30.742  45.969  58.289  1.00  0.00     0.048 C 
HETATM   32  C   UNL     1      28.944  46.250  56.562  1.00  0.00     0.015 A 
HETATM   33  C   UNL     1      28.284  45.870  55.381  1.00  0.00    -0.034 A 
HETATM   34  C   UNL     1      27.065  46.648  54.962  1.00  0.00     0.050 C 
ENDBRANCH  23  26
ENDBRANCH  21  22
ENDBRANCH   1  21
TORSDOF 8
ENDMDL
MODEL 5
REMARK VINA RESULT:      -9.5      2.742     11.104
REMARK  8 active torsions:
REMARK  status: ('A' for Active; 'I' for Inactive)
REMARK    1  A    between atoms: C_6  and  N_7 
REMARK       I    between atoms: N_7  and  C_8 
REMARK    2  A    between atoms: C_8  and  C_9 
REMARK    3  A    between atoms: C_9  and  N_10 
REMARK       I    between atoms: N_10  and  C_11 
REMARK    4  A    between atoms: C_11  and  C_12 
REMARK    5  A    between atoms: C_12  and  S_13 
REMARK    6  A    between atoms: S_13  and  C_14 
REMARK    7  A    between atoms: C_16  and  C_17 
REMARK    8  A    between atoms: C_20  and  O_21 
ROOT
HETATM    1  N   UNL     1      23.680  45.830  49.901  1.00  0.00    -0.352 N 
HETATM    2  C   UNL     1      24.556  44.776  49.890  1.00  0.00     0.227 C 
HETATM    3  O   UNL     1      25.676  44.870  49.385  1.00  0.00    -0.273 OA
HETATM    4  H   UNL     1      22.812  45.727  50.426  1.00  0.00     0.162 HD
ENDROOT
BRANCH   2   5
HETATM    5  C   UNL     1      24.035  43.481  50.497  1.00  0.00     0.185 C 
BRANCH   5   6
HETATM    6  S   UNL     1      25.029  42.034  50.014  1.00  0.00    -0.081 SA
BRANCH   6   7
HETATM    7  C   UNL     1      26.193  41.981  51.276  1.00  0.00     0.185 A 
HETATM    8  N   UNL     1      26.624  42.983  51.999  1.00  0.00    -0.201 NA
HETATM    9  C   UNL     1      27.583  42.406  52.808  1.00  0.00     0.182 A 
HETATM   10  N   UNL     1      27.738  41.085  52.606  1.00  0.00    -0.152 NA
HETATM   11  N   UNL     1      26.850  40.846  51.623  1.00  0.00    -0.253 N 
HETATM   12  H   UNL     1      26.754  39.912  51.241  1.00  0.00     0.191 HD
BRANCH   9  13
HETATM   13  C   UNL     1      28.360  43.204  53.753  1.00  0.00     0.014 A 
HETATM   14  C   UNL     1      29.621  42.762  54.176  1.00  0.00     0.018 A 
HETATM   15  C   UNL     1      30.361  43.499  55.105  1.00  0.00     0.037 A 
HETATM   16  C   UNL     1      29.858  44.691  55.627  1.00  0.00     0.068 A 
HETATM   17  C   UNL     1      28.609  45.146  55.204  1.00  0.00     0.037 A 
HETATM   18  C   UNL     1      27.865  44.406  54.274  1.00  0.00     0.018 A 
BRANCH  16  19
HETATM   19  O   UNL     1      30.681  45.307  56.528  1.00  0.00    -0.356 OA
HETATM   20  C   UNL     1      30.062  45.920  57.652  1.00  0.00     0.210 C 
ENDBRANCH  16  19
ENDBRANCH   9  13
ENDBRANCH   6   7
ENDBRANCH   5   6
ENDBRANCH   2   5
BRANCH   1  21
HETATM   21  C   UNL     1      23.982  47.136  49.350  1.00  0.00     0.225 C 
BRANCH  21  22
HETATM   22  C   UNL     1      22.763  47.827  48.726  1.00  0.00     0.239 C 
HETATM   23  N   UNL     1      22.103  48.657  49.620  1.00  0.00    -0.325 N 
HETATM   24  H   UNL     1      22.628  48.856  50.471  1.00  0.00     0.169 HD
HETATM   25  O   UNL     1      22.524  47.720  47.525  1.00  0.00    -0.271 OA
BRANCH  23  26
HETATM   26  C   UNL     1      21.093  49.578  49.268  1.00  0.00     0.046 A 
HETATM   27  C   UNL     1      21.381  50.873  48.792  1.00  0.00    -0.034 A 
HETATM   28  C   UNL     1      20.317  51.744  48.491  1.00  0.00     0.015 A 
HETATM   29  C   UNL     1      22.776  51.377  48.535  1.00  0.00     0.050 C 
HETATM   30  C   UNL     1      18.986  51.340  48.614  1.00  0.00    -0.061 A 
HETATM   31  C   UNL     1      17.862  52.268  48.264  1.00  0.00     0.048 C 
HETATM   32  C   UNL     1      18.713  50.033  49.023  1.00  0.00     0.015 A 
HETATM   33  C   UNL     1      19.750  49.145  49.353  1.00  0.00    -0.034 A 
HETATM   34  C   UNL     1      19.384  47.766  49.835  1.00  0.00     0.050 C 
ENDBRANCH  23  26
ENDBRANCH  21  22
ENDBRANCH   1  21
TORSDOF 8
ENDMDL
MODEL 6
REMARK VINA RESULT:      -9.4      1.994      2.846
REMARK  8 active torsions:
REMARK  status: ('A' for Active; 'I' for Inactive)
REMARK    1  A    between atoms: C_6  and  N_7 
REMARK       I    between atoms: N_7  and  C_8 
REMARK    2  A    between atoms: C_8  and  C_9 
REMARK    3  A    between atoms: C_9  and  N_10 
REMARK       I    between atoms: N_10  and  C_11 
REMARK    4  A    between atoms: C_11  and  C_12 
REMARK    5  A    between atoms: C_12  and  S_13 
REMARK    6  A    between atoms: S_13  and  C_14 
REMARK    7  A    between atoms: C_16  and  C_17 
REMARK    8  A    between atoms: C_20  and  O_21 
ROOT
HETATM    1  N   UNL     1      24.762  45.599  50.540  1.00  0.00    -0.352 N 
HETATM    2  C   UNL     1      24.782  46.963  50.679  1.00  0.00     0.227 C 
HETATM    3  O   UNL     1      25.022  47.499  51.761  1.00  0.00    -0.273 OA
HETATM    4  H   UNL     1      24.664  45.214  49.601  1.00  0.00     0.162 HD
ENDROOT
BRANCH   2   5
HETATM    5  C   UNL     1      24.443  47.757  49.426  1.00  0.00     0.185 C 
BRANCH   5   6
HETATM    6  S   UNL     1      22.816  47.314  48.737  1.00  0.00    -0.081 SA
BRANCH   6   7
HETATM    7  C   UNL     1      21.875  48.682  49.177  1.00  0.00     0.185 A 
HETATM    8  N   UNL     1      20.585  48.838  49.028  1.00  0.00    -0.201 NA
HETATM    9  C   UNL     1      20.361  50.123  49.482  1.00  0.00     0.182 A 
HETATM   10  N   UNL     1      21.474  50.746  49.911  1.00  0.00    -0.152 NA
HETATM   11  N   UNL     1      22.419  49.812  49.698  1.00  0.00    -0.253 N 
HETATM   12  H   UNL     1      23.388  50.009  49.916  1.00  0.00     0.191 HD
BRANCH   9  13
HETATM   13  C   UNL     1      19.030  50.723  49.442  1.00  0.00     0.014 A 
HETATM   14  C   UNL     1      17.961  50.021  48.869  1.00  0.00     0.018 A 
HETATM   15  C   UNL     1      16.689  50.596  48.796  1.00  0.00     0.037 A 
HETATM   16  C   UNL     1      16.460  51.879  49.294  1.00  0.00     0.068 A 
HETATM   17  C   UNL     1      17.515  52.581  49.877  1.00  0.00     0.037 A 
HETATM   18  C   UNL     1      18.792  52.007  49.949  1.00  0.00     0.018 A 
BRANCH  16  19
HETATM   19  O   UNL     1      15.174  52.321  49.152  1.00  0.00    -0.356 OA
HETATM   20  C   UNL     1      14.508  52.757  50.331  1.00  0.00     0.210 C 
ENDBRANCH  16  19
ENDBRANCH   9  13
ENDBRANCH   6   7
ENDBRANCH   5   6
ENDBRANCH   2   5
BRANCH   1  21
HETATM   21  C   UNL     1      25.034  44.673  51.621  1.00  0.00     0.225 C 
BRANCH  21  22
HETATM   22  C   UNL     1      26.494  44.704  52.093  1.00  0.00     0.239 C 
HETATM   23  N   UNL     1      26.614  44.557  53.467  1.00  0.00    -0.325 N 
HETATM   24  H   UNL     1      25.762  44.238  53.929  1.00  0.00     0.169 HD
HETATM   25  O   UNL     1      27.417  44.729  51.283  1.00  0.00    -0.271 OA
BRANCH  23  26
HETATM   26  C   UNL     1      27.829  44.329  54.148  1.00  0.00     0.046 A 
HETATM   27  C   UNL     1      28.492  43.086  54.118  1.00  0.00    -0.034 A 
HETATM   28  C   UNL     1      29.684  42.928  54.850  1.00  0.00     0.015 A 
HETATM   29  C   UNL     1      28.026  41.909  53.303  1.00  0.00     0.050 C 
HETATM   30  C   UNL     1      30.245  43.987  55.568  1.00  0.00    -0.061 A 
HETATM   31  C   UNL     1      31.530  43.814  56.321  1.00  0.00     0.048 C 
HETATM   32  C   UNL     1      29.614  45.232  55.537  1.00  0.00     0.015 A 
HETATM   33  C   UNL     1      28.410  45.418  54.835  1.00  0.00    -0.034 A 
HETATM   34  C   UNL     1      27.757  46.774  54.884  1.00  0.00     0.050 C 
ENDBRANCH  23  26
ENDBRANCH  21  22
ENDBRANCH   1  21
TORSDOF 8
ENDMDL
MODEL 7
REMARK VINA RESULT:      -9.3      2.614     10.930
REMARK  8 active torsions:
REMARK  status: ('A' for Active; 'I' for Inactive)
REMARK    1  A    between atoms: C_6  and  N_7 
REMARK       I    between atoms: N_7  and  C_8 
REMARK    2  A    between atoms: C_8  and  C_9 
REMARK    3  A    between atoms: C_9  and  N_10 
REMARK       I    between atoms: N_10  and  C_11 
REMARK    4  A    between atoms: C_11  and  C_12 
REMARK    5  A    between atoms: C_12  and  S_13 
REMARK    6  A    between atoms: S_13  and  C_14 
REMARK    7  A    between atoms: C_16  and  C_17 
REMARK    8  A    between atoms: C_20  and  O_21 
ROOT
HETATM    1  N   UNL     1      23.962  45.362  49.582  1.00  0.00    -0.352 N 
HETATM    2  C   UNL     1      24.213  44.601  50.694  1.00  0.00     0.227 C 
HETATM    3  O   UNL     1      23.524  43.620  50.977  1.00  0.00    -0.273 OA
HETATM    4  H   UNL     1      24.628  46.094  49.341  1.00  0.00     0.162 HD
ENDROOT
BRANCH   2   5
HETATM    5  C   UNL     1      25.361  45.079  51.572  1.00  0.00     0.185 C 
BRANCH   5   6
HETATM    6  S   UNL     1      25.286  46.868  51.905  1.00  0.00    -0.081 SA
BRANCH   6   7
HETATM    7  C   UNL     1      26.183  46.980  53.367  1.00  0.00     0.185 A 
HETATM    8  N   UNL     1      27.193  46.236  53.736  1.00  0.00    -0.201 NA
HETATM    9  C   UNL     1      27.491  46.704  55.001  1.00  0.00     0.182 A 
HETATM   10  N   UNL     1      26.700  47.715  55.404  1.00  0.00    -0.152 NA
HETATM   11  N   UNL     1      25.875  47.862  54.352  1.00  0.00    -0.253 N 
HETATM   12  H   UNL     1      25.140  48.559  54.375  1.00  0.00     0.191 HD
BRANCH   9  13
HETATM   13  C   UNL     1      28.550  46.099  55.805  1.00  0.00     0.014 A 
HETATM   14  C   UNL     1      29.420  45.162  55.231  1.00  0.00     0.018 A 
HETATM   15  C   UNL     1      30.417  44.552  55.997  1.00  0.00     0.037 A 
HETATM   16  C   UNL     1      30.566  44.865  57.348  1.00  0.00     0.068 A 
HETATM   17  C   UNL     1      29.712  45.805  57.927  1.00  0.00     0.037 A 
HETATM   18  C   UNL     1      28.710  46.416  57.160  1.00  0.00     0.018 A 
BRANCH  16  19
HETATM   19  O   UNL     1      31.574  44.191  57.979  1.00  0.00    -0.356 OA
HETATM   20  C   UNL     1      32.114  43.061  57.306  1.00  0.00     0.210 C 
ENDBRANCH  16  19
ENDBRANCH   9  13
ENDBRANCH   6   7
ENDBRANCH   5   6
ENDBRANCH   2   5
BRANCH   1  21
HETATM   21  C   UNL     1      22.898  45.083  48.637  1.00  0.00     0.225 C 
BRANCH  21  22
HETATM   22  C   UNL     1      22.208  46.348  48.111  1.00  0.00     0.239 C 
HETATM   23  N   UNL     1      21.679  47.130  49.128  1.00  0.00    -0.325 N 
HETATM   24  H   UNL     1      22.003  46.877  50.061  1.00  0.00     0.169 HD
HETATM   25  O   UNL     1      22.264  46.648  46.920  1.00  0.00    -0.271 OA
BRANCH  23  26
HETATM   26  C   UNL     1      21.188  48.443  48.960  1.00  0.00     0.046 A 
HETATM   27  C   UNL     1      22.038  49.563  48.872  1.00  0.00    -0.034 A 
HETATM   28  C   UNL     1      21.470  50.844  48.737  1.00  0.00     0.015 A 
HETATM   29  C   UNL     1      23.541  49.474  48.865  1.00  0.00     0.050 C 
HETATM   30  C   UNL     1      20.088  51.024  48.646  1.00  0.00    -0.061 A 
HETATM   31  C   UNL     1      19.496  52.391  48.475  1.00  0.00     0.048 C 
HETATM   32  C   UNL     1      19.259  49.900  48.669  1.00  0.00     0.015 A 
HETATM   33  C   UNL     1      19.791  48.609  48.825  1.00  0.00    -0.034 A 
HETATM   34  C   UNL     1      18.837  47.446  48.890  1.00  0.00     0.050 C 
ENDBRANCH  23  26
ENDBRANCH  21  22
ENDBRANCH   1  21
TORSDOF 8
ENDMDL
MODEL 8
REMARK VINA RESULT:      -8.9      2.007      3.098
REMARK  8 active torsions:
REMARK  status: ('A' for Active; 'I' for Inactive)
REMARK    1  A    between atoms: C_6  and  N_7 
REMARK       I    between atoms: N_7  and  C_8 
REMARK    2  A    between atoms: C_8  and  C_9 
REMARK    3  A    between atoms: C_9  and  N_10 
REMARK       I    between atoms: N_10  and  C_11 
REMARK    4  A    between atoms: C_11  and  C_12 
REMARK    5  A    between atoms: C_12  and  S_13 
REMARK    6  A    between atoms: S_13  and  C_14 
REMARK    7  A    between atoms: C_16  and  C_17 
REMARK    8  A    between atoms: C_20  and  O_21 
ROOT
HETATM    1  N   UNL     1      25.775  45.166  51.136  1.00  0.00    -0.352 N 
HETATM    2  C   UNL     1      24.570  45.329  50.502  1.00  0.00     0.227 C 
HETATM    3  O   UNL     1      23.828  44.375  50.268  1.00  0.00    -0.273 OA
HETATM    4  H   UNL     1      26.296  46.001  51.399  1.00  0.00     0.162 HD
ENDROOT
BRANCH   2   5
HETATM    5  C   UNL     1      24.241  46.752  50.073  1.00  0.00     0.185 C 
BRANCH   5   6
HETATM    6  S   UNL     1      23.030  46.808  48.714  1.00  0.00    -0.081 SA
BRANCH   6   7
HETATM    7  C   UNL     1      22.141  48.225  49.107  1.00  0.00     0.185 A 
HETATM    8  N   UNL     1      20.857  48.423  48.954  1.00  0.00    -0.201 NA
HETATM    9  C   UNL     1      20.683  49.732  49.363  1.00  0.00     0.182 A 
HETATM   10  N   UNL     1      21.819  50.327  49.768  1.00  0.00    -0.152 NA
HETATM   11  N   UNL     1      22.728  49.351  49.587  1.00  0.00    -0.253 N 
HETATM   12  H   UNL     1      23.705  49.520  49.796  1.00  0.00     0.191 HD
BRANCH   9  13
HETATM   13  C   UNL     1      19.375  50.378  49.304  1.00  0.00     0.014 A 
HETATM   14  C   UNL     1      18.276  49.694  48.767  1.00  0.00     0.018 A 
HETATM   15  C   UNL     1      17.026  50.312  48.676  1.00  0.00     0.037 A 
HETATM   16  C   UNL     1      16.848  51.623  49.119  1.00  0.00     0.068 A 
HETATM   17  C   UNL     1      17.933  52.310  49.665  1.00  0.00     0.037 A 
HETATM   18  C   UNL     1      19.188  51.691  49.756  1.00  0.00     0.018 A 
BRANCH  16  19
HETATM   19  O   UNL     1      15.579  52.107  48.965  1.00  0.00    -0.356 OA
HETATM   20  C   UNL     1      14.915  52.561  50.137  1.00  0.00     0.210 C 
ENDBRANCH  16  19
ENDBRANCH   9  13
ENDBRANCH   6   7
ENDBRANCH   5   6
ENDBRANCH   2   5
BRANCH   1  21
HETATM   21  C   UNL     1      26.276  43.887  51.599  1.00  0.00     0.225 C 
BRANCH  21  22
HETATM   22  C   UNL     1      26.779  43.922  53.048  1.00  0.00     0.239 C 
HETATM   23  N   UNL     1      28.002  44.566  53.173  1.00  0.00    -0.325 N 
HETATM   24  H   UNL     1      28.279  45.100  52.350  1.00  0.00     0.169 HD
HETATM   25  O   UNL     1      26.072  43.524  53.971  1.00  0.00    -0.271 OA
BRANCH  23  26
HETATM   26  C   UNL     1      28.593  44.939  54.400  1.00  0.00     0.046 A 
HETATM   27  C   UNL     1      28.131  46.030  55.162  1.00  0.00    -0.034 A 
HETATM   28  C   UNL     1      28.794  46.357  56.361  1.00  0.00     0.015 A 
HETATM   29  C   UNL     1      26.925  46.853  54.798  1.00  0.00     0.050 C 
HETATM   30  C   UNL     1      29.870  45.600  56.830  1.00  0.00    -0.061 A 
HETATM   31  C   UNL     1      30.550  45.942  58.121  1.00  0.00     0.048 C 
HETATM   32  C   UNL     1      30.277  44.482  56.098  1.00  0.00     0.015 A 
HETATM   33  C   UNL     1      29.652  44.140  54.887  1.00  0.00    -0.034 A 
HETATM   34  C   UNL     1      30.173  42.950  54.125  1.00  0.00     0.050 C 
ENDBRANCH  23  26
ENDBRANCH  21  22
ENDBRANCH   1  21
TORSDOF 8
ENDMDL
MODEL 9
REMARK VINA RESULT:      -8.9      4.841      8.777
REMARK  8 active torsions:
REMARK  status: ('A' for Active; 'I' for Inactive)
REMARK    1  A    between atoms: C_6  and  N_7 
REMARK       I    between atoms: N_7  and  C_8 
REMARK    2  A    between atoms: C_8  and  C_9 
REMARK    3  A    between atoms: C_9  and  N_10 
REMARK       I    between atoms: N_10  and  C_11 
REMARK    4  A    between atoms: C_11  and  C_12 
REMARK    5  A    between atoms: C_12  and  S_13 
REMARK    6  A    between atoms: S_13  and  C_14 
REMARK    7  A    between atoms: C_16  and  C_17 
REMARK    8  A    between atoms: C_20  and  O_21 
ROOT
HETATM    1  N   UNL     1      24.670  44.277  51.761  1.00  0.00    -0.352 N 
HETATM    2  C   UNL     1      24.173  44.409  50.490  1.00  0.00     0.227 C 
HETATM    3  O   UNL     1      24.530  45.325  49.748  1.00  0.00    -0.273 OA
HETATM    4  H   UNL     1      24.421  43.441  52.289  1.00  0.00     0.162 HD
ENDROOT
BRANCH   2   5
HETATM    5  C   UNL     1      23.127  43.382  50.083  1.00  0.00     0.185 C 
BRANCH   5   6
HETATM    6  S   UNL     1      23.131  43.053  48.292  1.00  0.00    -0.081 SA
BRANCH   6   7
HETATM    7  C   UNL     1      24.140  41.665  48.202  1.00  0.00     0.185 A 
HETATM    8  N   UNL     1      25.157  41.374  48.972  1.00  0.00    -0.201 NA
HETATM    9  C   UNL     1      25.642  40.199  48.431  1.00  0.00     0.182 A 
HETATM   10  N   UNL     1      24.944  39.765  47.366  1.00  0.00    -0.152 NA
HETATM   11  N   UNL     1      24.004  40.719  47.238  1.00  0.00    -0.253 N 
HETATM   12  H   UNL     1      23.325  40.668  46.488  1.00  0.00     0.191 HD
BRANCH   9  13
HETATM   13  C   UNL     1      26.830  39.545  48.975  1.00  0.00     0.014 A 
HETATM   14  C   UNL     1      27.128  38.222  48.622  1.00  0.00     0.018 A 
HETATM   15  C   UNL     1      28.243  37.575  49.160  1.00  0.00     0.037 A 
HETATM   16  C   UNL     1      29.083  38.234  50.058  1.00  0.00     0.068 A 
HETATM   17  C   UNL     1      28.801  39.555  50.407  1.00  0.00     0.037 A 
HETATM   18  C   UNL     1      27.681  40.206  49.870  1.00  0.00     0.018 A 
BRANCH  16  19
HETATM   19  O   UNL     1      30.131  37.483  50.511  1.00  0.00    -0.356 OA
HETATM   20  C   UNL     1      29.853  36.545  51.543  1.00  0.00     0.210 C 
ENDBRANCH  16  19
ENDBRANCH   9  13
ENDBRANCH   6   7
ENDBRANCH   5   6
ENDBRANCH   2   5
BRANCH   1  21
HETATM   21  C   UNL     1      25.655  45.168  52.340  1.00  0.00     0.225 C 
BRANCH  21  22
HETATM   22  C   UNL     1      26.513  44.503  53.424  1.00  0.00     0.239 C 
HETATM   23  N   UNL     1      27.862  44.799  53.294  1.00  0.00    -0.325 N 
HETATM   24  H   UNL     1      28.062  45.567  52.653  1.00  0.00     0.169 HD
HETATM   25  O   UNL     1      25.991  43.892  54.354  1.00  0.00    -0.271 OA
BRANCH  23  26
HETATM   26  C   UNL     1      28.846  44.510  54.264  1.00  0.00     0.046 A 
HETATM   27  C   UNL     1      29.113  45.367  55.351  1.00  0.00    -0.034 A 
HETATM   28  C   UNL     1      30.132  45.023  56.259  1.00  0.00     0.015 A 
HETATM   29  C   UNL     1      28.334  46.623  55.635  1.00  0.00     0.050 C 
HETATM   30  C   UNL     1      30.854  43.834  56.131  1.00  0.00    -0.061 A 
HETATM   31  C   UNL     1      31.918  43.466  57.120  1.00  0.00     0.048 C 
HETATM   32  C   UNL     1      30.535  42.962  55.088  1.00  0.00     0.015 A 
HETATM   33  C   UNL     1      29.540  43.284  54.150  1.00  0.00    -0.034 A 
HETATM   34  C   UNL     1      29.281  42.320  53.023  1.00  0.00     0.050 C 
ENDBRANCH  23  26
ENDBRANCH  21  22
ENDBRANCH   1  21
TORSDOF 8
ENDMDL
MODEL 10
REMARK VINA RESULT:      -8.8      2.539     11.620
REMARK  8 active torsions:
REMARK  status: ('A' for Active; 'I' for Inactive)
REMARK    1  A    between atoms: C_6  and  N_7 
REMARK       I    between atoms: N_7  and  C_8 
REMARK    2  A    between atoms: C_8  and  C_9 
REMARK    3  A    between atoms: C_9  and  N_10 
REMARK       I    between atoms: N_10  and  C_11 
REMARK    4  A    between atoms: C_11  and  C_12 
REMARK    5  A    between atoms: C_12  and  S_13 
REMARK    6  A    between atoms: S_13  and  C_14 
REMARK    7  A    between atoms: C_16  and  C_17 
REMARK    8  A    between atoms: C_20  and  O_21 
ROOT
HETATM    1  N   UNL     1      21.125  48.042  48.301  1.00  0.00    -0.352 N 
HETATM    2  C   UNL     1      22.224  48.862  48.305  1.00  0.00     0.227 C 
HETATM    3  O   UNL     1      22.506  49.571  47.339  1.00  0.00    -0.273 OA
HETATM    4  H   UNL     1      20.883  47.561  49.166  1.00  0.00     0.162 HD
ENDROOT
BRANCH   2   5
HETATM    5  C   UNL     1      23.087  48.798  49.557  1.00  0.00     0.185 C 
BRANCH   5   6
HETATM    6  S   UNL     1      24.770  48.190  49.215  1.00  0.00    -0.081 SA
BRANCH   6   7
HETATM    7  C   UNL     1      25.082  47.243  50.614  1.00  0.00     0.185 A 
HETATM    8  N   UNL     1      25.969  47.476  51.547  1.00  0.00    -0.201 NA
HETATM    9  C   UNL     1      25.845  46.387  52.388  1.00  0.00     0.182 A 
HETATM   10  N   UNL     1      24.903  45.509  51.999  1.00  0.00    -0.152 NA
HETATM   11  N   UNL     1      24.443  46.073  50.868  1.00  0.00    -0.253 N 
HETATM   12  H   UNL     1      23.718  45.614  50.329  1.00  0.00     0.191 HD
BRANCH   9  13
HETATM   13  C   UNL     1      26.706  46.228  53.557  1.00  0.00     0.014 A 
HETATM   14  C   UNL     1      26.965  47.322  54.393  1.00  0.00     0.018 A 
HETATM   15  C   UNL     1      27.812  47.192  55.497  1.00  0.00     0.037 A 
HETATM   16  C   UNL     1      28.415  45.968  55.788  1.00  0.00     0.068 A 
HETATM   17  C   UNL     1      28.155  44.869  54.969  1.00  0.00     0.037 A 
HETATM   18  C   UNL     1      27.306  45.000  53.860  1.00  0.00     0.018 A 
BRANCH  16  19
HETATM   19  O   UNL     1      29.224  45.982  56.890  1.00  0.00    -0.356 OA
HETATM   20  C   UNL     1      30.457  45.281  56.794  1.00  0.00     0.210 C 
ENDBRANCH  16  19
ENDBRANCH   9  13
ENDBRANCH   6   7
ENDBRANCH   5   6
ENDBRANCH   2   5
BRANCH   1  21
HETATM   21  C   UNL     1      20.196  47.944  47.194  1.00  0.00     0.225 C 
BRANCH  21  22
HETATM   22  C   UNL     1      19.136  49.054  47.192  1.00  0.00     0.239 C 
HETATM   23  N   UNL     1      18.585  49.267  48.447  1.00  0.00    -0.325 N 
HETATM   24  H   UNL     1      19.099  48.827  49.210  1.00  0.00     0.169 HD
HETATM   25  O   UNL     1      18.934  49.732  46.187  1.00  0.00    -0.271 OA
BRANCH  23  26
HETATM   26  C   UNL     1      17.758  50.360  48.787  1.00  0.00     0.046 A 
HETATM   27  C   UNL     1      16.371  50.367  48.538  1.00  0.00    -0.034 A 
HETATM   28  C   UNL     1      15.620  51.508  48.878  1.00  0.00     0.015 A 
HETATM   29  C   UNL     1      15.619  49.195  47.966  1.00  0.00     0.050 C 
HETATM   30  C   UNL     1      16.211  52.613  49.494  1.00  0.00    -0.061 A 
HETATM   31  C   UNL     1      15.395  53.812  49.876  1.00  0.00     0.048 C 
HETATM   32  C   UNL     1      17.574  52.569  49.795  1.00  0.00     0.015 A 
HETATM   33  C   UNL     1      18.357  51.455  49.449  1.00  0.00    -0.034 A 
HETATM   34  C   UNL     1      19.830  51.493  49.760  1.00  0.00     0.050 C 
ENDBRANCH  23  26
ENDBRANCH  21  22
ENDBRANCH   1  21
TORSDOF 8
ENDMDL
