MODEL 1
REMARK VINA RESULT:     -11.2      0.000      0.000
REMARK  9 active torsions:
REMARK  status: ('A' for Active; 'I' for Inactive)
REMARK    1  A    between atoms: C_5  and  C_6 
REMARK    2  A    between atoms: C_6  and  N_7 
REMARK       I    between atoms: N_7  and  C_8 
REMARK    3  A    between atoms: C_8  and  C_9 
REMARK    4  A    between atoms: C_9  and  N_10 
REMARK    5  A    between atoms: N_14  and  C_15 
REMARK    6  A    between atoms: C_17  and  N_18 
REMARK    7  A    between atoms: N_18  and  C_19 
REMARK    8  A    between atoms: C_26  and  N_27 
REMARK    9  A    between atoms: N_27  and  C_28 
ROOT
HETATM    1  C   UNL     1      27.075  43.830  52.628  1.00  0.00     0.756 A 
HETATM    2  N   UNL     1      28.148  44.232  53.283  1.00  0.00     0.131 NA
HETATM    3  C   UNL     1      29.107  43.332  53.472  1.00  0.00     0.758 A 
HETATM    4  N   UNL     1      29.029  42.075  53.057  1.00  0.00     0.131 NA
HETATM    5  C   UNL     1      27.961  41.772  52.333  1.00  0.00     0.758 A 
HETATM    6  N   UNL     1      26.978  42.630  52.083  1.00  0.00     0.131 NA
ENDROOT
BRANCH   1   7
HETATM    7  N   UNL     1      25.994  44.683  52.529  1.00  0.00    -0.210 N 
HETATM    8  C   UNL     1      24.692  44.151  52.129  1.00  0.00     0.169 C 
HETATM    9  C   UNL     1      24.299  44.698  50.738  1.00  0.00     0.256 C 
HETATM   10  N   UNL     1      24.369  46.228  50.762  1.00  0.00    -0.060 N 
HETATM   11  H   UNL     1      23.790  46.526  51.556  1.00  0.00     0.280 HD
HETATM   12  C   UNL     1      25.801  46.680  51.088  1.00  0.00     0.256 C 
HETATM   13  C   UNL     1      26.206  46.130  52.471  1.00  0.00     0.169 C 
BRANCH  10  14
HETATM   14  C   UNL     1      23.772  46.889  49.528  1.00  0.00     0.337 C 
BRANCH  14  15
HETATM   15  C   UNL     1      23.795  48.420  49.483  1.00  0.00     0.243 C 
HETATM   16  N   UNL     1      22.559  49.002  49.650  1.00  0.00    -0.355 N 
HETATM   17  H   UNL     1      21.711  48.451  49.603  1.00  0.00     0.162 HD
HETATM   18  O   UNL     1      24.835  49.055  49.342  1.00  0.00    -0.272 OA
BRANCH  16  19
HETATM   19  C   UNL     1      22.380  50.441  49.632  1.00  0.00     0.161 C 
BRANCH  19  20
HETATM   20  C   UNL     1      20.928  50.818  49.515  1.00  0.00    -0.041 A 
HETATM   21  C   UNL     1      20.496  51.737  48.549  1.00  0.00     0.009 A 
HETATM   22  C   UNL     1      19.140  52.048  48.419  1.00  0.00     0.007 A 
HETATM   23  C   UNL     1      18.191  51.450  49.255  1.00  0.00    -0.062 A 
HETATM   24  C   UNL     1      16.728  51.727  49.066  1.00  0.00     0.048 C 
HETATM   25  C   UNL     1      18.618  50.531  50.218  1.00  0.00     0.007 A 
HETATM   26  C   UNL     1      19.975  50.225  50.354  1.00  0.00     0.009 A 
ENDBRANCH  19  20
ENDBRANCH  16  19
ENDBRANCH  14  15
ENDBRANCH  10  14
ENDBRANCH   1   7
BRANCH   3  27
HETATM   27  N   UNL     1      30.254  43.668  54.189  1.00  0.00    -0.187 N 
HETATM   28  H   UNL     1      30.991  43.942  53.551  1.00  0.00     0.184 HD
BRANCH  27  29
HETATM   29  C   UNL     1      30.404  44.165  55.493  1.00  0.00     0.049 A 
HETATM   30  C   UNL     1      31.238  43.472  56.384  1.00  0.00     0.030 A 
HETATM   31  C   UNL     1      31.409  43.909  57.701  1.00  0.00     0.002 A 
HETATM   32  C   UNL     1      30.743  45.046  58.150  1.00  0.00     0.000 A 
HETATM   33  C   UNL     1      29.899  45.737  57.284  1.00  0.00     0.002 A 
HETATM   34  C   UNL     1      29.721  45.290  55.972  1.00  0.00     0.030 A 
ENDBRANCH  27  29
ENDBRANCH   3  27
BRANCH   5  35
HETATM   35  N   UNL     1      27.885  40.458  51.881  1.00  0.00    -0.187 N 
HETATM   36  H   UNL     1      27.436  39.865  52.565  1.00  0.00     0.184 HD
BRANCH  35  37
HETATM   37  C   UNL     1      28.429  39.815  50.763  1.00  0.00     0.049 A 
HETATM   38  C   UNL     1      28.124  40.178  49.445  1.00  0.00     0.030 A 
HETATM   39  C   UNL     1      28.658  39.479  48.358  1.00  0.00     0.002 A 
HETATM   40  C   UNL     1      29.490  38.385  48.574  1.00  0.00     0.000 A 
HETATM   41  C   UNL     1      29.790  37.994  49.876  1.00  0.00     0.002 A 
HETATM   42  C   UNL     1      29.262  38.704  50.959  1.00  0.00     0.030 A 
ENDBRANCH  35  37
ENDBRANCH   5  35
TORSDOF 9
ENDMDL
MODEL 2
REMARK VINA RESULT:     -11.0      0.495      5.583
REMARK  9 active torsions:
REMARK  status: ('A' for Active; 'I' for Inactive)
REMARK    1  A    between atoms: C_5  and  C_6 
REMARK    2  A    between atoms: C_6  and  N_7 
REMARK       I    between atoms: N_7  and  C_8 
REMARK    3  A    between atoms: C_8  and  C_9 
REMARK    4  A    between atoms: C_9  and  N_10 
REMARK    5  A    between atoms: N_14  and  C_15 
REMARK    6  A    between atoms: C_17  and  N_18 
REMARK    7  A    between atoms: N_18  and  C_19 
REMARK    8  A    between atoms: C_26  and  N_27 
REMARK    9  A    between atoms: N_27  and  C_28 
ROOT
HETATM    1  C   UNL     1      26.806  43.568  52.663  1.00  0.00     0.756 A 
HETATM    2  N   UNL     1      26.817  42.379  52.087  1.00  0.00     0.131 NA
HETATM    3  C   UNL     1      27.947  41.684  52.168  1.00  0.00     0.758 A 
HETATM    4  N   UNL     1      29.042  42.128  52.770  1.00  0.00     0.131 NA
HETATM    5  C   UNL     1      28.925  43.289  53.398  1.00  0.00     0.758 A 
HETATM    6  N   UNL     1      27.818  44.023  53.381  1.00  0.00     0.131 NA
ENDROOT
BRANCH   1   7
HETATM    7  N   UNL     1      25.708  44.384  52.487  1.00  0.00    -0.210 N 
HETATM    8  C   UNL     1      24.496  43.840  51.875  1.00  0.00     0.169 C 
HETATM    9  C   UNL     1      24.262  44.489  50.493  1.00  0.00     0.256 C 
HETATM   10  N   UNL     1      24.255  46.013  50.647  1.00  0.00    -0.060 N 
HETATM   11  H   UNL     1      23.563  46.220  51.377  1.00  0.00     0.280 HD
HETATM   12  C   UNL     1      25.608  46.489  51.197  1.00  0.00     0.256 C 
HETATM   13  C   UNL     1      25.855  45.839  52.574  1.00  0.00     0.169 C 
BRANCH  10  14
HETATM   14  C   UNL     1      23.792  46.753  49.401  1.00  0.00     0.337 C 
BRANCH  14  15
HETATM   15  C   UNL     1      23.846  48.283  49.445  1.00  0.00     0.243 C 
HETATM   16  N   UNL     1      22.609  48.885  49.489  1.00  0.00    -0.355 N 
HETATM   17  H   UNL     1      21.764  48.357  49.306  1.00  0.00     0.162 HD
HETATM   18  O   UNL     1      24.907  48.900  49.470  1.00  0.00    -0.272 OA
BRANCH  16  19
HETATM   19  C   UNL     1      22.458  50.327  49.529  1.00  0.00     0.161 C 
BRANCH  19  20
HETATM   20  C   UNL     1      21.010  50.734  49.469  1.00  0.00    -0.041 A 
HETATM   21  C   UNL     1      20.059  50.143  50.310  1.00  0.00     0.009 A 
HETATM   22  C   UNL     1      18.724  50.558  50.277  1.00  0.00     0.007 A 
HETATM   23  C   UNL     1      18.316  51.568  49.400  1.00  0.00    -0.062 A 
HETATM   24  C   UNL     1      16.900  52.065  49.418  1.00  0.00     0.048 C 
HETATM   25  C   UNL     1      19.265  52.162  48.562  1.00  0.00     0.007 A 
HETATM   26  C   UNL     1      20.597  51.743  48.588  1.00  0.00     0.009 A 
ENDBRANCH  19  20
ENDBRANCH  16  19
ENDBRANCH  14  15
ENDBRANCH  10  14
ENDBRANCH   1   7
BRANCH   3  27
HETATM   27  N   UNL     1      28.051  40.438  51.552  1.00  0.00    -0.187 N 
HETATM   28  H   UNL     1      27.633  39.728  52.140  1.00  0.00     0.184 HD
BRANCH  27  29
HETATM   29  C   UNL     1      28.126  40.094  50.194  1.00  0.00     0.049 A 
HETATM   30  C   UNL     1      28.531  38.794  49.852  1.00  0.00     0.030 A 
HETATM   31  C   UNL     1      28.643  38.401  48.515  1.00  0.00     0.002 A 
HETATM   32  C   UNL     1      28.355  39.305  47.497  1.00  0.00     0.000 A 
HETATM   33  C   UNL     1      27.966  40.603  47.817  1.00  0.00     0.002 A 
HETATM   34  C   UNL     1      27.867  40.996  49.155  1.00  0.00     0.030 A 
ENDBRANCH  27  29
ENDBRANCH   3  27
BRANCH   5  35
HETATM   35  N   UNL     1      30.068  43.749  54.047  1.00  0.00    -0.187 N 
HETATM   36  H   UNL     1      30.875  43.693  53.441  1.00  0.00     0.184 HD
BRANCH  35  37
HETATM   37  C   UNL     1      30.312  44.116  55.375  1.00  0.00     0.049 A 
HETATM   38  C   UNL     1      29.822  45.296  55.948  1.00  0.00     0.030 A 
HETATM   39  C   UNL     1      30.127  45.643  57.267  1.00  0.00     0.002 A 
HETATM   40  C   UNL     1      30.951  44.822  58.031  1.00  0.00     0.000 A 
HETATM   41  C   UNL     1      31.466  43.655  57.475  1.00  0.00     0.002 A 
HETATM   42  C   UNL     1      31.148  43.307  56.159  1.00  0.00     0.030 A 
ENDBRANCH  35  37
ENDBRANCH   5  35
TORSDOF 9
ENDMDL
MODEL 3
REMARK VINA RESULT:     -10.9      1.271      1.768
REMARK  9 active torsions:
REMARK  status: ('A' for Active; 'I' for Inactive)
REMARK    1  A    between atoms: C_5  and  C_6 
REMARK    2  A    between atoms: C_6  and  N_7 
REMARK       I    between atoms: N_7  and  C_8 
REMARK    3  A    between atoms: C_8  and  C_9 
REMARK    4  A    between atoms: C_9  and  N_10 
REMARK    5  A    between atoms: N_14  and  C_15 
REMARK    6  A    between atoms: C_17  and  N_18 
REMARK    7  A    between atoms: N_18  and  C_19 
REMARK    8  A    between atoms: C_26  and  N_27 
REMARK    9  A    between atoms: N_27  and  C_28 
ROOT
HETATM    1  C   UNL     1      26.657  43.907  50.718  1.00  0.00     0.756 A 
HETATM    2  N   UNL     1      26.909  44.537  51.851  1.00  0.00     0.131 NA
HETATM    3  C   UNL     1      27.369  43.799  52.857  1.00  0.00     0.758 A 
HETATM    4  N   UNL     1      27.563  42.490  52.781  1.00  0.00     0.131 NA
HETATM    5  C   UNL     1      27.371  41.947  51.587  1.00  0.00     0.758 A 
HETATM    6  N   UNL     1      26.939  42.630  50.533  1.00  0.00     0.131 NA
ENDROOT
BRANCH   1   7
HETATM    7  N   UNL     1      26.048  44.599  49.691  1.00  0.00    -0.210 N 
HETATM    8  C   UNL     1      26.168  46.055  49.634  1.00  0.00     0.169 C 
HETATM    9  C   UNL     1      24.793  46.712  49.889  1.00  0.00     0.256 C 
HETATM   10  N   UNL     1      23.769  46.130  48.910  1.00  0.00    -0.060 N 
HETATM   11  H   UNL     1      24.172  46.251  47.974  1.00  0.00     0.280 HD
HETATM   12  C   UNL     1      23.643  44.614  49.125  1.00  0.00     0.256 C 
HETATM   13  C   UNL     1      25.015  43.950  48.882  1.00  0.00     0.169 C 
BRANCH  10  14
HETATM   14  C   UNL     1      22.439  46.870  48.901  1.00  0.00     0.337 C 
BRANCH  14  15
HETATM   15  C   UNL     1      22.490  48.379  48.641  1.00  0.00     0.243 C 
HETATM   16  N   UNL     1      21.866  49.133  49.610  1.00  0.00    -0.355 N 
HETATM   17  H   UNL     1      21.269  48.702  50.304  1.00  0.00     0.162 HD
HETATM   18  O   UNL     1      23.065  48.857  47.669  1.00  0.00    -0.272 OA
BRANCH  16  19
HETATM   19  C   UNL     1      21.805  50.580  49.534  1.00  0.00     0.161 C 
BRANCH  19  20
HETATM   20  C   UNL     1      20.388  51.069  49.400  1.00  0.00    -0.041 A 
HETATM   21  C   UNL     1      20.051  52.061  48.469  1.00  0.00     0.009 A 
HETATM   22  C   UNL     1      18.726  52.478  48.322  1.00  0.00     0.007 A 
HETATM   23  C   UNL     1      17.713  51.915  49.105  1.00  0.00    -0.062 A 
HETATM   24  C   UNL     1      16.280  52.308  48.895  1.00  0.00     0.048 C 
HETATM   25  C   UNL     1      18.045  50.922  50.033  1.00  0.00     0.007 A 
HETATM   26  C   UNL     1      19.372  50.510  50.187  1.00  0.00     0.009 A 
ENDBRANCH  19  20
ENDBRANCH  16  19
ENDBRANCH  14  15
ENDBRANCH  10  14
ENDBRANCH   1   7
BRANCH   3  27
HETATM   27  N   UNL     1      27.621  44.383  54.098  1.00  0.00    -0.187 N 
HETATM   28  H   UNL     1      26.770  44.408  54.645  1.00  0.00     0.184 HD
BRANCH  27  29
HETATM   29  C   UNL     1      28.799  44.440  54.859  1.00  0.00     0.049 A 
HETATM   30  C   UNL     1      29.678  43.346  54.818  1.00  0.00     0.030 A 
HETATM   31  C   UNL     1      30.856  43.339  55.570  1.00  0.00     0.002 A 
HETATM   32  C   UNL     1      31.173  44.425  56.380  1.00  0.00     0.000 A 
HETATM   33  C   UNL     1      30.304  45.512  56.445  1.00  0.00     0.002 A 
HETATM   34  C   UNL     1      29.121  45.510  55.701  1.00  0.00     0.030 A 
ENDBRANCH  27  29
ENDBRANCH   3  27
BRANCH   5  35
HETATM   35  N   UNL     1      27.592  40.575  51.499  1.00  0.00    -0.187 N 
HETATM   36  H   UNL     1      27.254  40.101  52.325  1.00  0.00     0.184 HD
BRANCH  35  37
HETATM   37  C   UNL     1      28.301  39.794  50.580  1.00  0.00     0.049 A 
HETATM   38  C   UNL     1      28.069  39.834  49.199  1.00  0.00     0.030 A 
HETATM   39  C   UNL     1      28.772  39.003  48.322  1.00  0.00     0.002 A 
HETATM   40  C   UNL     1      29.706  38.098  48.816  1.00  0.00     0.000 A 
HETATM   41  C   UNL     1      29.938  38.027  50.187  1.00  0.00     0.002 A 
HETATM   42  C   UNL     1      29.240  38.868  51.059  1.00  0.00     0.030 A 
ENDBRANCH  35  37
ENDBRANCH   5  35
TORSDOF 9
ENDMDL
MODEL 4
REMARK VINA RESULT:     -10.5      1.605      5.886
REMARK  9 active torsions:
REMARK  status: ('A' for Active; 'I' for Inactive)
REMARK    1  A    between atoms: C_5  and  C_6 
REMARK    2  A    between atoms: C_6  and  N_7 
REMARK       I    between atoms: N_7  and  C_8 
REMARK    3  A    between atoms: C_8  and  C_9 
REMARK    4  A    between atoms: C_9  and  N_10 
REMARK    5  A    between atoms: N_14  and  C_15 
REMARK    6  A    between atoms: C_17  and  N_18 
REMARK    7  A    between atoms: N_18  and  C_19 
REMARK    8  A    between atoms: C_26  and  N_27 
REMARK    9  A    between atoms: N_27  and  C_28 
ROOT
HETATM    1  C   UNL     1      26.912  43.141  50.699  1.00  0.00     0.756 A 
HETATM    2  N   UNL     1      27.268  41.976  50.188  1.00  0.00     0.131 NA
HETATM    3  C   UNL     1      27.830  41.104  51.020  1.00  0.00     0.758 A 
HETATM    4  N   UNL     1      28.058  41.352  52.302  1.00  0.00     0.131 NA
HETATM    5  C   UNL     1      27.594  42.507  52.758  1.00  0.00     0.758 A 
HETATM    6  N   UNL     1      27.000  43.412  51.989  1.00  0.00     0.131 NA
ENDROOT
BRANCH   1   7
HETATM    7  N   UNL     1      26.456  44.130  49.852  1.00  0.00    -0.210 N 
HETATM    8  C   UNL     1      27.173  45.402  49.777  1.00  0.00     0.169 C 
HETATM    9  C   UNL     1      26.302  46.538  50.358  1.00  0.00     0.256 C 
HETATM   10  N   UNL     1      24.944  46.543  49.648  1.00  0.00    -0.060 N 
HETATM   11  H   UNL     1      25.151  46.587  48.643  1.00  0.00     0.280 HD
HETATM   12  C   UNL     1      24.230  45.203  49.877  1.00  0.00     0.256 C 
HETATM   13  C   UNL     1      25.098  44.060  49.308  1.00  0.00     0.169 C 
BRANCH  10  14
HETATM   14  C   UNL     1      24.093  47.765  49.961  1.00  0.00     0.337 C 
BRANCH  14  15
HETATM   15  C   UNL     1      23.156  48.257  48.854  1.00  0.00     0.243 C 
HETATM   16  N   UNL     1      21.848  47.855  49.010  1.00  0.00    -0.355 N 
HETATM   17  H   UNL     1      21.598  47.141  49.683  1.00  0.00     0.162 HD
HETATM   18  O   UNL     1      23.545  48.972  47.936  1.00  0.00    -0.272 OA
BRANCH  16  19
HETATM   19  C   UNL     1      20.815  48.219  48.059  1.00  0.00     0.161 C 
BRANCH  19  20
HETATM   20  C   UNL     1      20.023  49.409  48.529  1.00  0.00    -0.041 A 
HETATM   21  C   UNL     1      20.358  50.706  48.117  1.00  0.00     0.009 A 
HETATM   22  C   UNL     1      19.591  51.801  48.524  1.00  0.00     0.007 A 
HETATM   23  C   UNL     1      18.479  51.621  49.352  1.00  0.00    -0.062 A 
HETATM   24  C   UNL     1      17.611  52.787  49.727  1.00  0.00     0.048 C 
HETATM   25  C   UNL     1      18.140  50.327  49.761  1.00  0.00     0.007 A 
HETATM   26  C   UNL     1      18.910  49.232  49.362  1.00  0.00     0.009 A 
ENDBRANCH  19  20
ENDBRANCH  16  19
ENDBRANCH  14  15
ENDBRANCH  10  14
ENDBRANCH   1   7
BRANCH   3  27
HETATM   27  N   UNL     1      28.270  39.868  50.548  1.00  0.00    -0.187 N 
HETATM   28  H   UNL     1      28.618  39.311  51.319  1.00  0.00     0.184 HD
BRANCH  27  29
HETATM   29  C   UNL     1      27.869  39.122  49.429  1.00  0.00     0.049 A 
HETATM   30  C   UNL     1      28.373  39.479  48.169  1.00  0.00     0.030 A 
HETATM   31  C   UNL     1      27.993  38.785  47.016  1.00  0.00     0.002 A 
HETATM   32  C   UNL     1      27.100  37.722  47.106  1.00  0.00     0.000 A 
HETATM   33  C   UNL     1      26.578  37.364  48.346  1.00  0.00     0.002 A 
HETATM   34  C   UNL     1      26.949  38.068  49.495  1.00  0.00     0.030 A 
ENDBRANCH  27  29
ENDBRANCH   3  27
BRANCH   5  35
HETATM   35  N   UNL     1      27.816  42.762  54.108  1.00  0.00    -0.187 N 
HETATM   36  H   UNL     1      27.133  42.288  54.683  1.00  0.00     0.184 HD
BRANCH  35  37
HETATM   37  C   UNL     1      28.685  43.637  54.770  1.00  0.00     0.049 A 
HETATM   38  C   UNL     1      28.368  44.974  55.041  1.00  0.00     0.030 A 
HETATM   39  C   UNL     1      29.284  45.825  55.666  1.00  0.00     0.002 A 
HETATM   40  C   UNL     1      30.548  45.355  56.010  1.00  0.00     0.000 A 
HETATM   41  C   UNL     1      30.892  44.035  55.731  1.00  0.00     0.002 A 
HETATM   42  C   UNL     1      29.967  43.187  55.116  1.00  0.00     0.030 A 
ENDBRANCH  35  37
ENDBRANCH   5  35
TORSDOF 9
ENDMDL
MODEL 5
REMARK VINA RESULT:     -10.2      1.484      2.007
REMARK  9 active torsions:
REMARK  status: ('A' for Active; 'I' for Inactive)
REMARK    1  A    between atoms: C_5  and  C_6 
REMARK    2  A    between atoms: C_6  and  N_7 
REMARK       I    between atoms: N_7  and  C_8 
REMARK    3  A    between atoms: C_8  and  C_9 
REMARK    4  A    between atoms: C_9  and  N_10 
REMARK    5  A    between atoms: N_14  and  C_15 
REMARK    6  A    between atoms: C_17  and  N_18 
REMARK    7  A    between atoms: N_18  and  C_19 
REMARK    8  A    between atoms: C_26  and  N_27 
REMARK    9  A    between atoms: N_27  and  C_28 
ROOT
HETATM    1  C   UNL     1      25.860  43.088  51.379  1.00  0.00     0.756 A 
HETATM    2  N   UNL     1      26.798  43.233  52.298  1.00  0.00     0.131 NA
HETATM    3  C   UNL     1      27.714  42.273  52.375  1.00  0.00     0.758 A 
HETATM    4  N   UNL     1      27.718  41.196  51.602  1.00  0.00     0.131 NA
HETATM    5  C   UNL     1      26.798  41.166  50.648  1.00  0.00     0.758 A 
HETATM    6  N   UNL     1      25.870  42.104  50.497  1.00  0.00     0.131 NA
ENDROOT
BRANCH   1   7
HETATM    7  N   UNL     1      24.810  43.982  51.351  1.00  0.00    -0.210 N 
HETATM    8  C   UNL     1      23.617  43.667  50.565  1.00  0.00     0.169 C 
HETATM    9  C   UNL     1      23.496  44.638  49.370  1.00  0.00     0.256 C 
HETATM   10  N   UNL     1      23.541  46.079  49.887  1.00  0.00    -0.060 N 
HETATM   11  H   UNL     1      22.814  46.144  50.610  1.00  0.00     0.280 HD
HETATM   12  C   UNL     1      24.875  46.336  50.603  1.00  0.00     0.256 C 
HETATM   13  C   UNL     1      25.010  45.364  51.793  1.00  0.00     0.169 C 
BRANCH  10  14
HETATM   14  C   UNL     1      23.187  47.120  48.835  1.00  0.00     0.337 C 
BRANCH  14  15
HETATM   15  C   UNL     1      23.215  48.587  49.275  1.00  0.00     0.243 C 
HETATM   16  N   UNL     1      21.966  49.137  49.462  1.00  0.00    -0.355 N 
HETATM   17  H   UNL     1      21.133  48.662  49.139  1.00  0.00     0.162 HD
HETATM   18  O   UNL     1      24.264  49.192  49.471  1.00  0.00    -0.272 OA
BRANCH  16  19
HETATM   19  C   UNL     1      21.791  50.517  49.873  1.00  0.00     0.161 C 
BRANCH  19  20
HETATM   20  C   UNL     1      20.396  51.006  49.589  1.00  0.00    -0.041 A 
HETATM   21  C   UNL     1      20.159  51.977  48.606  1.00  0.00     0.009 A 
HETATM   22  C   UNL     1      18.856  52.394  48.319  1.00  0.00     0.007 A 
HETATM   23  C   UNL     1      17.768  51.853  49.011  1.00  0.00    -0.062 A 
HETATM   24  C   UNL     1      16.365  52.245  48.650  1.00  0.00     0.048 C 
HETATM   25  C   UNL     1      18.001  50.881  49.989  1.00  0.00     0.007 A 
HETATM   26  C   UNL     1      19.304  50.469  50.283  1.00  0.00     0.009 A 
ENDBRANCH  19  20
ENDBRANCH  16  19
ENDBRANCH  14  15
ENDBRANCH  10  14
ENDBRANCH   1   7
BRANCH   3  27
HETATM   27  N   UNL     1      28.713  42.333  53.345  1.00  0.00    -0.187 N 
HETATM   28  H   UNL     1      29.472  41.710  53.096  1.00  0.00     0.184 HD
BRANCH  27  29
HETATM   29  C   UNL     1      29.079  43.369  54.218  1.00  0.00     0.049 A 
HETATM   30  C   UNL     1      30.228  43.209  55.007  1.00  0.00     0.030 A 
HETATM   31  C   UNL     1      30.630  44.198  55.909  1.00  0.00     0.002 A 
HETATM   32  C   UNL     1      29.883  45.366  56.039  1.00  0.00     0.000 A 
HETATM   33  C   UNL     1      28.731  45.535  55.276  1.00  0.00     0.002 A 
HETATM   34  C   UNL     1      28.326  44.538  54.385  1.00  0.00     0.030 A 
ENDBRANCH  27  29
ENDBRANCH   3  27
BRANCH   5  35
HETATM   35  N   UNL     1      26.812  40.045  49.823  1.00  0.00    -0.187 N 
HETATM   36  H   UNL     1      26.668  39.201  50.359  1.00  0.00     0.184 HD
BRANCH  35  37
HETATM   37  C   UNL     1      27.126  39.877  48.469  1.00  0.00     0.049 A 
HETATM   38  C   UNL     1      26.883  38.690  47.767  1.00  0.00     0.030 A 
HETATM   39  C   UNL     1      27.253  38.553  46.426  1.00  0.00     0.002 A 
HETATM   40  C   UNL     1      27.897  39.597  45.770  1.00  0.00     0.000 A 
HETATM   41  C   UNL     1      28.167  40.779  46.455  1.00  0.00     0.002 A 
HETATM   42  C   UNL     1      27.785  40.914  47.793  1.00  0.00     0.030 A 
ENDBRANCH  35  37
ENDBRANCH   5  35
TORSDOF 9
ENDMDL
MODEL 6
REMARK VINA RESULT:      -9.9      3.635     12.595
REMARK  9 active torsions:
REMARK  status: ('A' for Active; 'I' for Inactive)
REMARK    1  A    between atoms: C_5  and  C_6 
REMARK    2  A    between atoms: C_6  and  N_7 
REMARK       I    between atoms: N_7  and  C_8 
REMARK    3  A    between atoms: C_8  and  C_9 
REMARK    4  A    between atoms: C_9  and  N_10 
REMARK    5  A    between atoms: N_14  and  C_15 
REMARK    6  A    between atoms: C_17  and  N_18 
REMARK    7  A    between atoms: N_18  and  C_19 
REMARK    8  A    between atoms: C_26  and  N_27 
REMARK    9  A    between atoms: N_27  and  C_28 
ROOT
HETATM    1  C   UNL     1      21.800  45.600  48.498  1.00  0.00     0.756 A 
HETATM    2  N   UNL     1      20.632  45.113  48.120  1.00  0.00     0.131 NA
HETATM    3  C   UNL     1      19.574  45.904  48.278  1.00  0.00     0.758 A 
HETATM    4  N   UNL     1      19.636  47.120  48.800  1.00  0.00     0.131 NA
HETATM    5  C   UNL     1      20.853  47.570  49.073  1.00  0.00     0.758 A 
HETATM    6  N   UNL     1      21.954  46.845  48.914  1.00  0.00     0.131 NA
ENDROOT
BRANCH   1   7
HETATM    7  N   UNL     1      22.903  44.772  48.486  1.00  0.00    -0.210 N 
HETATM    8  C   UNL     1      22.739  43.348  48.776  1.00  0.00     0.169 C 
HETATM    9  C   UNL     1      23.421  42.997  50.116  1.00  0.00     0.256 C 
HETATM   10  N   UNL     1      24.880  43.461  50.074  1.00  0.00    -0.060 N 
HETATM   11  H   UNL     1      25.285  43.046  49.227  1.00  0.00     0.280 HD
HETATM   12  C   UNL     1      24.939  44.982  49.871  1.00  0.00     0.256 C 
HETATM   13  C   UNL     1      24.250  45.345  48.539  1.00  0.00     0.169 C 
BRANCH  10  14
HETATM   14  C   UNL     1      25.719  42.955  51.238  1.00  0.00     0.337 C 
BRANCH  14  15
HETATM   15  C   UNL     1      25.803  43.856  52.475  1.00  0.00     0.243 C 
HETATM   16  N   UNL     1      27.041  44.424  52.668  1.00  0.00    -0.355 N 
HETATM   17  H   UNL     1      27.850  44.104  52.150  1.00  0.00     0.162 HD
HETATM   18  O   UNL     1      24.834  44.066  53.198  1.00  0.00    -0.272 OA
BRANCH  16  19
HETATM   19  C   UNL     1      27.315  45.302  53.790  1.00  0.00     0.161 C 
BRANCH  19  20
HETATM   20  C   UNL     1      28.477  44.809  54.610  1.00  0.00    -0.041 A 
HETATM   21  C   UNL     1      29.016  43.532  54.401  1.00  0.00     0.009 A 
HETATM   22  C   UNL     1      30.122  43.098  55.137  1.00  0.00     0.007 A 
HETATM   23  C   UNL     1      30.706  43.930  56.098  1.00  0.00    -0.062 A 
HETATM   24  C   UNL     1      31.939  43.493  56.835  1.00  0.00     0.048 C 
HETATM   25  C   UNL     1      30.172  45.205  56.306  1.00  0.00     0.007 A 
HETATM   26  C   UNL     1      29.061  45.637  55.577  1.00  0.00     0.009 A 
ENDBRANCH  19  20
ENDBRANCH  16  19
ENDBRANCH  14  15
ENDBRANCH  10  14
ENDBRANCH   1   7
BRANCH   3  27
HETATM   27  N   UNL     1      18.301  45.447  47.941  1.00  0.00    -0.187 N 
HETATM   28  H   UNL     1      17.716  45.420  48.767  1.00  0.00     0.184 HD
BRANCH  27  29
HETATM   29  C   UNL     1      17.592  45.527  46.732  1.00  0.00     0.049 A 
HETATM   30  C   UNL     1      17.085  46.773  46.332  1.00  0.00     0.030 A 
HETATM   31  C   UNL     1      16.354  46.909  45.148  1.00  0.00     0.002 A 
HETATM   32  C   UNL     1      16.114  45.797  44.346  1.00  0.00     0.000 A 
HETATM   33  C   UNL     1      16.595  44.550  44.736  1.00  0.00     0.002 A 
HETATM   34  C   UNL     1      17.315  44.416  45.926  1.00  0.00     0.030 A 
ENDBRANCH  27  29
ENDBRANCH   3  27
BRANCH   5  35
HETATM   35  N   UNL     1      20.922  48.855  49.604  1.00  0.00    -0.187 N 
HETATM   36  H   UNL     1      21.571  48.892  50.378  1.00  0.00     0.184 HD
BRANCH  35  37
HETATM   37  C   UNL     1      20.176  50.014  49.363  1.00  0.00     0.049 A 
HETATM   38  C   UNL     1      19.187  50.485  50.236  1.00  0.00     0.030 A 
HETATM   39  C   UNL     1      18.436  51.625  49.933  1.00  0.00     0.002 A 
HETATM   40  C   UNL     1      18.646  52.300  48.735  1.00  0.00     0.000 A 
HETATM   41  C   UNL     1      19.609  51.837  47.843  1.00  0.00     0.002 A 
HETATM   42  C   UNL     1      20.365  50.704  48.157  1.00  0.00     0.030 A 
ENDBRANCH  35  37
ENDBRANCH   5  35
TORSDOF 9
ENDMDL
MODEL 7
REMARK VINA RESULT:      -9.9      2.938      5.909
REMARK  9 active torsions:
REMARK  status: ('A' for Active; 'I' for Inactive)
REMARK    1  A    between atoms: C_5  and  C_6 
REMARK    2  A    between atoms: C_6  and  N_7 
REMARK       I    between atoms: N_7  and  C_8 
REMARK    3  A    between atoms: C_8  and  C_9 
REMARK    4  A    between atoms: C_9  and  N_10 
REMARK    5  A    between atoms: N_14  and  C_15 
REMARK    6  A    between atoms: C_17  and  N_18 
REMARK    7  A    between atoms: N_18  and  C_19 
REMARK    8  A    between atoms: C_26  and  N_27 
REMARK    9  A    between atoms: N_27  and  C_28 
ROOT
HETATM    1  C   UNL     1      24.085  44.227  50.586  1.00  0.00     0.756 A 
HETATM    2  N   UNL     1      24.622  43.524  51.567  1.00  0.00     0.131 NA
HETATM    3  C   UNL     1      25.715  44.025  52.135  1.00  0.00     0.758 A 
HETATM    4  N   UNL     1      26.286  45.160  51.757  1.00  0.00     0.131 NA
HETATM    5  C   UNL     1      25.640  45.849  50.827  1.00  0.00     0.758 A 
HETATM    6  N   UNL     1      24.529  45.421  50.237  1.00  0.00     0.131 NA
ENDROOT
BRANCH   1   7
HETATM    7  N   UNL     1      23.036  43.684  49.873  1.00  0.00    -0.210 N 
HETATM    8  C   UNL     1      23.311  42.725  48.804  1.00  0.00     0.169 C 
HETATM    9  C   UNL     1      22.946  43.337  47.434  1.00  0.00     0.256 C 
HETATM   10  N   UNL     1      21.495  43.829  47.474  1.00  0.00    -0.060 N 
HETATM   11  H   UNL     1      20.933  43.029  47.787  1.00  0.00     0.280 HD
HETATM   12  C   UNL     1      21.339  44.907  48.557  1.00  0.00     0.256 C 
HETATM   13  C   UNL     1      21.712  44.307  49.929  1.00  0.00     0.169 C 
BRANCH  10  14
HETATM   14  C   UNL     1      20.945  44.228  46.113  1.00  0.00     0.337 C 
BRANCH  14  15
HETATM   15  C   UNL     1      20.719  45.724  45.869  1.00  0.00     0.243 C 
HETATM   16  N   UNL     1      19.455  46.158  46.199  1.00  0.00    -0.355 N 
HETATM   17  H   UNL     1      18.709  45.500  46.388  1.00  0.00     0.162 HD
HETATM   18  O   UNL     1      21.606  46.460  45.448  1.00  0.00    -0.272 OA
BRANCH  16  19
HETATM   19  C   UNL     1      19.052  47.542  46.032  1.00  0.00     0.161 C 
BRANCH  19  20
HETATM   20  C   UNL     1      19.571  48.408  47.148  1.00  0.00    -0.041 A 
HETATM   21  C   UNL     1      20.148  49.658  46.882  1.00  0.00     0.009 A 
HETATM   22  C   UNL     1      20.588  50.474  47.928  1.00  0.00     0.007 A 
HETATM   23  C   UNL     1      20.463  50.056  49.256  1.00  0.00    -0.062 A 
HETATM   24  C   UNL     1      20.866  50.964  50.381  1.00  0.00     0.048 C 
HETATM   25  C   UNL     1      19.884  48.812  49.525  1.00  0.00     0.007 A 
HETATM   26  C   UNL     1      19.451  47.991  48.480  1.00  0.00     0.009 A 
ENDBRANCH  19  20
ENDBRANCH  16  19
ENDBRANCH  14  15
ENDBRANCH  10  14
ENDBRANCH   1   7
BRANCH   3  27
HETATM   27  N   UNL     1      26.363  43.324  53.150  1.00  0.00    -0.187 N 
HETATM   28  H   UNL     1      25.822  42.505  53.401  1.00  0.00     0.184 HD
BRANCH  27  29
HETATM   29  C   UNL     1      27.725  43.240  53.478  1.00  0.00     0.049 A 
HETATM   30  C   UNL     1      28.193  43.957  54.590  1.00  0.00     0.030 A 
HETATM   31  C   UNL     1      29.543  43.929  54.952  1.00  0.00     0.002 A 
HETATM   32  C   UNL     1      30.449  43.184  54.203  1.00  0.00     0.000 A 
HETATM   33  C   UNL     1      30.005  42.479  53.087  1.00  0.00     0.002 A 
HETATM   34  C   UNL     1      28.657  42.520  52.721  1.00  0.00     0.030 A 
ENDBRANCH  27  29
ENDBRANCH   3  27
BRANCH   5  35
HETATM   35  N   UNL     1      26.228  47.051  50.441  1.00  0.00    -0.187 N 
HETATM   36  H   UNL     1      27.092  47.207  50.940  1.00  0.00     0.184 HD
BRANCH  35  37
HETATM   37  C   UNL     1      25.777  48.102  49.633  1.00  0.00     0.049 A 
HETATM   38  C   UNL     1      24.422  48.350  49.383  1.00  0.00     0.030 A 
HETATM   39  C   UNL     1      24.019  49.386  48.534  1.00  0.00     0.002 A 
HETATM   40  C   UNL     1      24.972  50.177  47.900  1.00  0.00     0.000 A 
HETATM   41  C   UNL     1      26.325  49.935  48.119  1.00  0.00     0.002 A 
HETATM   42  C   UNL     1      26.721  48.905  48.977  1.00  0.00     0.030 A 
ENDBRANCH  35  37
ENDBRANCH   5  35
TORSDOF 9
ENDMDL
MODEL 8
REMARK VINA RESULT:      -9.8      2.934     10.355
REMARK  9 active torsions:
REMARK  status: ('A' for Active; 'I' for Inactive)
REMARK    1  A    between atoms: C_5  and  C_6 
REMARK    2  A    between atoms: C_6  and  N_7 
REMARK       I    between atoms: N_7  and  C_8 
REMARK    3  A    between atoms: C_8  and  C_9 
REMARK    4  A    between atoms: C_9  and  N_10 
REMARK    5  A    between atoms: N_14  and  C_15 
REMARK    6  A    between atoms: C_17  and  N_18 
REMARK    7  A    between atoms: N_18  and  C_19 
REMARK    8  A    between atoms: C_26  and  N_27 
REMARK    9  A    between atoms: N_27  and  C_28 
ROOT
HETATM    1  C   UNL     1      24.593  44.911  50.975  1.00  0.00     0.756 A 
HETATM    2  N   UNL     1      24.615  45.841  50.038  1.00  0.00     0.131 NA
HETATM    3  C   UNL     1      25.139  47.017  50.373  1.00  0.00     0.758 A 
HETATM    4  N   UNL     1      25.611  47.295  51.580  1.00  0.00     0.131 NA
HETATM    5  C   UNL     1      25.633  46.285  52.438  1.00  0.00     0.758 A 
HETATM    6  N   UNL     1      25.152  45.079  52.161  1.00  0.00     0.131 NA
ENDROOT
BRANCH   1   7
HETATM    7  N   UNL     1      23.935  43.725  50.723  1.00  0.00    -0.210 N 
HETATM    8  C   UNL     1      24.680  42.467  50.762  1.00  0.00     0.169 C 
HETATM    9  C   UNL     1      24.764  41.854  49.347  1.00  0.00     0.256 C 
HETATM   10  N   UNL     1      23.351  41.726  48.770  1.00  0.00    -0.060 N 
HETATM   11  H   UNL     1      22.806  41.205  49.467  1.00  0.00     0.280 HD
HETATM   12  C   UNL     1      22.698  43.114  48.673  1.00  0.00     0.256 C 
HETATM   13  C   UNL     1      22.619  43.738  50.082  1.00  0.00     0.169 C 
BRANCH  10  14
HETATM   14  C   UNL     1      23.284  40.915  47.484  1.00  0.00     0.337 C 
BRANCH  14  15
HETATM   15  C   UNL     1      24.609  40.381  46.933  1.00  0.00     0.243 C 
HETATM   16  N   UNL     1      24.832  39.050  47.208  1.00  0.00    -0.355 N 
HETATM   17  H   UNL     1      24.261  38.552  47.880  1.00  0.00     0.162 HD
HETATM   18  O   UNL     1      25.377  41.081  46.280  1.00  0.00    -0.272 OA
BRANCH  16  19
HETATM   19  C   UNL     1      26.037  38.369  46.773  1.00  0.00     0.161 C 
BRANCH  19  20
HETATM   20  C   UNL     1      27.022  38.211  47.900  1.00  0.00    -0.041 A 
HETATM   21  C   UNL     1      26.840  37.230  48.885  1.00  0.00     0.009 A 
HETATM   22  C   UNL     1      27.782  37.063  49.904  1.00  0.00     0.007 A 
HETATM   23  C   UNL     1      28.920  37.873  49.959  1.00  0.00    -0.062 A 
HETATM   24  C   UNL     1      29.968  37.643  51.008  1.00  0.00     0.048 C 
HETATM   25  C   UNL     1      29.106  38.850  48.975  1.00  0.00     0.007 A 
HETATM   26  C   UNL     1      28.161  39.024  47.961  1.00  0.00     0.009 A 
ENDBRANCH  19  20
ENDBRANCH  16  19
ENDBRANCH  14  15
ENDBRANCH  10  14
ENDBRANCH   1   7
BRANCH   3  27
HETATM   27  N   UNL     1      25.162  48.062  49.451  1.00  0.00    -0.187 N 
HETATM   28  H   UNL     1      25.882  47.894  48.759  1.00  0.00     0.184 HD
BRANCH  27  29
HETATM   29  C   UNL     1      24.145  48.931  49.028  1.00  0.00     0.049 A 
HETATM   30  C   UNL     1      22.812  48.584  49.296  1.00  0.00     0.030 A 
HETATM   31  C   UNL     1      21.755  49.400  48.881  1.00  0.00     0.002 A 
HETATM   32  C   UNL     1      22.016  50.577  48.186  1.00  0.00     0.000 A 
HETATM   33  C   UNL     1      23.332  50.930  47.897  1.00  0.00     0.002 A 
HETATM   34  C   UNL     1      24.385  50.105  48.303  1.00  0.00     0.030 A 
ENDBRANCH  27  29
ENDBRANCH   3  27
BRANCH   5  35
HETATM   35  N   UNL     1      26.145  46.570  53.701  1.00  0.00    -0.187 N 
HETATM   36  H   UNL     1      25.661  47.351  54.119  1.00  0.00     0.184 HD
BRANCH  35  37
HETATM   37  C   UNL     1      27.259  46.084  54.396  1.00  0.00     0.049 A 
HETATM   38  C   UNL     1      27.899  46.799  55.415  1.00  0.00     0.030 A 
HETATM   39  C   UNL     1      29.035  46.293  56.053  1.00  0.00     0.002 A 
HETATM   40  C   UNL     1      29.566  45.067  55.662  1.00  0.00     0.000 A 
HETATM   41  C   UNL     1      28.957  44.348  54.636  1.00  0.00     0.002 A 
HETATM   42  C   UNL     1      27.814  44.855  54.010  1.00  0.00     0.030 A 
ENDBRANCH  35  37
ENDBRANCH   5  35
TORSDOF 9
ENDMDL
MODEL 9
REMARK VINA RESULT:      -9.6      5.281     10.127
REMARK  9 active torsions:
REMARK  status: ('A' for Active; 'I' for Inactive)
REMARK    1  A    between atoms: C_5  and  C_6 
REMARK    2  A    between atoms: C_6  and  N_7 
REMARK       I    between atoms: N_7  and  C_8 
REMARK    3  A    between atoms: C_8  and  C_9 
REMARK    4  A    between atoms: C_9  and  N_10 
REMARK    5  A    between atoms: N_14  and  C_15 
REMARK    6  A    between atoms: C_17  and  N_18 
REMARK    7  A    between atoms: N_18  and  C_19 
REMARK    8  A    between atoms: C_26  and  N_27 
REMARK    9  A    between atoms: N_27  and  C_28 
ROOT
HETATM    1  C   UNL     1      24.402  45.043  50.840  1.00  0.00     0.756 A 
HETATM    2  N   UNL     1      24.268  45.966  49.906  1.00  0.00     0.131 NA
HETATM    3  C   UNL     1      24.715  47.183  50.198  1.00  0.00     0.758 A 
HETATM    4  N   UNL     1      25.261  47.507  51.362  1.00  0.00     0.131 NA
HETATM    5  C   UNL     1      25.440  46.507  52.213  1.00  0.00     0.758 A 
HETATM    6  N   UNL     1      25.042  45.263  51.975  1.00  0.00     0.131 NA
ENDROOT
BRANCH   1   7
HETATM    7  N   UNL     1      23.829  43.803  50.641  1.00  0.00    -0.210 N 
HETATM    8  C   UNL     1      24.621  42.597  50.882  1.00  0.00     0.169 C 
HETATM    9  C   UNL     1      24.883  41.859  49.551  1.00  0.00     0.256 C 
HETATM   10  N   UNL     1      23.547  41.600  48.847  1.00  0.00    -0.060 N 
HETATM   11  H   UNL     1      22.955  41.118  49.533  1.00  0.00     0.280 HD
HETATM   12  C   UNL     1      22.848  42.934  48.546  1.00  0.00     0.256 C 
HETATM   13  C   UNL     1      22.590  43.684  49.870  1.00  0.00     0.169 C 
BRANCH  10  14
HETATM   14  C   UNL     1      23.655  40.668  47.649  1.00  0.00     0.337 C 
BRANCH  14  15
HETATM   15  C   UNL     1      22.367  40.395  46.867  1.00  0.00     0.243 C 
HETATM   16  N   UNL     1      21.508  39.521  47.495  1.00  0.00    -0.355 N 
HETATM   17  H   UNL     1      21.810  38.973  48.291  1.00  0.00     0.162 HD
HETATM   18  O   UNL     1      22.124  40.939  45.794  1.00  0.00    -0.272 OA
BRANCH  16  19
HETATM   19  C   UNL     1      20.240  39.135  46.905  1.00  0.00     0.161 C 
BRANCH  19  20
HETATM   20  C   UNL     1      19.752  37.820  47.450  1.00  0.00    -0.041 A 
HETATM   21  C   UNL     1      20.581  36.689  47.456  1.00  0.00     0.009 A 
HETATM   22  C   UNL     1      20.134  35.484  48.003  1.00  0.00     0.007 A 
HETATM   23  C   UNL     1      18.851  35.384  48.552  1.00  0.00    -0.062 A 
HETATM   24  C   UNL     1      18.400  34.112  49.207  1.00  0.00     0.048 C 
HETATM   25  C   UNL     1      18.024  36.512  48.551  1.00  0.00     0.007 A 
HETATM   26  C   UNL     1      18.466  37.716  47.996  1.00  0.00     0.009 A 
ENDBRANCH  19  20
ENDBRANCH  16  19
ENDBRANCH  14  15
ENDBRANCH  10  14
ENDBRANCH   1   7
BRANCH   3  27
HETATM   27  N   UNL     1      24.573  48.223  49.279  1.00  0.00    -0.187 N 
HETATM   28  H   UNL     1      25.172  48.059  48.480  1.00  0.00     0.184 HD
BRANCH  27  29
HETATM   29  C   UNL     1      23.487  49.074  49.024  1.00  0.00     0.049 A 
HETATM   30  C   UNL     1      22.208  48.511  48.900  1.00  0.00     0.030 A 
HETATM   31  C   UNL     1      21.092  49.308  48.625  1.00  0.00     0.002 A 
HETATM   32  C   UNL     1      21.239  50.682  48.465  1.00  0.00     0.000 A 
HETATM   33  C   UNL     1      22.504  51.256  48.568  1.00  0.00     0.002 A 
HETATM   34  C   UNL     1      23.619  50.455  48.831  1.00  0.00     0.030 A 
ENDBRANCH  27  29
ENDBRANCH   3  27
BRANCH   5  35
HETATM   35  N   UNL     1      26.030  46.841  53.429  1.00  0.00    -0.187 N 
HETATM   36  H   UNL     1      25.661  47.712  53.783  1.00  0.00     0.184 HD
BRANCH  35  37
HETATM   37  C   UNL     1      27.101  46.285  54.139  1.00  0.00     0.049 A 
HETATM   38  C   UNL     1      27.633  45.021  53.859  1.00  0.00     0.030 A 
HETATM   39  C   UNL     1      28.676  44.488  54.623  1.00  0.00     0.002 A 
HETATM   40  C   UNL     1      29.189  45.205  55.699  1.00  0.00     0.000 A 
HETATM   41  C   UNL     1      28.661  46.456  56.007  1.00  0.00     0.002 A 
HETATM   42  C   UNL     1      27.626  46.988  55.233  1.00  0.00     0.030 A 
ENDBRANCH  35  37
ENDBRANCH   5  35
TORSDOF 9
ENDMDL
MODEL 10
REMARK VINA RESULT:      -9.5      3.718      9.611
REMARK  9 active torsions:
REMARK  status: ('A' for Active; 'I' for Inactive)
REMARK    1  A    between atoms: C_5  and  C_6 
REMARK    2  A    between atoms: C_6  and  N_7 
REMARK       I    between atoms: N_7  and  C_8 
REMARK    3  A    between atoms: C_8  and  C_9 
REMARK    4  A    between atoms: C_9  and  N_10 
REMARK    5  A    between atoms: N_14  and  C_15 
REMARK    6  A    between atoms: C_17  and  N_18 
REMARK    7  A    between atoms: N_18  and  C_19 
REMARK    8  A    between atoms: C_26  and  N_27 
REMARK    9  A    between atoms: N_27  and  C_28 
ROOT
HETATM    1  C   UNL     1      23.888  43.812  49.517  1.00  0.00     0.756 A 
HETATM    2  N   UNL     1      23.905  45.132  49.500  1.00  0.00     0.131 NA
HETATM    3  C   UNL     1      24.573  45.735  50.479  1.00  0.00     0.758 A 
HETATM    4  N   UNL     1      25.192  45.087  51.456  1.00  0.00     0.131 NA
HETATM    5  C   UNL     1      25.203  43.766  51.355  1.00  0.00     0.758 A 
HETATM    6  N   UNL     1      24.580  43.100  50.389  1.00  0.00     0.131 NA
ENDROOT
BRANCH   1   7
HETATM    7  N   UNL     1      23.095  43.143  48.608  1.00  0.00    -0.210 N 
HETATM    8  C   UNL     1      22.833  41.716  48.794  1.00  0.00     0.169 C 
HETATM    9  C   UNL     1      23.512  40.901  47.671  1.00  0.00     0.256 C 
HETATM   10  N   UNL     1      23.063  41.446  46.312  1.00  0.00    -0.060 N 
HETATM   11  H   UNL     1      22.036  41.442  46.330  1.00  0.00     0.280 HD
HETATM   12  C   UNL     1      23.479  42.919  46.177  1.00  0.00     0.256 C 
HETATM   13  C   UNL     1      22.813  43.740  47.301  1.00  0.00     0.169 C 
BRANCH  10  14
HETATM   14  C   UNL     1      23.471  40.573  45.135  1.00  0.00     0.337 C 
BRANCH  14  15
HETATM   15  C   UNL     1      24.943  40.624  44.712  1.00  0.00     0.243 C 
HETATM   16  N   UNL     1      25.803  40.045  45.618  1.00  0.00    -0.355 N 
HETATM   17  H   UNL     1      25.494  39.800  46.550  1.00  0.00     0.162 HD
HETATM   18  O   UNL     1      25.301  41.112  43.645  1.00  0.00    -0.272 OA
BRANCH  16  19
HETATM   19  C   UNL     1      27.236  40.003  45.395  1.00  0.00     0.161 C 
BRANCH  19  20
HETATM   20  C   UNL     1      27.972  39.508  46.611  1.00  0.00    -0.041 A 
HETATM   21  C   UNL     1      28.254  40.367  47.682  1.00  0.00     0.009 A 
HETATM   22  C   UNL     1      28.900  39.888  48.826  1.00  0.00     0.007 A 
HETATM   23  C   UNL     1      29.278  38.545  48.918  1.00  0.00    -0.062 A 
HETATM   24  C   UNL     1      29.903  38.015  50.176  1.00  0.00     0.048 C 
HETATM   25  C   UNL     1      28.994  37.685  47.853  1.00  0.00     0.007 A 
HETATM   26  C   UNL     1      28.356  38.163  46.706  1.00  0.00     0.009 A 
ENDBRANCH  19  20
ENDBRANCH  16  19
ENDBRANCH  14  15
ENDBRANCH  10  14
ENDBRANCH   1   7
BRANCH   3  27
HETATM   27  N   UNL     1      24.604  47.127  50.553  1.00  0.00    -0.187 N 
HETATM   28  H   UNL     1      24.433  47.424  51.506  1.00  0.00     0.184 HD
BRANCH  27  29
HETATM   29  C   UNL     1      25.285  48.070  49.767  1.00  0.00     0.049 A 
HETATM   30  C   UNL     1      26.684  48.136  49.860  1.00  0.00     0.030 A 
HETATM   31  C   UNL     1      27.414  49.068  49.117  1.00  0.00     0.002 A 
HETATM   32  C   UNL     1      26.754  49.953  48.270  1.00  0.00     0.000 A 
HETATM   33  C   UNL     1      25.366  49.913  48.177  1.00  0.00     0.002 A 
HETATM   34  C   UNL     1      24.638  48.988  48.931  1.00  0.00     0.030 A 
ENDBRANCH  27  29
ENDBRANCH   3  27
BRANCH   5  35
HETATM   35  N   UNL     1      25.868  43.083  52.370  1.00  0.00    -0.187 N 
HETATM   36  H   UNL     1      25.220  42.553  52.934  1.00  0.00     0.184 HD
BRANCH  35  37
HETATM   37  C   UNL     1      27.195  43.121  52.816  1.00  0.00     0.049 A 
HETATM   38  C   UNL     1      28.251  42.506  52.134  1.00  0.00     0.030 A 
HETATM   39  C   UNL     1      29.554  42.533  52.640  1.00  0.00     0.002 A 
HETATM   40  C   UNL     1      29.817  43.158  53.855  1.00  0.00     0.000 A 
HETATM   41  C   UNL     1      28.778  43.758  54.560  1.00  0.00     0.002 A 
HETATM   42  C   UNL     1      27.479  43.738  54.043  1.00  0.00     0.030 A 
ENDBRANCH  35  37
ENDBRANCH   5  35
TORSDOF 9
ENDMDL
