MODEL 1
REMARK VINA RESULT:      -9.0      0.000      0.000
REMARK  4 active torsions:
REMARK  status: ('A' for Active; 'I' for Inactive)
REMARK    1  A    between atoms: N_6  and  N_7 
REMARK       I    between atoms: N_7  and  C_8 
REMARK    2  A    between atoms: C_8  and  C_9 
REMARK    3  A    between atoms: C_10  and  O_11 
REMARK    4  A    between atoms: C_14  and  N_15 
ROOT
HETATM    1  N   UNL     1      26.391  43.967  51.683  1.00  0.00    -0.242 N 
HETATM    2  C   UNL     1      26.944  43.686  50.446  1.00  0.00     0.274 C 
HETATM    3  O   UNL     1      27.266  44.510  49.593  1.00  0.00    -0.266 OA
HETATM    4  H   UNL     1      26.182  43.225  52.335  1.00  0.00     0.192 HD
ENDROOT
BRANCH   1   5
HETATM    5  N   UNL     1      26.011  45.231  52.001  1.00  0.00    -0.166 NA
HETATM    6  C   UNL     1      26.524  45.794  53.050  1.00  0.00     0.157 A 
HETATM    7  C   UNL     1      25.981  47.133  53.584  1.00  0.00     0.279 A 
HETATM    8  C   UNL     1      27.619  45.413  53.955  1.00  0.00     0.029 A 
HETATM    9  N   UNL     1      26.695  47.377  54.744  1.00  0.00    -0.316 N 
HETATM   10  O   UNL     1      25.097  47.789  53.077  1.00  0.00    -0.265 OA
HETATM   11  C   UNL     1      26.518  48.539  55.574  1.00  0.00     0.159 C 
HETATM   12  C   UNL     1      27.658  46.384  54.961  1.00  0.00     0.050 A 
HETATM   13  C   UNL     1      28.586  46.319  55.988  1.00  0.00     0.032 A 
HETATM   14  C   UNL     1      29.499  45.260  55.981  1.00  0.00     0.026 A 
HETATM   15  C   UNL     1      29.480  44.310  54.947  1.00  0.00     0.035 A 
HETATM   16  C   UNL     1      28.545  44.383  53.912  1.00  0.00     0.040 A 
HETATM   17 CL   UNL     1      30.636  43.035  54.950  1.00  0.00    -0.084 Cl
ENDBRANCH   1   5
BRANCH   2  18
HETATM   18  C   UNL     1      27.268  42.256  50.202  1.00  0.00     0.068 A 
HETATM   19  C   UNL     1      26.856  41.658  49.006  1.00  0.00     0.081 A 
HETATM   20  C   UNL     1      27.254  40.362  48.698  1.00  0.00     0.039 A 
HETATM   21  C   UNL     1      28.037  39.642  49.605  1.00  0.00     0.026 A 
HETATM   22  C   UNL     1      28.369  40.184  50.849  1.00  0.00     0.006 A 
HETATM   23  C   UNL     1      28.016  41.508  51.125  1.00  0.00     0.043 A 
BRANCH  19  24
HETATM   24  O   UNL     1      26.087  42.300  48.074  1.00  0.00    -0.360 OA
HETATM   25  H   UNL     1      25.445  41.648  47.710  1.00  0.00     0.217 HD
ENDBRANCH  19  24
BRANCH  22  26
HETATM   26  N   UNL     1      29.243  39.501  51.704  1.00  0.00    -0.303 NA
HETATM   27  H   UNL     1      29.283  39.890  52.643  1.00  0.00     0.124 HD
HETATM   28  H   UNL     1      30.172  39.352  51.322  1.00  0.00     0.124 HD
ENDBRANCH  22  26
ENDBRANCH   2  18
TORSDOF 4
ENDMDL
MODEL 2
REMARK VINA RESULT:      -9.0      3.467      5.873
REMARK  4 active torsions:
REMARK  status: ('A' for Active; 'I' for Inactive)
REMARK    1  A    between atoms: N_6  and  N_7 
REMARK       I    between atoms: N_7  and  C_8 
REMARK    2  A    between atoms: C_8  and  C_9 
REMARK    3  A    between atoms: C_10  and  O_11 
REMARK    4  A    between atoms: C_14  and  N_15 
ROOT
HETATM    1  N   UNL     1      26.173  45.421  50.971  1.00  0.00    -0.242 N 
HETATM    2  C   UNL     1      26.637  46.202  49.928  1.00  0.00     0.274 C 
HETATM    3  O   UNL     1      27.584  45.937  49.191  1.00  0.00    -0.266 OA
HETATM    4  H   UNL     1      25.367  45.704  51.509  1.00  0.00     0.192 HD
ENDROOT
BRANCH   1   5
HETATM    5  N   UNL     1      26.858  44.317  51.368  1.00  0.00    -0.166 NA
HETATM    6  C   UNL     1      27.499  44.349  52.494  1.00  0.00     0.157 A 
HETATM    7  C   UNL     1      28.464  43.218  52.897  1.00  0.00     0.279 A 
HETATM    8  C   UNL     1      27.532  45.320  53.598  1.00  0.00     0.029 A 
HETATM    9  N   UNL     1      29.025  43.628  54.093  1.00  0.00    -0.316 N 
HETATM   10  O   UNL     1      28.674  42.209  52.259  1.00  0.00    -0.265 OA
HETATM   11  C   UNL     1      29.986  42.863  54.841  1.00  0.00     0.159 C 
HETATM   12  C   UNL     1      28.479  44.847  54.513  1.00  0.00     0.050 A 
HETATM   13  C   UNL     1      28.758  45.540  55.681  1.00  0.00     0.032 A 
HETATM   14  C   UNL     1      28.051  46.720  55.930  1.00  0.00     0.026 A 
HETATM   15  C   UNL     1      27.074  47.168  55.027  1.00  0.00     0.035 A 
HETATM   16  C   UNL     1      26.793  46.465  53.853  1.00  0.00     0.040 A 
HETATM   17 CL   UNL     1      26.198  48.608  55.375  1.00  0.00    -0.084 Cl
ENDBRANCH   1   5
BRANCH   2  18
HETATM   18  C   UNL     1      25.826  47.410  49.626  1.00  0.00     0.068 A 
HETATM   19  C   UNL     1      26.449  48.524  49.052  1.00  0.00     0.081 A 
HETATM   20  C   UNL     1      25.692  49.617  48.645  1.00  0.00     0.039 A 
HETATM   21  C   UNL     1      24.309  49.617  48.844  1.00  0.00     0.026 A 
HETATM   22  C   UNL     1      23.683  48.560  49.510  1.00  0.00     0.006 A 
HETATM   23  C   UNL     1      24.442  47.440  49.862  1.00  0.00     0.043 A 
BRANCH  19  24
HETATM   24  O   UNL     1      27.798  48.596  48.831  1.00  0.00    -0.360 OA
HETATM   25  H   UNL     1      28.089  47.733  48.455  1.00  0.00     0.217 HD
ENDBRANCH  19  24
BRANCH  22  26
HETATM   26  N   UNL     1      22.287  48.517  49.607  1.00  0.00    -0.303 NA
HETATM   27  H   UNL     1      21.937  47.696  50.094  1.00  0.00     0.124 HD
HETATM   28  H   UNL     1      21.801  48.666  48.728  1.00  0.00     0.124 HD
ENDBRANCH  22  26
ENDBRANCH   2  18
TORSDOF 4
ENDMDL
MODEL 3
REMARK VINA RESULT:      -8.9      3.172      4.155
REMARK  4 active torsions:
REMARK  status: ('A' for Active; 'I' for Inactive)
REMARK    1  A    between atoms: N_6  and  N_7 
REMARK       I    between atoms: N_7  and  C_8 
REMARK    2  A    between atoms: C_8  and  C_9 
REMARK    3  A    between atoms: C_10  and  O_11 
REMARK    4  A    between atoms: C_14  and  N_15 
ROOT
HETATM    1  N   UNL     1      29.713  42.563  52.985  1.00  0.00    -0.242 N 
HETATM    2  C   UNL     1      28.757  41.582  52.791  1.00  0.00     0.274 C 
HETATM    3  O   UNL     1      28.236  40.896  53.668  1.00  0.00    -0.266 OA
HETATM    4  H   UNL     1      30.068  43.099  52.206  1.00  0.00     0.192 HD
ENDROOT
BRANCH   1   5
HETATM    5  N   UNL     1      30.280  42.747  54.205  1.00  0.00    -0.166 NA
HETATM    6  C   UNL     1      29.920  43.770  54.915  1.00  0.00     0.157 A 
HETATM    7  C   UNL     1      30.673  44.153  56.203  1.00  0.00     0.279 A 
HETATM    8  C   UNL     1      28.849  44.766  54.762  1.00  0.00     0.029 A 
HETATM    9  N   UNL     1      30.080  45.326  56.635  1.00  0.00    -0.316 N 
HETATM   10  O   UNL     1      31.600  43.541  56.688  1.00  0.00    -0.265 OA
HETATM   11  C   UNL     1      30.467  46.040  57.823  1.00  0.00     0.159 C 
HETATM   12  C   UNL     1      29.010  45.684  55.806  1.00  0.00     0.050 A 
HETATM   13  C   UNL     1      28.153  46.764  55.951  1.00  0.00     0.032 A 
HETATM   14  C   UNL     1      27.109  46.902  55.032  1.00  0.00     0.026 A 
HETATM   15  C   UNL     1      26.929  45.956  54.010  1.00  0.00     0.035 A 
HETATM   16  C   UNL     1      27.793  44.867  53.870  1.00  0.00     0.040 A 
HETATM   17 CL   UNL     1      25.617  46.136  52.912  1.00  0.00    -0.084 Cl
ENDBRANCH   1   5
BRANCH   2  18
HETATM   18  C   UNL     1      28.254  41.447  51.400  1.00  0.00     0.068 A 
HETATM   19  C   UNL     1      28.474  40.251  50.707  1.00  0.00     0.081 A 
HETATM   20  C   UNL     1      27.907  40.053  49.454  1.00  0.00     0.039 A 
HETATM   21  C   UNL     1      27.145  41.067  48.868  1.00  0.00     0.026 A 
HETATM   22  C   UNL     1      27.002  42.307  49.497  1.00  0.00     0.006 A 
HETATM   23  C   UNL     1      27.525  42.476  50.782  1.00  0.00     0.043 A 
BRANCH  19  24
HETATM   24  O   UNL     1      29.212  39.216  51.217  1.00  0.00    -0.360 OA
HETATM   25  H   UNL     1      29.149  38.461  50.587  1.00  0.00     0.217 HD
ENDBRANCH  19  24
BRANCH  22  26
HETATM   26  N   UNL     1      26.149  43.277  48.955  1.00  0.00    -0.303 NA
HETATM   27  H   UNL     1      25.476  43.646  49.622  1.00  0.00     0.124 HD
HETATM   28  H   UNL     1      25.702  43.003  48.086  1.00  0.00     0.124 HD
ENDBRANCH  22  26
ENDBRANCH   2  18
TORSDOF 4
ENDMDL
MODEL 4
REMARK VINA RESULT:      -8.3      3.080      6.616
REMARK  4 active torsions:
REMARK  status: ('A' for Active; 'I' for Inactive)
REMARK    1  A    between atoms: N_6  and  N_7 
REMARK       I    between atoms: N_7  and  C_8 
REMARK    2  A    between atoms: C_8  and  C_9 
REMARK    3  A    between atoms: C_10  and  O_11 
REMARK    4  A    between atoms: C_14  and  N_15 
ROOT
HETATM    1  N   UNL     1      28.179  42.552  53.593  1.00  0.00    -0.242 N 
HETATM    2  C   UNL     1      29.513  42.902  53.706  1.00  0.00     0.274 C 
HETATM    3  O   UNL     1      30.398  42.656  52.890  1.00  0.00    -0.266 OA
HETATM    4  H   UNL     1      27.513  42.821  54.303  1.00  0.00     0.192 HD
ENDROOT
BRANCH   1   5
HETATM    5  N   UNL     1      27.759  41.740  52.589  1.00  0.00    -0.166 NA
HETATM    6  C   UNL     1      26.825  42.159  51.794  1.00  0.00     0.157 A 
HETATM    7  C   UNL     1      26.157  41.214  50.777  1.00  0.00     0.279 A 
HETATM    8  C   UNL     1      26.174  43.466  51.618  1.00  0.00     0.029 A 
HETATM    9  N   UNL     1      25.163  41.968  50.179  1.00  0.00    -0.316 N 
HETATM   10  O   UNL     1      26.455  40.055  50.590  1.00  0.00    -0.265 OA
HETATM   11  C   UNL     1      24.287  41.481  49.148  1.00  0.00     0.159 C 
HETATM   12  C   UNL     1      25.174  43.285  50.657  1.00  0.00     0.050 A 
HETATM   13  C   UNL     1      24.362  44.334  50.257  1.00  0.00     0.032 A 
HETATM   14  C   UNL     1      24.583  45.590  50.830  1.00  0.00     0.026 A 
HETATM   15  C   UNL     1      25.613  45.775  51.766  1.00  0.00     0.035 A 
HETATM   16  C   UNL     1      26.432  44.715  52.163  1.00  0.00     0.040 A 
HETATM   17 CL   UNL     1      25.880  47.339  52.432  1.00  0.00    -0.084 Cl
ENDBRANCH   1   5
BRANCH   2  18
HETATM   18  C   UNL     1      29.852  43.751  54.878  1.00  0.00     0.068 A 
HETATM   19  C   UNL     1      29.115  44.919  55.110  1.00  0.00     0.081 A 
HETATM   20  C   UNL     1      29.328  45.662  56.265  1.00  0.00     0.039 A 
HETATM   21  C   UNL     1      30.307  45.262  57.178  1.00  0.00     0.026 A 
HETATM   22  C   UNL     1      31.125  44.161  56.912  1.00  0.00     0.006 A 
HETATM   23  C   UNL     1      30.864  43.384  55.779  1.00  0.00     0.043 A 
BRANCH  19  24
HETATM   24  O   UNL     1      28.144  45.372  54.259  1.00  0.00    -0.360 OA
HETATM   25  H   UNL     1      27.367  45.641  54.802  1.00  0.00     0.217 HD
ENDBRANCH  19  24
BRANCH  22  26
HETATM   26  N   UNL     1      32.027  43.703  57.880  1.00  0.00    -0.303 NA
HETATM   27  H   UNL     1      31.779  43.973  58.829  1.00  0.00     0.124 HD
HETATM   28  H   UNL     1      33.001  43.909  57.676  1.00  0.00     0.124 HD
ENDBRANCH  22  26
ENDBRANCH   2  18
TORSDOF 4
ENDMDL
MODEL 5
REMARK VINA RESULT:      -8.2      2.596      6.627
REMARK  4 active torsions:
REMARK  status: ('A' for Active; 'I' for Inactive)
REMARK    1  A    between atoms: N_6  and  N_7 
REMARK       I    between atoms: N_7  and  C_8 
REMARK    2  A    between atoms: C_8  and  C_9 
REMARK    3  A    between atoms: C_10  and  O_11 
REMARK    4  A    between atoms: C_14  and  N_15 
ROOT
HETATM    1  N   UNL     1      25.325  45.017  52.235  1.00  0.00    -0.242 N 
HETATM    2  C   UNL     1      25.433  44.824  53.601  1.00  0.00     0.274 C 
HETATM    3  O   UNL     1      24.660  44.178  54.304  1.00  0.00    -0.266 OA
HETATM    4  H   UNL     1      26.024  45.543  51.731  1.00  0.00     0.192 HD
ENDROOT
BRANCH   1   5
HETATM    5  N   UNL     1      24.219  44.606  51.562  1.00  0.00    -0.166 NA
HETATM    6  C   UNL     1      24.291  43.537  50.833  1.00  0.00     0.157 A 
HETATM    7  C   UNL     1      23.146  43.139  49.883  1.00  0.00     0.279 A 
HETATM    8  C   UNL     1      25.324  42.502  50.675  1.00  0.00     0.029 A 
HETATM    9  N   UNL     1      23.603  42.018  49.213  1.00  0.00    -0.316 N 
HETATM   10  O   UNL     1      22.093  43.727  49.762  1.00  0.00    -0.265 OA
HETATM   11  C   UNL     1      22.843  41.299  48.225  1.00  0.00     0.159 C 
HETATM   12  C   UNL     1      24.867  41.635  49.677  1.00  0.00     0.050 A 
HETATM   13  C   UNL     1      25.615  40.538  49.280  1.00  0.00     0.032 A 
HETATM   14  C   UNL     1      26.837  40.310  49.920  1.00  0.00     0.026 A 
HETATM   15  C   UNL     1      27.272  41.162  50.948  1.00  0.00     0.035 A 
HETATM   16  C   UNL     1      26.513  42.264  51.348  1.00  0.00     0.040 A 
HETATM   17 CL   UNL     1      28.767  40.839  51.737  1.00  0.00    -0.084 Cl
ENDBRANCH   1   5
BRANCH   2  18
HETATM   18  C   UNL     1      26.667  45.366  54.225  1.00  0.00     0.068 A 
HETATM   19  C   UNL     1      26.694  46.705  54.634  1.00  0.00     0.081 A 
HETATM   20  C   UNL     1      27.787  47.202  55.333  1.00  0.00     0.039 A 
HETATM   21  C   UNL     1      28.880  46.372  55.595  1.00  0.00     0.026 A 
HETATM   22  C   UNL     1      28.917  45.064  55.104  1.00  0.00     0.006 A 
HETATM   23  C   UNL     1      27.789  44.554  54.455  1.00  0.00     0.043 A 
BRANCH  19  24
HETATM   24  O   UNL     1      25.663  47.577  54.408  1.00  0.00    -0.360 OA
HETATM   25  H   UNL     1      25.376  47.939  55.278  1.00  0.00     0.217 HD
ENDBRANCH  19  24
BRANCH  22  26
HETATM   26  N   UNL     1      29.964  44.206  55.464  1.00  0.00    -0.303 NA
HETATM   27  H   UNL     1      30.872  44.503  55.116  1.00  0.00     0.124 HD
HETATM   28  H   UNL     1      29.790  43.226  55.263  1.00  0.00     0.124 HD
ENDBRANCH  22  26
ENDBRANCH   2  18
TORSDOF 4
ENDMDL
MODEL 6
REMARK VINA RESULT:      -8.2      3.213      4.541
REMARK  4 active torsions:
REMARK  status: ('A' for Active; 'I' for Inactive)
REMARK    1  A    between atoms: N_6  and  N_7 
REMARK       I    between atoms: N_7  and  C_8 
REMARK    2  A    between atoms: C_8  and  C_9 
REMARK    3  A    between atoms: C_10  and  O_11 
REMARK    4  A    between atoms: C_14  and  N_15 
ROOT
HETATM    1  N   UNL     1      25.110  46.508  51.985  1.00  0.00    -0.242 N 
HETATM    2  C   UNL     1      24.998  47.106  50.742  1.00  0.00     0.274 C 
HETATM    3  O   UNL     1      25.558  48.140  50.383  1.00  0.00    -0.266 OA
HETATM    4  H   UNL     1      24.634  45.641  52.184  1.00  0.00     0.192 HD
ENDROOT
BRANCH   1   5
HETATM    5  N   UNL     1      25.765  47.132  52.997  1.00  0.00    -0.166 NA
HETATM    6  C   UNL     1      26.676  46.480  53.650  1.00  0.00     0.157 A 
HETATM    7  C   UNL     1      27.301  47.052  54.937  1.00  0.00     0.279 A 
HETATM    8  C   UNL     1      27.322  45.177  53.432  1.00  0.00     0.029 A 
HETATM    9  N   UNL     1      28.149  46.062  55.399  1.00  0.00    -0.316 N 
HETATM   10  O   UNL     1      27.054  48.135  55.420  1.00  0.00    -0.265 OA
HETATM   11  C   UNL     1      28.955  46.174  56.586  1.00  0.00     0.159 C 
HETATM   12  C   UNL     1      28.175  44.970  54.522  1.00  0.00     0.050 A 
HETATM   13  C   UNL     1      28.940  43.820  54.627  1.00  0.00     0.032 A 
HETATM   14  C   UNL     1      28.851  42.875  53.601  1.00  0.00     0.026 A 
HETATM   15  C   UNL     1      28.023  43.106  52.490  1.00  0.00     0.035 A 
HETATM   16  C   UNL     1      27.256  44.269  52.387  1.00  0.00     0.040 A 
HETATM   17 CL   UNL     1      27.956  41.938  51.228  1.00  0.00    -0.084 Cl
ENDBRANCH   1   5
BRANCH   2  18
HETATM   18  C   UNL     1      24.213  46.345  49.736  1.00  0.00     0.068 A 
HETATM   19  C   UNL     1      23.076  46.934  49.170  1.00  0.00     0.081 A 
HETATM   20  C   UNL     1      22.397  46.296  48.138  1.00  0.00     0.039 A 
HETATM   21  C   UNL     1      22.830  45.045  47.691  1.00  0.00     0.026 A 
HETATM   22  C   UNL     1      23.898  44.394  48.315  1.00  0.00     0.006 A 
HETATM   23  C   UNL     1      24.612  45.068  49.310  1.00  0.00     0.043 A 
BRANCH  19  24
HETATM   24  O   UNL     1      22.593  48.154  49.560  1.00  0.00    -0.360 OA
HETATM   25  H   UNL     1      22.431  48.689  48.749  1.00  0.00     0.217 HD
ENDBRANCH  19  24
BRANCH  22  26
HETATM   26  N   UNL     1      24.393  43.193  47.791  1.00  0.00    -0.303 NA
HETATM   27  H   UNL     1      24.822  43.295  46.875  1.00  0.00     0.124 HD
HETATM   28  H   UNL     1      23.731  42.423  47.811  1.00  0.00     0.124 HD
ENDBRANCH  22  26
ENDBRANCH   2  18
TORSDOF 4
ENDMDL
MODEL 7
REMARK VINA RESULT:      -8.2      3.020      6.783
REMARK  4 active torsions:
REMARK  status: ('A' for Active; 'I' for Inactive)
REMARK    1  A    between atoms: N_6  and  N_7 
REMARK       I    between atoms: N_7  and  C_8 
REMARK    2  A    between atoms: C_8  and  C_9 
REMARK    3  A    between atoms: C_10  and  O_11 
REMARK    4  A    between atoms: C_14  and  N_15 
ROOT
HETATM    1  N   UNL     1      25.669  43.451  52.261  1.00  0.00    -0.242 N 
HETATM    2  C   UNL     1      25.750  43.892  53.570  1.00  0.00     0.274 C 
HETATM    3  O   UNL     1      24.801  44.183  54.296  1.00  0.00    -0.266 OA
HETATM    4  H   UNL     1      26.503  43.207  51.746  1.00  0.00     0.192 HD
ENDROOT
BRANCH   1   5
HETATM    5  N   UNL     1      24.481  43.447  51.603  1.00  0.00    -0.166 NA
HETATM    6  C   UNL     1      24.351  42.704  50.549  1.00  0.00     0.157 A 
HETATM    7  C   UNL     1      23.113  42.817  49.640  1.00  0.00     0.279 A 
HETATM    8  C   UNL     1      25.204  41.670  49.943  1.00  0.00     0.029 A 
HETATM    9  N   UNL     1      23.357  41.956  48.585  1.00  0.00    -0.316 N 
HETATM   10  O   UNL     1      22.158  43.537  49.834  1.00  0.00    -0.265 OA
HETATM   11  C   UNL     1      22.448  41.736  47.492  1.00  0.00     0.159 C 
HETATM   12  C   UNL     1      24.570  41.277  48.760  1.00  0.00     0.050 A 
HETATM   13  C   UNL     1      25.120  40.306  47.938  1.00  0.00     0.032 A 
HETATM   14  C   UNL     1      26.322  39.714  48.335  1.00  0.00     0.026 A 
HETATM   15  C   UNL     1      26.934  40.085  49.543  1.00  0.00     0.035 A 
HETATM   16  C   UNL     1      26.373  41.061  50.370  1.00  0.00     0.040 A 
HETATM   17 CL   UNL     1      28.398  39.317  50.019  1.00  0.00    -0.084 Cl
ENDBRANCH   1   5
BRANCH   2  18
HETATM   18  C   UNL     1      27.114  43.896  54.159  1.00  0.00     0.068 A 
HETATM   19  C   UNL     1      27.896  42.738  54.076  1.00  0.00     0.081 A 
HETATM   20  C   UNL     1      29.218  42.754  54.505  1.00  0.00     0.039 A 
HETATM   21  C   UNL     1      29.756  43.920  55.056  1.00  0.00     0.026 A 
HETATM   22  C   UNL     1      28.960  45.054  55.244  1.00  0.00     0.006 A 
HETATM   23  C   UNL     1      27.650  45.048  54.755  1.00  0.00     0.043 A 
BRANCH  19  24
HETATM   24  O   UNL     1      27.436  41.560  53.552  1.00  0.00    -0.360 OA
HETATM   25  H   UNL     1      27.689  41.532  52.600  1.00  0.00     0.217 HD
ENDBRANCH  19  24
BRANCH  22  26
HETATM   26  N   UNL     1      29.533  46.250  55.694  1.00  0.00    -0.303 NA
HETATM   27  H   UNL     1      29.504  46.361  56.704  1.00  0.00     0.124 HD
HETATM   28  H   UNL     1      29.197  47.081  55.217  1.00  0.00     0.124 HD
ENDBRANCH  22  26
ENDBRANCH   2  18
TORSDOF 4
ENDMDL
MODEL 8
REMARK VINA RESULT:      -8.1      3.297      5.238
REMARK  4 active torsions:
REMARK  status: ('A' for Active; 'I' for Inactive)
REMARK    1  A    between atoms: N_6  and  N_7 
REMARK       I    between atoms: N_7  and  C_8 
REMARK    2  A    between atoms: C_8  and  C_9 
REMARK    3  A    between atoms: C_10  and  O_11 
REMARK    4  A    between atoms: C_14  and  N_15 
ROOT
HETATM    1  N   UNL     1      26.486  44.225  51.056  1.00  0.00    -0.242 N 
HETATM    2  C   UNL     1      25.128  43.989  50.928  1.00  0.00     0.274 C 
HETATM    3  O   UNL     1      24.501  43.072  51.453  1.00  0.00    -0.266 OA
HETATM    4  H   UNL     1      26.915  45.022  50.609  1.00  0.00     0.192 HD
ENDROOT
BRANCH   1   5
HETATM    5  N   UNL     1      27.289  43.329  51.685  1.00  0.00    -0.166 NA
HETATM    6  C   UNL     1      27.878  43.680  52.785  1.00  0.00     0.157 A 
HETATM    7  C   UNL     1      28.961  42.795  53.429  1.00  0.00     0.279 A 
HETATM    8  C   UNL     1      27.748  44.858  53.657  1.00  0.00     0.029 A 
HETATM    9  N   UNL     1      29.422  43.517  54.516  1.00  0.00    -0.316 N 
HETATM   10  O   UNL     1      29.321  41.711  53.023  1.00  0.00    -0.265 OA
HETATM   11  C   UNL     1      30.443  43.059  55.419  1.00  0.00     0.159 C 
HETATM   12  C   UNL     1      28.713  44.716  54.660  1.00  0.00     0.050 A 
HETATM   13  C   UNL     1      28.859  45.669  55.656  1.00  0.00     0.032 A 
HETATM   14  C   UNL     1      28.001  46.773  55.640  1.00  0.00     0.026 A 
HETATM   15  C   UNL     1      27.010  46.890  54.653  1.00  0.00     0.035 A 
HETATM   16  C   UNL     1      26.863  45.925  53.654  1.00  0.00     0.040 A 
HETATM   17 CL   UNL     1      25.949  48.244  54.677  1.00  0.00    -0.084 Cl
ENDBRANCH   1   5
BRANCH   2  18
HETATM   18  C   UNL     1      24.370  45.020  50.173  1.00  0.00     0.068 A 
HETATM   19  C   UNL     1      23.403  44.613  49.246  1.00  0.00     0.081 A 
HETATM   20  C   UNL     1      22.594  45.554  48.620  1.00  0.00     0.039 A 
HETATM   21  C   UNL     1      22.773  46.914  48.889  1.00  0.00     0.026 A 
HETATM   22  C   UNL     1      23.803  47.346  49.730  1.00  0.00     0.006 A 
HETATM   23  C   UNL     1      24.572  46.391  50.401  1.00  0.00     0.043 A 
BRANCH  19  24
HETATM   24  O   UNL     1      23.174  43.301  48.931  1.00  0.00    -0.360 OA
HETATM   25  H   UNL     1      22.918  42.831  49.757  1.00  0.00     0.217 HD
ENDBRANCH  19  24
BRANCH  22  26
HETATM   26  N   UNL     1      23.906  48.698  50.079  1.00  0.00    -0.303 NA
HETATM   27  H   UNL     1      24.813  48.952  50.461  1.00  0.00     0.124 HD
HETATM   28  H   UNL     1      23.147  49.039  50.661  1.00  0.00     0.124 HD
ENDBRANCH  22  26
ENDBRANCH   2  18
TORSDOF 4
ENDMDL
MODEL 9
REMARK VINA RESULT:      -7.9      2.691      4.068
REMARK  4 active torsions:
REMARK  status: ('A' for Active; 'I' for Inactive)
REMARK    1  A    between atoms: N_6  and  N_7 
REMARK       I    between atoms: N_7  and  C_8 
REMARK    2  A    between atoms: C_8  and  C_9 
REMARK    3  A    between atoms: C_10  and  O_11 
REMARK    4  A    between atoms: C_14  and  N_15 
ROOT
HETATM    1  N   UNL     1      25.550  45.643  52.215  1.00  0.00    -0.242 N 
HETATM    2  C   UNL     1      25.684  45.864  50.856  1.00  0.00     0.274 C 
HETATM    3  O   UNL     1      26.515  46.592  50.318  1.00  0.00    -0.266 OA
HETATM    4  H   UNL     1      24.853  45.004  52.569  1.00  0.00     0.192 HD
ENDROOT
BRANCH   1   5
HETATM    5  N   UNL     1      26.272  46.368  53.108  1.00  0.00    -0.166 NA
HETATM    6  C   UNL     1      27.265  45.801  53.718  1.00  0.00     0.157 A 
HETATM    7  C   UNL     1      27.985  46.494  54.890  1.00  0.00     0.279 A 
HETATM    8  C   UNL     1      27.939  44.505  53.541  1.00  0.00     0.029 A 
HETATM    9  N   UNL     1      28.912  45.573  55.344  1.00  0.00    -0.316 N 
HETATM   10  O   UNL     1      27.742  47.605  55.310  1.00  0.00    -0.265 OA
HETATM   11  C   UNL     1      29.820  45.807  56.435  1.00  0.00     0.159 C 
HETATM   12  C   UNL     1      28.898  44.415  54.556  1.00  0.00     0.050 A 
HETATM   13  C   UNL     1      29.715  43.302  54.676  1.00  0.00     0.032 A 
HETATM   14  C   UNL     1      29.567  42.275  53.739  1.00  0.00     0.026 A 
HETATM   15  C   UNL     1      28.630  42.389  52.700  1.00  0.00     0.035 A 
HETATM   16  C   UNL     1      27.811  43.514  52.580  1.00  0.00     0.040 A 
HETATM   17 CL   UNL     1      28.492  41.121  51.544  1.00  0.00    -0.084 Cl
ENDBRANCH   1   5
BRANCH   2  18
HETATM   18  C   UNL     1      24.800  45.043  49.987  1.00  0.00     0.068 A 
HETATM   19  C   UNL     1      25.356  43.996  49.243  1.00  0.00     0.081 A 
HETATM   20  C   UNL     1      24.536  43.136  48.522  1.00  0.00     0.039 A 
HETATM   21  C   UNL     1      23.154  43.341  48.512  1.00  0.00     0.026 A 
HETATM   22  C   UNL     1      22.590  44.443  49.162  1.00  0.00     0.006 A 
HETATM   23  C   UNL     1      23.415  45.267  49.933  1.00  0.00     0.043 A 
BRANCH  19  24
HETATM   24  O   UNL     1      26.700  43.738  49.203  1.00  0.00    -0.360 OA
HETATM   25  H   UNL     1      27.162  44.575  48.965  1.00  0.00     0.217 HD
ENDBRANCH  19  24
BRANCH  22  26
HETATM   26  N   UNL     1      21.198  44.579  49.238  1.00  0.00    -0.303 NA
HETATM   27  H   UNL     1      20.822  45.280  48.604  1.00  0.00     0.124 HD
HETATM   28  H   UNL     1      20.840  44.697  50.181  1.00  0.00     0.124 HD
ENDBRANCH  22  26
ENDBRANCH   2  18
TORSDOF 4
ENDMDL
MODEL 10
REMARK VINA RESULT:      -7.8      6.683      9.733
REMARK  4 active torsions:
REMARK  status: ('A' for Active; 'I' for Inactive)
REMARK    1  A    between atoms: N_6  and  N_7 
REMARK       I    between atoms: N_7  and  C_8 
REMARK    2  A    between atoms: C_8  and  C_9 
REMARK    3  A    between atoms: C_10  and  O_11 
REMARK    4  A    between atoms: C_14  and  N_15 
ROOT
HETATM    1  N   UNL     1      22.607  49.048  49.460  1.00  0.00    -0.242 N 
HETATM    2  C   UNL     1      21.968  50.193  49.901  1.00  0.00     0.274 C 
HETATM    3  O   UNL     1      22.479  51.103  50.550  1.00  0.00    -0.266 OA
HETATM    4  H   UNL     1      22.115  48.362  48.907  1.00  0.00     0.192 HD
ENDROOT
BRANCH   1   5
HETATM    5  N   UNL     1      23.875  48.765  49.859  1.00  0.00    -0.166 NA
HETATM    6  C   UNL     1      24.296  47.541  49.786  1.00  0.00     0.157 A 
HETATM    7  C   UNL     1      25.636  47.118  50.418  1.00  0.00     0.279 A 
HETATM    8  C   UNL     1      23.732  46.324  49.183  1.00  0.00     0.029 A 
HETATM    9  N   UNL     1      25.711  45.750  50.228  1.00  0.00    -0.316 N 
HETATM   10  O   UNL     1      26.418  47.858  50.975  1.00  0.00    -0.265 OA
HETATM   11  C   UNL     1      26.814  44.932  50.657  1.00  0.00     0.159 C 
HETATM   12  C   UNL     1      24.610  45.282  49.500  1.00  0.00     0.050 A 
HETATM   13  C   UNL     1      24.366  43.984  49.079  1.00  0.00     0.032 A 
HETATM   14  C   UNL     1      23.223  43.747  48.310  1.00  0.00     0.026 A 
HETATM   15  C   UNL     1      22.367  44.804  47.962  1.00  0.00     0.035 A 
HETATM   16  C   UNL     1      22.618  46.111  48.386  1.00  0.00     0.040 A 
HETATM   17 CL   UNL     1      20.984  44.485  46.989  1.00  0.00    -0.084 Cl
ENDBRANCH   1   5
BRANCH   2  18
HETATM   18  C   UNL     1      20.567  50.360  49.436  1.00  0.00     0.068 A 
HETATM   19  C   UNL     1      19.671  49.293  49.572  1.00  0.00     0.081 A 
HETATM   20  C   UNL     1      18.327  49.463  49.261  1.00  0.00     0.039 A 
HETATM   21  C   UNL     1      17.877  50.694  48.777  1.00  0.00     0.026 A 
HETATM   22  C   UNL     1      18.774  51.738  48.534  1.00  0.00     0.006 A 
HETATM   23  C   UNL     1      20.112  51.578  48.905  1.00  0.00     0.043 A 
BRANCH  19  24
HETATM   24  O   UNL     1      20.042  48.060  50.036  1.00  0.00    -0.360 OA
HETATM   25  H   UNL     1      20.264  47.498  49.258  1.00  0.00     0.217 HD
ENDBRANCH  19  24
BRANCH  22  26
HETATM   26  N   UNL     1      18.300  53.000  48.153  1.00  0.00    -0.303 NA
HETATM   27  H   UNL     1      18.481  53.226  47.179  1.00  0.00     0.124 HD
HETATM   28  H   UNL     1      18.580  53.756  48.771  1.00  0.00     0.124 HD
ENDBRANCH  22  26
ENDBRANCH   2  18
TORSDOF 4
ENDMDL
