MODEL 1
REMARK VINA RESULT:     -10.4      0.000      0.000
REMARK  6 active torsions:
REMARK  status: ('A' for Active; 'I' for Inactive)
REMARK    1  A    between atoms: C_2  and  O_3 
REMARK    2  A    between atoms: O_3  and  C_4 
REMARK    3  A    between atoms: C_7  and  C_8 
REMARK       I    between atoms: C_8  and  N_9 
REMARK    4  A    between atoms: N_9  and  C_10 
REMARK    5  A    between atoms: N_11  and  C_12 
REMARK    6  A    between atoms: C_24  and  C_25 
ROOT
HETATM    1  C   UNL     1      26.946  42.756  50.762  1.00  0.00     0.152 C 
HETATM    2  N   UNL     1      27.559  42.540  51.996  1.00  0.00    -0.044 N 
HETATM    3  N   UNL     1      28.087  41.270  52.062  1.00  0.00    -0.148 NA
HETATM    4  C   UNL     1      28.071  40.852  50.791  1.00  0.00     0.115 C 
HETATM    5  C   UNL     1      27.416  41.761  49.935  1.00  0.00     0.087 C 
ENDROOT
BRANCH   1   6
HETATM    6  N   UNL     1      26.044  43.757  50.434  1.00  0.00    -0.307 N 
HETATM    7  C   UNL     1      26.483  44.944  49.874  1.00  0.00     0.257 C 
HETATM    8  O   UNL     1      27.636  45.241  49.584  1.00  0.00    -0.267 OA
HETATM    9  H   UNL     1      25.133  43.747  50.877  1.00  0.00     0.170 HD
BRANCH   7  10
HETATM   10  C   UNL     1      25.435  45.969  49.728  1.00  0.00     0.032 A 
HETATM   11  C   UNL     1      25.752  47.320  49.915  1.00  0.00     0.020 A 
HETATM   12  C   UNL     1      24.778  48.293  49.687  1.00  0.00     0.038 A 
HETATM   13  C   UNL     1      23.504  47.911  49.260  1.00  0.00     0.069 A 
HETATM   14  C   UNL     1      23.182  46.558  49.124  1.00  0.00     0.038 A 
HETATM   15  C   UNL     1      24.154  45.580  49.339  1.00  0.00     0.020 A 
BRANCH  13  16
HETATM   16  O   UNL     1      22.501  48.796  48.971  1.00  0.00    -0.347 OA
BRANCH  16  17
HETATM   17  C   UNL     1      22.796  50.179  49.235  1.00  0.00     0.120 C 
HETATM   18  C   UNL     1      21.524  50.786  49.823  1.00  0.00     0.040 C 
HETATM   19  C   UNL     1      23.176  50.927  47.956  1.00  0.00     0.040 C 
ENDBRANCH  16  17
ENDBRANCH  13  16
ENDBRANCH   7  10
ENDBRANCH   1   6
BRANCH   2  20
HETATM   20  C   UNL     1      27.857  43.437  53.046  1.00  0.00     0.732 A 
HETATM   21  N   UNL     1      28.941  43.408  53.755  1.00  0.00    -0.067 NA
HETATM   22  C   UNL     1      29.040  44.350  54.757  1.00  0.00     0.065 A 
HETATM   23  C   UNL     1      28.095  45.270  55.030  1.00  0.00     0.036 A 
HETATM   24  C   UNL     1      30.319  44.289  55.560  1.00  0.00     0.060 C 
HETATM   25  C   UNL     1      28.189  46.286  56.129  1.00  0.00     0.046 C 
HETATM   26  C   UNL     1      26.862  45.264  54.208  1.00  0.00     0.268 A 
HETATM   27  C   UNL     1      29.296  45.969  57.136  1.00  0.00     0.005 C 
HETATM   28  C   UNL     1      30.570  45.528  56.425  1.00  0.00     0.006 C 
HETATM   29  O   UNL     1      25.950  46.063  54.386  1.00  0.00    -0.267 OA
HETATM   30  N   UNL     1      26.815  44.300  53.254  1.00  0.00    -0.152 N 
HETATM   31  H   UNL     1      25.989  44.227  52.671  1.00  0.00     0.188 HD
ENDBRANCH   2  20
BRANCH   4  32
HETATM   32  C   UNL     1      28.658  39.549  50.362  1.00  0.00     0.105 A 
HETATM   33  O   UNL     1      29.466  38.770  51.146  1.00  0.00    -0.320 OA
HETATM   34  C   UNL     1      29.798  37.673  50.416  1.00  0.00     0.142 A 
HETATM   35  C   UNL     1      29.219  37.729  49.171  1.00  0.00     0.027 A 
HETATM   36  C   UNL     1      28.483  38.939  49.135  1.00  0.00     0.041 A 
ENDBRANCH   4  32
TORSDOF 6
ENDMDL
MODEL 2
REMARK VINA RESULT:     -10.1      1.875      8.014
REMARK  6 active torsions:
REMARK  status: ('A' for Active; 'I' for Inactive)
REMARK    1  A    between atoms: C_2  and  O_3 
REMARK    2  A    between atoms: O_3  and  C_4 
REMARK    3  A    between atoms: C_7  and  C_8 
REMARK       I    between atoms: C_8  and  N_9 
REMARK    4  A    between atoms: N_9  and  C_10 
REMARK    5  A    between atoms: N_11  and  C_12 
REMARK    6  A    between atoms: C_24  and  C_25 
ROOT
HETATM    1  C   UNL     1      24.988  45.631  50.126  1.00  0.00     0.152 C 
HETATM    2  N   UNL     1      25.404  46.606  51.032  1.00  0.00    -0.044 N 
HETATM    3  N   UNL     1      24.856  47.830  50.719  1.00  0.00    -0.148 NA
HETATM    4  C   UNL     1      23.889  47.530  49.844  1.00  0.00     0.115 C 
HETATM    5  C   UNL     1      23.898  46.168  49.479  1.00  0.00     0.087 C 
ENDROOT
BRANCH   1   6
HETATM    6  N   UNL     1      25.555  44.385  49.910  1.00  0.00    -0.307 N 
HETATM    7  C   UNL     1      25.134  43.285  50.637  1.00  0.00     0.257 C 
HETATM    8  O   UNL     1      24.250  43.255  51.484  1.00  0.00    -0.267 OA
HETATM    9  H   UNL     1      26.462  44.340  49.461  1.00  0.00     0.170 HD
BRANCH   7  10
HETATM   10  C   UNL     1      25.934  42.068  50.413  1.00  0.00     0.032 A 
HETATM   11  C   UNL     1      27.120  41.873  51.129  1.00  0.00     0.020 A 
HETATM   12  C   UNL     1      27.825  40.678  50.980  1.00  0.00     0.038 A 
HETATM   13  C   UNL     1      27.333  39.684  50.131  1.00  0.00     0.069 A 
HETATM   14  C   UNL     1      26.175  39.907  49.382  1.00  0.00     0.038 A 
HETATM   15  C   UNL     1      25.458  41.094  49.535  1.00  0.00     0.020 A 
BRANCH  13  16
HETATM   16  O   UNL     1      27.932  38.467  49.956  1.00  0.00    -0.347 OA
BRANCH  16  17
HETATM   17  C   UNL     1      29.363  38.450  50.108  1.00  0.00     0.120 C 
HETATM   18  C   UNL     1      29.939  38.120  48.732  1.00  0.00     0.040 C 
HETATM   19  C   UNL     1      29.808  37.388  51.116  1.00  0.00     0.040 C 
ENDBRANCH  16  17
ENDBRANCH  13  16
ENDBRANCH   7  10
ENDBRANCH   1   6
BRANCH   2  20
HETATM   20  C   UNL     1      26.111  46.489  52.250  1.00  0.00     0.732 A 
HETATM   21  N   UNL     1      26.989  45.572  52.509  1.00  0.00    -0.067 NA
HETATM   22  C   UNL     1      27.552  45.604  53.766  1.00  0.00     0.065 A 
HETATM   23  C   UNL     1      27.246  46.512  54.712  1.00  0.00     0.036 A 
HETATM   24  C   UNL     1      28.575  44.523  54.031  1.00  0.00     0.060 C 
HETATM   25  C   UNL     1      27.844  46.542  56.088  1.00  0.00     0.046 C 
HETATM   26  C   UNL     1      26.228  47.538  54.388  1.00  0.00     0.268 A 
HETATM   27  C   UNL     1      28.577  45.248  56.443  1.00  0.00     0.005 C 
HETATM   28  C   UNL     1      29.431  44.767  55.277  1.00  0.00     0.006 C 
HETATM   29  O   UNL     1      25.886  48.402  55.186  1.00  0.00    -0.267 OA
HETATM   30  N   UNL     1      25.694  47.440  53.143  1.00  0.00    -0.152 N 
HETATM   31  H   UNL     1      24.975  48.097  52.865  1.00  0.00     0.188 HD
ENDBRANCH   2  20
BRANCH   4  32
HETATM   32  C   UNL     1      22.945  48.552  49.305  1.00  0.00     0.105 A 
HETATM   33  O   UNL     1      22.900  49.857  49.715  1.00  0.00    -0.320 OA
HETATM   34  C   UNL     1      21.921  50.470  49.001  1.00  0.00     0.142 A 
HETATM   35  C   UNL     1      21.328  49.583  48.135  1.00  0.00     0.027 A 
HETATM   36  C   UNL     1      21.988  48.345  48.330  1.00  0.00     0.041 A 
ENDBRANCH   4  32
TORSDOF 6
ENDMDL
MODEL 3
REMARK VINA RESULT:      -9.9      2.448      9.019
REMARK  6 active torsions:
REMARK  status: ('A' for Active; 'I' for Inactive)
REMARK    1  A    between atoms: C_2  and  O_3 
REMARK    2  A    between atoms: O_3  and  C_4 
REMARK    3  A    between atoms: C_7  and  C_8 
REMARK       I    between atoms: C_8  and  N_9 
REMARK    4  A    between atoms: N_9  and  C_10 
REMARK    5  A    between atoms: N_11  and  C_12 
REMARK    6  A    between atoms: C_24  and  C_25 
ROOT
HETATM    1  C   UNL     1      25.518  46.335  50.661  1.00  0.00     0.152 C 
HETATM    2  N   UNL     1      24.700  45.453  49.955  1.00  0.00    -0.044 N 
HETATM    3  N   UNL     1      23.610  46.111  49.431  1.00  0.00    -0.148 NA
HETATM    4  C   UNL     1      23.933  47.405  49.549  1.00  0.00     0.115 C 
HETATM    5  C   UNL     1      25.133  47.595  50.263  1.00  0.00     0.087 C 
ENDROOT
BRANCH   1   6
HETATM    6  N   UNL     1      26.506  46.014  51.579  1.00  0.00    -0.307 N 
HETATM    7  C   UNL     1      26.171  45.557  52.842  1.00  0.00     0.257 C 
HETATM    8  O   UNL     1      25.045  45.360  53.281  1.00  0.00    -0.267 OA
HETATM    9  H   UNL     1      27.433  46.397  51.441  1.00  0.00     0.170 HD
BRANCH   7  10
HETATM   10  C   UNL     1      27.317  45.410  53.756  1.00  0.00     0.032 A 
HETATM   11  C   UNL     1      28.069  44.230  53.745  1.00  0.00     0.020 A 
HETATM   12  C   UNL     1      29.207  44.132  54.548  1.00  0.00     0.038 A 
HETATM   13  C   UNL     1      29.592  45.215  55.341  1.00  0.00     0.069 A 
HETATM   14  C   UNL     1      28.807  46.371  55.384  1.00  0.00     0.038 A 
HETATM   15  C   UNL     1      27.675  46.481  54.575  1.00  0.00     0.020 A 
BRANCH  13  16
HETATM   16  O   UNL     1      30.713  45.225  56.124  1.00  0.00    -0.347 OA
BRANCH  16  17
HETATM   17  C   UNL     1      30.693  44.331  57.251  1.00  0.00     0.120 C 
HETATM   18  C   UNL     1      30.878  45.199  58.494  1.00  0.00     0.040 C 
HETATM   19  C   UNL     1      31.824  43.303  57.172  1.00  0.00     0.040 C 
ENDBRANCH  16  17
ENDBRANCH  13  16
ENDBRANCH   7  10
ENDBRANCH   1   6
BRANCH   2  20
HETATM   20  C   UNL     1      24.910  44.110  49.569  1.00  0.00     0.732 A 
HETATM   21  N   UNL     1      25.636  43.260  50.224  1.00  0.00    -0.067 NA
HETATM   22  C   UNL     1      25.747  42.000  49.673  1.00  0.00     0.065 A 
HETATM   23  C   UNL     1      25.156  41.620  48.525  1.00  0.00     0.036 A 
HETATM   24  C   UNL     1      26.598  41.034  50.466  1.00  0.00     0.060 C 
HETATM   25  C   UNL     1      25.285  40.256  47.913  1.00  0.00     0.046 C 
HETATM   26  C   UNL     1      24.344  42.622  47.796  1.00  0.00     0.268 A 
HETATM   27  C   UNL     1      26.423  39.438  48.525  1.00  0.00     0.005 C 
HETATM   28  C   UNL     1      26.437  39.572  50.042  1.00  0.00     0.006 C 
HETATM   29  O   UNL     1      23.772  42.364  46.743  1.00  0.00    -0.267 OA
HETATM   30  N   UNL     1      24.293  43.848  48.375  1.00  0.00    -0.152 N 
HETATM   31  H   UNL     1      23.773  44.586  47.916  1.00  0.00     0.188 HD
ENDBRANCH   2  20
BRANCH   4  32
HETATM   32  C   UNL     1      23.081  48.502  49.006  1.00  0.00     0.105 A 
HETATM   33  O   UNL     1      21.716  48.446  48.910  1.00  0.00    -0.320 OA
HETATM   34  C   UNL     1      21.302  49.622  48.372  1.00  0.00     0.142 A 
HETATM   35  C   UNL     1      22.376  50.439  48.114  1.00  0.00     0.027 A 
HETATM   36  C   UNL     1      23.524  49.718  48.523  1.00  0.00     0.041 A 
ENDBRANCH   4  32
TORSDOF 6
ENDMDL
MODEL 4
REMARK VINA RESULT:      -9.9      1.649      5.942
REMARK  6 active torsions:
REMARK  status: ('A' for Active; 'I' for Inactive)
REMARK    1  A    between atoms: C_2  and  O_3 
REMARK    2  A    between atoms: O_3  and  C_4 
REMARK    3  A    between atoms: C_7  and  C_8 
REMARK       I    between atoms: C_8  and  N_9 
REMARK    4  A    between atoms: N_9  and  C_10 
REMARK    5  A    between atoms: N_11  and  C_12 
REMARK    6  A    between atoms: C_24  and  C_25 
ROOT
HETATM    1  C   UNL     1      27.836  44.478  52.797  1.00  0.00     0.152 C 
HETATM    2  N   UNL     1      28.531  43.308  52.492  1.00  0.00    -0.044 N 
HETATM    3  N   UNL     1      29.559  43.103  53.384  1.00  0.00    -0.148 NA
HETATM    4  C   UNL     1      29.288  43.954  54.381  1.00  0.00     0.115 C 
HETATM    5  C   UNL     1      28.198  44.798  54.086  1.00  0.00     0.087 C 
ENDROOT
BRANCH   1   6
HETATM    6  N   UNL     1      26.970  45.181  51.974  1.00  0.00    -0.307 N 
HETATM    7  C   UNL     1      25.613  44.910  51.986  1.00  0.00     0.257 C 
HETATM    8  O   UNL     1      25.029  44.094  52.690  1.00  0.00    -0.267 OA
HETATM    9  H   UNL     1      27.353  45.659  51.168  1.00  0.00     0.170 HD
BRANCH   7  10
HETATM   10  C   UNL     1      24.844  45.621  50.950  1.00  0.00     0.032 A 
HETATM   11  C   UNL     1      24.002  44.905  50.092  1.00  0.00     0.020 A 
HETATM   12  C   UNL     1      23.208  45.593  49.174  1.00  0.00     0.038 A 
HETATM   13  C   UNL     1      23.249  46.988  49.131  1.00  0.00     0.069 A 
HETATM   14  C   UNL     1      24.129  47.693  49.957  1.00  0.00     0.038 A 
HETATM   15  C   UNL     1      24.917  47.013  50.885  1.00  0.00     0.020 A 
BRANCH  13  16
HETATM   16  O   UNL     1      22.475  47.748  48.296  1.00  0.00    -0.347 OA
BRANCH  16  17
HETATM   17  C   UNL     1      22.170  49.073  48.764  1.00  0.00     0.120 C 
HETATM   18  C   UNL     1      20.674  49.089  49.072  1.00  0.00     0.040 C 
HETATM   19  C   UNL     1      22.486  50.130  47.703  1.00  0.00     0.040 C 
ENDBRANCH  16  17
ENDBRANCH  13  16
ENDBRANCH   7  10
ENDBRANCH   1   6
BRANCH   2  20
HETATM   20  C   UNL     1      28.236  42.276  51.573  1.00  0.00     0.732 A 
HETATM   21  N   UNL     1      27.390  42.375  50.598  1.00  0.00    -0.067 NA
HETATM   22  C   UNL     1      27.215  41.248  49.823  1.00  0.00     0.065 A 
HETATM   23  C   UNL     1      27.860  40.083  50.023  1.00  0.00     0.036 A 
HETATM   24  C   UNL     1      26.224  41.402  48.693  1.00  0.00     0.060 C 
HETATM   25  C   UNL     1      27.663  38.848  49.194  1.00  0.00     0.046 C 
HETATM   26  C   UNL     1      28.811  40.000  51.156  1.00  0.00     0.268 A 
HETATM   27  C   UNL     1      26.413  38.918  48.315  1.00  0.00     0.005 C 
HETATM   28  C   UNL     1      26.291  40.283  47.650  1.00  0.00     0.006 C 
HETATM   29  O   UNL     1      29.440  38.981  51.413  1.00  0.00    -0.267 OA
HETATM   30  N   UNL     1      28.922  41.134  51.894  1.00  0.00    -0.152 N 
HETATM   31  H   UNL     1      29.539  41.138  52.698  1.00  0.00     0.188 HD
ENDBRANCH   2  20
BRANCH   4  32
HETATM   32  C   UNL     1      30.090  44.006  55.638  1.00  0.00     0.105 A 
HETATM   33  O   UNL     1      29.989  44.994  56.581  1.00  0.00    -0.320 OA
HETATM   34  C   UNL     1      30.870  44.697  57.571  1.00  0.00     0.142 A 
HETATM   35  C   UNL     1      31.543  43.534  57.285  1.00  0.00     0.027 A 
HETATM   36  C   UNL     1      31.041  43.086  56.039  1.00  0.00     0.041 A 
ENDBRANCH   4  32
TORSDOF 6
ENDMDL
MODEL 5
REMARK VINA RESULT:      -9.9      2.325      8.254
REMARK  6 active torsions:
REMARK  status: ('A' for Active; 'I' for Inactive)
REMARK    1  A    between atoms: C_2  and  O_3 
REMARK    2  A    between atoms: O_3  and  C_4 
REMARK    3  A    between atoms: C_7  and  C_8 
REMARK       I    between atoms: C_8  and  N_9 
REMARK    4  A    between atoms: N_9  and  C_10 
REMARK    5  A    between atoms: N_11  and  C_12 
REMARK    6  A    between atoms: C_24  and  C_25 
ROOT
HETATM    1  C   UNL     1      29.262  42.999  52.983  1.00  0.00     0.152 C 
HETATM    2  N   UNL     1      28.309  43.938  53.376  1.00  0.00    -0.044 N 
HETATM    3  N   UNL     1      28.526  44.342  54.674  1.00  0.00    -0.148 NA
HETATM    4  C   UNL     1      29.760  43.899  54.942  1.00  0.00     0.115 C 
HETATM    5  C   UNL     1      30.281  43.099  53.904  1.00  0.00     0.087 C 
ENDROOT
BRANCH   1   6
HETATM    6  N   UNL     1      29.198  42.136  51.900  1.00  0.00    -0.307 N 
HETATM    7  C   UNL     1      28.376  41.024  51.934  1.00  0.00     0.257 C 
HETATM    8  O   UNL     1      27.627  40.687  52.843  1.00  0.00    -0.267 OA
HETATM    9  H   UNL     1      29.958  42.147  51.231  1.00  0.00     0.170 HD
BRANCH   7  10
HETATM   10  C   UNL     1      28.531  40.119  50.781  1.00  0.00     0.032 A 
HETATM   11  C   UNL     1      28.109  40.530  49.512  1.00  0.00     0.020 A 
HETATM   12  C   UNL     1      28.342  39.706  48.410  1.00  0.00     0.038 A 
HETATM   13  C   UNL     1      29.006  38.490  48.581  1.00  0.00     0.069 A 
HETATM   14  C   UNL     1      29.380  38.065  49.859  1.00  0.00     0.038 A 
HETATM   15  C   UNL     1      29.161  38.888  50.964  1.00  0.00     0.020 A 
BRANCH  13  16
HETATM   16  O   UNL     1      29.315  37.640  47.555  1.00  0.00    -0.347 OA
BRANCH  16  17
HETATM   17  C   UNL     1      28.312  37.507  46.533  1.00  0.00     0.120 C 
HETATM   18  C   UNL     1      27.321  36.458  47.036  1.00  0.00     0.040 C 
HETATM   19  C   UNL     1      28.918  37.043  45.207  1.00  0.00     0.040 C 
ENDBRANCH  16  17
ENDBRANCH  13  16
ENDBRANCH   7  10
ENDBRANCH   1   6
BRANCH   2  20
HETATM   20  C   UNL     1      27.329  44.625  52.624  1.00  0.00     0.732 A 
HETATM   21  N   UNL     1      26.898  44.255  51.460  1.00  0.00    -0.067 NA
HETATM   22  C   UNL     1      25.960  45.073  50.867  1.00  0.00     0.065 A 
HETATM   23  C   UNL     1      25.482  46.204  51.420  1.00  0.00     0.036 A 
HETATM   24  C   UNL     1      25.477  44.607  49.513  1.00  0.00     0.060 C 
HETATM   25  C   UNL     1      24.473  47.107  50.774  1.00  0.00     0.046 C 
HETATM   26  C   UNL     1      26.008  46.605  52.746  1.00  0.00     0.268 A 
HETATM   27  C   UNL     1      24.287  46.816  49.284  1.00  0.00     0.005 C 
HETATM   28  C   UNL     1      24.210  45.316  49.026  1.00  0.00     0.006 C 
HETATM   29  O   UNL     1      25.632  47.619  53.323  1.00  0.00    -0.267 OA
HETATM   30  N   UNL     1      26.945  45.772  53.266  1.00  0.00    -0.152 N 
HETATM   31  H   UNL     1      27.362  46.001  54.161  1.00  0.00     0.188 HD
ENDBRANCH   2  20
BRANCH   4  32
HETATM   32  C   UNL     1      30.467  44.203  56.219  1.00  0.00     0.105 A 
HETATM   33  O   UNL     1      30.152  45.247  57.048  1.00  0.00    -0.320 OA
HETATM   34  C   UNL     1      31.009  45.198  58.101  1.00  0.00     0.142 A 
HETATM   35  C   UNL     1      31.876  44.140  57.968  1.00  0.00     0.027 A 
HETATM   36  C   UNL     1      31.528  43.497  56.755  1.00  0.00     0.041 A 
ENDBRANCH   4  32
TORSDOF 6
ENDMDL
MODEL 6
REMARK VINA RESULT:      -9.8      1.444      2.203
REMARK  6 active torsions:
REMARK  status: ('A' for Active; 'I' for Inactive)
REMARK    1  A    between atoms: C_2  and  O_3 
REMARK    2  A    between atoms: O_3  and  C_4 
REMARK    3  A    between atoms: C_7  and  C_8 
REMARK       I    between atoms: C_8  and  N_9 
REMARK    4  A    between atoms: N_9  and  C_10 
REMARK    5  A    between atoms: N_11  and  C_12 
REMARK    6  A    between atoms: C_24  and  C_25 
ROOT
HETATM    1  C   UNL     1      26.495  42.758  50.157  1.00  0.00     0.152 C 
HETATM    2  N   UNL     1      27.125  42.627  51.394  1.00  0.00    -0.044 N 
HETATM    3  N   UNL     1      27.756  41.407  51.495  1.00  0.00    -0.148 NA
HETATM    4  C   UNL     1      27.773  40.954  50.236  1.00  0.00     0.115 C 
HETATM    5  C   UNL     1      27.044  41.781  49.357  1.00  0.00     0.087 C 
ENDROOT
BRANCH   1   6
HETATM    6  N   UNL     1      25.514  43.672  49.804  1.00  0.00    -0.307 N 
HETATM    7  C   UNL     1      25.857  44.947  49.392  1.00  0.00     0.257 C 
HETATM    8  O   UNL     1      26.987  45.403  49.263  1.00  0.00    -0.267 OA
HETATM    9  H   UNL     1      24.570  43.515  50.135  1.00  0.00     0.170 HD
BRANCH   7  10
HETATM   10  C   UNL     1      24.709  45.852  49.204  1.00  0.00     0.032 A 
HETATM   11  C   UNL     1      23.539  45.376  48.604  1.00  0.00     0.020 A 
HETATM   12  C   UNL     1      22.424  46.212  48.511  1.00  0.00     0.038 A 
HETATM   13  C   UNL     1      22.484  47.507  49.030  1.00  0.00     0.069 A 
HETATM   14  C   UNL     1      23.673  47.991  49.583  1.00  0.00     0.038 A 
HETATM   15  C   UNL     1      24.787  47.158  49.690  1.00  0.00     0.020 A 
BRANCH  13  16
HETATM   16  O   UNL     1      21.430  48.379  49.023  1.00  0.00    -0.347 OA
BRANCH  16  17
HETATM   17  C   UNL     1      21.171  49.032  47.768  1.00  0.00     0.120 C 
HETATM   18  C   UNL     1      21.116  50.530  48.063  1.00  0.00     0.040 C 
HETATM   19  C   UNL     1      19.839  48.581  47.165  1.00  0.00     0.040 C 
ENDBRANCH  16  17
ENDBRANCH  13  16
ENDBRANCH   7  10
ENDBRANCH   1   6
BRANCH   2  20
HETATM   20  C   UNL     1      27.350  43.575  52.418  1.00  0.00     0.732 A 
HETATM   21  N   UNL     1      26.660  44.658  52.585  1.00  0.00    -0.067 NA
HETATM   22  C   UNL     1      27.049  45.476  53.624  1.00  0.00     0.065 A 
HETATM   23  C   UNL     1      28.080  45.215  54.450  1.00  0.00     0.036 A 
HETATM   24  C   UNL     1      26.218  46.728  53.792  1.00  0.00     0.060 C 
HETATM   25  C   UNL     1      28.519  46.109  55.572  1.00  0.00     0.046 C 
HETATM   26  C   UNL     1      28.857  43.975  54.221  1.00  0.00     0.268 A 
HETATM   27  C   UNL     1      27.912  47.510  55.485  1.00  0.00     0.005 C 
HETATM   28  C   UNL     1      26.433  47.442  55.129  1.00  0.00     0.006 C 
HETATM   29  O   UNL     1      29.810  43.657  54.922  1.00  0.00    -0.267 OA
HETATM   30  N   UNL     1      28.439  43.224  53.170  1.00  0.00    -0.152 N 
HETATM   31  H   UNL     1      28.941  42.373  52.945  1.00  0.00     0.188 HD
ENDBRANCH   2  20
BRANCH   4  32
HETATM   32  C   UNL     1      28.464  39.691  49.843  1.00  0.00     0.105 A 
HETATM   33  O   UNL     1      29.163  38.891  50.706  1.00  0.00    -0.320 OA
HETATM   34  C   UNL     1      29.643  37.845  49.985  1.00  0.00     0.142 A 
HETATM   35  C   UNL     1      29.268  37.954  48.668  1.00  0.00     0.027 A 
HETATM   36  C   UNL     1      28.506  39.145  48.574  1.00  0.00     0.041 A 
ENDBRANCH   4  32
TORSDOF 6
ENDMDL
MODEL 7
REMARK VINA RESULT:      -9.7      1.719      6.131
REMARK  6 active torsions:
REMARK  status: ('A' for Active; 'I' for Inactive)
REMARK    1  A    between atoms: C_2  and  O_3 
REMARK    2  A    between atoms: O_3  and  C_4 
REMARK    3  A    between atoms: C_7  and  C_8 
REMARK       I    between atoms: C_8  and  N_9 
REMARK    4  A    between atoms: N_9  and  C_10 
REMARK    5  A    between atoms: N_11  and  C_12 
REMARK    6  A    between atoms: C_24  and  C_25 
ROOT
HETATM    1  C   UNL     1      27.164  43.600  52.105  1.00  0.00     0.152 C 
HETATM    2  N   UNL     1      28.076  42.579  51.839  1.00  0.00    -0.044 N 
HETATM    3  N   UNL     1      29.184  42.690  52.649  1.00  0.00    -0.148 NA
HETATM    4  C   UNL     1      28.803  43.563  53.590  1.00  0.00     0.115 C 
HETATM    5  C   UNL     1      27.535  44.121  53.324  1.00  0.00     0.087 C 
ENDROOT
BRANCH   1   6
HETATM    6  N   UNL     1      26.109  44.014  51.307  1.00  0.00    -0.307 N 
HETATM    7  C   UNL     1      26.338  44.783  50.180  1.00  0.00     0.257 C 
HETATM    8  O   UNL     1      27.423  45.152  49.746  1.00  0.00    -0.267 OA
HETATM    9  H   UNL     1      25.177  44.019  51.705  1.00  0.00     0.170 HD
BRANCH   7  10
HETATM   10  C   UNL     1      25.115  45.278  49.524  1.00  0.00     0.032 A 
HETATM   11  C   UNL     1      24.363  44.420  48.714  1.00  0.00     0.020 A 
HETATM   12  C   UNL     1      23.158  44.868  48.170  1.00  0.00     0.038 A 
HETATM   13  C   UNL     1      22.708  46.159  48.450  1.00  0.00     0.069 A 
HETATM   14  C   UNL     1      23.490  47.026  49.219  1.00  0.00     0.038 A 
HETATM   15  C   UNL     1      24.689  46.582  49.777  1.00  0.00     0.020 A 
BRANCH  13  16
HETATM   16  O   UNL     1      21.522  46.667  47.998  1.00  0.00    -0.347 OA
BRANCH  16  17
HETATM   17  C   UNL     1      21.059  47.855  48.664  1.00  0.00     0.120 C 
HETATM   18  C   UNL     1      19.625  47.570  49.107  1.00  0.00     0.040 C 
HETATM   19  C   UNL     1      21.074  49.067  47.729  1.00  0.00     0.040 C 
ENDBRANCH  16  17
ENDBRANCH  13  16
ENDBRANCH   7  10
ENDBRANCH   1   6
BRANCH   2  20
HETATM   20  C   UNL     1      27.952  41.418  51.043  1.00  0.00     0.732 A 
HETATM   21  N   UNL     1      27.061  41.249  50.118  1.00  0.00    -0.067 NA
HETATM   22  C   UNL     1      27.080  40.034  49.467  1.00  0.00     0.065 A 
HETATM   23  C   UNL     1      27.952  39.043  49.735  1.00  0.00     0.036 A 
HETATM   24  C   UNL     1      26.030  39.874  48.392  1.00  0.00     0.060 C 
HETATM   25  C   UNL     1      27.967  37.713  49.041  1.00  0.00     0.046 C 
HETATM   26  C   UNL     1      28.948  39.265  50.808  1.00  0.00     0.268 A 
HETATM   27  C   UNL     1      26.691  37.448  48.240  1.00  0.00     0.005 C 
HETATM   28  C   UNL     1      26.272  38.685  47.458  1.00  0.00     0.006 C 
HETATM   29  O   UNL     1      29.778  38.419  51.120  1.00  0.00    -0.267 OA
HETATM   30  N   UNL     1      28.864  40.470  51.427  1.00  0.00    -0.152 N 
HETATM   31  H   UNL     1      29.502  40.678  52.186  1.00  0.00     0.188 HD
ENDBRANCH   2  20
BRANCH   4  32
HETATM   32  C   UNL     1      29.659  43.913  54.760  1.00  0.00     0.105 A 
HETATM   33  O   UNL     1      29.599  45.103  55.434  1.00  0.00    -0.320 OA
HETATM   34  C   UNL     1      30.524  45.050  56.428  1.00  0.00     0.142 A 
HETATM   35  C   UNL     1      31.184  43.845  56.408  1.00  0.00     0.027 A 
HETATM   36  C   UNL     1      30.628  43.110  55.333  1.00  0.00     0.041 A 
ENDBRANCH   4  32
TORSDOF 6
ENDMDL
MODEL 8
REMARK VINA RESULT:      -9.5      2.659      8.659
REMARK  6 active torsions:
REMARK  status: ('A' for Active; 'I' for Inactive)
REMARK    1  A    between atoms: C_2  and  O_3 
REMARK    2  A    between atoms: O_3  and  C_4 
REMARK    3  A    between atoms: C_7  and  C_8 
REMARK       I    between atoms: C_8  and  N_9 
REMARK    4  A    between atoms: N_9  and  C_10 
REMARK    5  A    between atoms: N_11  and  C_12 
REMARK    6  A    between atoms: C_24  and  C_25 
ROOT
HETATM    1  C   UNL     1      25.203  43.893  50.595  1.00  0.00     0.152 C 
HETATM    2  N   UNL     1      24.790  42.785  49.856  1.00  0.00    -0.044 N 
HETATM    3  N   UNL     1      23.541  42.996  49.316  1.00  0.00    -0.148 NA
HETATM    4  C   UNL     1      23.350  44.312  49.461  1.00  0.00     0.115 C 
HETATM    5  C   UNL     1      24.378  44.925  50.207  1.00  0.00     0.087 C 
ENDROOT
BRANCH   1   6
HETATM    6  N   UNL     1      26.223  43.947  51.532  1.00  0.00    -0.307 N 
HETATM    7  C   UNL     1      25.934  43.992  52.885  1.00  0.00     0.257 C 
HETATM    8  O   UNL     1      24.825  43.962  53.404  1.00  0.00    -0.267 OA
HETATM    9  H   UNL     1      27.138  44.259  51.229  1.00  0.00     0.170 HD
BRANCH   7  10
HETATM   10  C   UNL     1      27.109  44.207  53.748  1.00  0.00     0.032 A 
HETATM   11  C   UNL     1      28.132  43.253  53.782  1.00  0.00     0.020 A 
HETATM   12  C   UNL     1      29.283  43.505  54.531  1.00  0.00     0.038 A 
HETATM   13  C   UNL     1      29.408  44.709  55.226  1.00  0.00     0.069 A 
HETATM   14  C   UNL     1      28.360  45.634  55.227  1.00  0.00     0.038 A 
HETATM   15  C   UNL     1      27.212  45.395  54.471  1.00  0.00     0.020 A 
BRANCH  13  16
HETATM   16  O   UNL     1      30.515  45.060  55.949  1.00  0.00    -0.347 OA
BRANCH  16  17
HETATM   17  C   UNL     1      30.677  44.382  57.207  1.00  0.00     0.120 C 
HETATM   18  C   UNL     1      30.800  45.471  58.271  1.00  0.00     0.040 C 
HETATM   19  C   UNL     1      31.935  43.511  57.218  1.00  0.00     0.040 C 
ENDBRANCH  16  17
ENDBRANCH  13  16
ENDBRANCH   7  10
ENDBRANCH   1   6
BRANCH   2  20
HETATM   20  C   UNL     1      25.498  41.629  49.456  1.00  0.00     0.732 A 
HETATM   21  N   UNL     1      26.588  41.203  50.011  1.00  0.00    -0.067 NA
HETATM   22  C   UNL     1      27.150  40.071  49.461  1.00  0.00     0.065 A 
HETATM   23  C   UNL     1      26.640  39.405  48.407  1.00  0.00     0.036 A 
HETATM   24  C   UNL     1      28.418  39.600  50.136  1.00  0.00     0.060 C 
HETATM   25  C   UNL     1      27.256  38.183  47.794  1.00  0.00     0.046 C 
HETATM   26  C   UNL     1      25.401  39.929  47.788  1.00  0.00     0.268 A 
HETATM   27  C   UNL     1      28.698  37.954  48.249  1.00  0.00     0.005 C 
HETATM   28  C   UNL     1      28.838  38.179  49.749  1.00  0.00     0.006 C 
HETATM   29  O   UNL     1      24.867  39.389  46.826  1.00  0.00    -0.267 OA
HETATM   30  N   UNL     1      24.908  41.057  48.360  1.00  0.00    -0.152 N 
HETATM   31  H   UNL     1      24.074  41.481  47.971  1.00  0.00     0.188 HD
ENDBRANCH   2  20
BRANCH   4  32
HETATM   32  C   UNL     1      22.156  45.019  48.914  1.00  0.00     0.105 A 
HETATM   33  O   UNL     1      20.863  44.605  49.091  1.00  0.00    -0.320 OA
HETATM   34  C   UNL     1      20.063  45.497  48.452  1.00  0.00     0.142 A 
HETATM   35  C   UNL     1      20.817  46.483  47.861  1.00  0.00     0.027 A 
HETATM   36  C   UNL     1      22.167  46.176  48.159  1.00  0.00     0.041 A 
ENDBRANCH   4  32
TORSDOF 6
ENDMDL
MODEL 9
REMARK VINA RESULT:      -9.1      1.707      5.770
REMARK  6 active torsions:
REMARK  status: ('A' for Active; 'I' for Inactive)
REMARK    1  A    between atoms: C_2  and  O_3 
REMARK    2  A    between atoms: O_3  and  C_4 
REMARK    3  A    between atoms: C_7  and  C_8 
REMARK       I    between atoms: C_8  and  N_9 
REMARK    4  A    between atoms: N_9  and  C_10 
REMARK    5  A    between atoms: N_11  and  C_12 
REMARK    6  A    between atoms: C_24  and  C_25 
ROOT
HETATM    1  C   UNL     1      27.067  44.156  52.185  1.00  0.00     0.152 C 
HETATM    2  N   UNL     1      27.920  43.117  51.813  1.00  0.00    -0.044 N 
HETATM    3  N   UNL     1      29.043  43.098  52.608  1.00  0.00    -0.148 NA
HETATM    4  C   UNL     1      28.722  43.900  53.630  1.00  0.00     0.115 C 
HETATM    5  C   UNL     1      27.482  44.544  53.439  1.00  0.00     0.087 C 
ENDROOT
BRANCH   1   6
HETATM    6  N   UNL     1      26.024  44.694  51.447  1.00  0.00    -0.307 N 
HETATM    7  C   UNL     1      26.270  45.340  50.249  1.00  0.00     0.257 C 
HETATM    8  O   UNL     1      27.355  45.489  49.700  1.00  0.00    -0.267 OA
HETATM    9  H   UNL     1      25.148  44.883  51.920  1.00  0.00     0.170 HD
BRANCH   7  10
HETATM   10  C   UNL     1      25.089  45.996  49.660  1.00  0.00     0.032 A 
HETATM   11  C   UNL     1      24.106  45.225  49.030  1.00  0.00     0.020 A 
HETATM   12  C   UNL     1      22.947  45.841  48.555  1.00  0.00     0.038 A 
HETATM   13  C   UNL     1      22.774  47.216  48.726  1.00  0.00     0.069 A 
HETATM   14  C   UNL     1      23.783  47.987  49.311  1.00  0.00     0.038 A 
HETATM   15  C   UNL     1      24.939  47.376  49.799  1.00  0.00     0.020 A 
BRANCH  13  16
HETATM   16  O   UNL     1      21.655  47.897  48.333  1.00  0.00    -0.347 OA
BRANCH  16  17
HETATM   17  C   UNL     1      21.462  49.184  48.945  1.00  0.00     0.120 C 
HETATM   18  C   UNL     1      20.105  49.131  49.644  1.00  0.00     0.040 C 
HETATM   19  C   UNL     1      21.459  50.307  47.905  1.00  0.00     0.040 C 
ENDBRANCH  16  17
ENDBRANCH  13  16
ENDBRANCH   7  10
ENDBRANCH   1   6
BRANCH   2  20
HETATM   20  C   UNL     1      27.724  42.041  50.918  1.00  0.00     0.732 A 
HETATM   21  N   UNL     1      28.365  40.916  50.965  1.00  0.00    -0.067 NA
HETATM   22  C   UNL     1      28.056  39.996  49.986  1.00  0.00     0.065 A 
HETATM   23  C   UNL     1      27.148  40.200  49.012  1.00  0.00     0.036 A 
HETATM   24  C   UNL     1      28.820  38.695  50.075  1.00  0.00     0.060 C 
HETATM   25  C   UNL     1      26.819  39.209  47.935  1.00  0.00     0.046 C 
HETATM   26  C   UNL     1      26.444  41.503  48.980  1.00  0.00     0.268 A 
HETATM   27  C   UNL     1      27.848  38.082  47.832  1.00  0.00     0.005 C 
HETATM   28  C   UNL     1      28.237  37.571  49.214  1.00  0.00     0.006 C 
HETATM   29  O   UNL     1      25.604  41.776  48.131  1.00  0.00    -0.267 OA
HETATM   30  N   UNL     1      26.808  42.374  49.956  1.00  0.00    -0.152 N 
HETATM   31  H   UNL     1      26.380  43.292  49.978  1.00  0.00     0.188 HD
ENDBRANCH   2  20
BRANCH   4  32
HETATM   32  C   UNL     1      29.612  44.098  54.811  1.00  0.00     0.105 A 
HETATM   33  O   UNL     1      29.574  45.192  55.633  1.00  0.00    -0.320 OA
HETATM   34  C   UNL     1      30.526  45.014  56.585  1.00  0.00     0.142 A 
HETATM   35  C   UNL     1      31.183  43.822  56.393  1.00  0.00     0.027 A 
HETATM   36  C   UNL     1      30.594  43.230  55.249  1.00  0.00     0.041 A 
ENDBRANCH   4  32
TORSDOF 6
ENDMDL
MODEL 10
REMARK VINA RESULT:      -8.8      2.070      8.658
REMARK  6 active torsions:
REMARK  status: ('A' for Active; 'I' for Inactive)
REMARK    1  A    between atoms: C_2  and  O_3 
REMARK    2  A    between atoms: O_3  and  C_4 
REMARK    3  A    between atoms: C_7  and  C_8 
REMARK       I    between atoms: C_8  and  N_9 
REMARK    4  A    between atoms: N_9  and  C_10 
REMARK    5  A    between atoms: N_11  and  C_12 
REMARK    6  A    between atoms: C_24  and  C_25 
ROOT
HETATM    1  C   UNL     1      27.629  43.475  51.553  1.00  0.00     0.152 C 
HETATM    2  N   UNL     1      26.585  44.340  51.882  1.00  0.00    -0.044 N 
HETATM    3  N   UNL     1      26.738  44.825  53.161  1.00  0.00    -0.148 NA
HETATM    4  C   UNL     1      28.001  44.511  53.471  1.00  0.00     0.115 C 
HETATM    5  C   UNL     1      28.615  43.714  52.484  1.00  0.00     0.087 C 
ENDROOT
BRANCH   1   6
HETATM    6  N   UNL     1      27.667  42.559  50.513  1.00  0.00    -0.307 N 
HETATM    7  C   UNL     1      27.941  41.226  50.760  1.00  0.00     0.257 C 
HETATM    8  O   UNL     1      28.144  40.703  51.849  1.00  0.00    -0.267 OA
HETATM    9  H   UNL     1      27.799  42.906  49.571  1.00  0.00     0.170 HD
BRANCH   7  10
HETATM   10  C   UNL     1      28.104  40.406  49.546  1.00  0.00     0.032 A 
HETATM   11  C   UNL     1      28.508  39.071  49.657  1.00  0.00     0.020 A 
HETATM   12  C   UNL     1      28.572  38.274  48.513  1.00  0.00     0.038 A 
HETATM   13  C   UNL     1      28.220  38.811  47.273  1.00  0.00     0.069 A 
HETATM   14  C   UNL     1      27.866  40.159  47.164  1.00  0.00     0.038 A 
HETATM   15  C   UNL     1      27.787  40.958  48.305  1.00  0.00     0.020 A 
BRANCH  13  16
HETATM   16  O   UNL     1      28.211  38.096  46.108  1.00  0.00    -0.347 OA
BRANCH  16  17
HETATM   17  C   UNL     1      28.792  36.782  46.179  1.00  0.00     0.120 C 
HETATM   18  C   UNL     1      29.829  36.707  45.061  1.00  0.00     0.040 C 
HETATM   19  C   UNL     1      27.740  35.690  45.975  1.00  0.00     0.040 C 
ENDBRANCH  16  17
ENDBRANCH  13  16
ENDBRANCH   7  10
ENDBRANCH   1   6
BRANCH   2  20
HETATM   20  C   UNL     1      25.563  44.896  51.080  1.00  0.00     0.732 A 
HETATM   21  N   UNL     1      24.666  44.209  50.447  1.00  0.00    -0.067 NA
HETATM   22  C   UNL     1      23.767  44.930  49.690  1.00  0.00     0.065 A 
HETATM   23  C   UNL     1      23.773  46.272  49.579  1.00  0.00     0.036 A 
HETATM   24  C   UNL     1      22.732  44.096  48.969  1.00  0.00     0.060 C 
HETATM   25  C   UNL     1      22.808  47.061  48.745  1.00  0.00     0.046 C 
HETATM   26  C   UNL     1      24.822  47.025  50.306  1.00  0.00     0.268 A 
HETATM   27  C   UNL     1      22.028  46.191  47.758  1.00  0.00     0.005 C 
HETATM   28  C   UNL     1      21.552  44.905  48.423  1.00  0.00     0.006 C 
HETATM   29  O   UNL     1      24.904  48.247  50.261  1.00  0.00    -0.267 OA
HETATM   30  N   UNL     1      25.690  46.258  51.014  1.00  0.00    -0.152 N 
HETATM   31  H   UNL     1      26.445  46.709  51.516  1.00  0.00     0.188 HD
ENDBRANCH   2  20
BRANCH   4  32
HETATM   32  C   UNL     1      28.650  44.941  54.744  1.00  0.00     0.105 A 
HETATM   33  O   UNL     1      28.143  45.892  55.588  1.00  0.00    -0.320 OA
HETATM   34  C   UNL     1      29.006  46.008  56.630  1.00  0.00     0.142 A 
HETATM   35  C   UNL     1      30.067  45.148  56.475  1.00  0.00     0.027 A 
HETATM   36  C   UNL     1      29.838  44.459  55.259  1.00  0.00     0.041 A 
ENDBRANCH   4  32
TORSDOF 6
ENDMDL
