MODEL 1
REMARK VINA RESULT:      -9.3      0.000      0.000
REMARK  8 active torsions:
REMARK  status: ('A' for Active; 'I' for Inactive)
REMARK    1  A    between atoms: C_3  and  N_4 
REMARK       I    between atoms: N_4  and  C_5 
REMARK    2  A    between atoms: C_5  and  C_6 
REMARK    3  A    between atoms: C_7  and  C_8 
REMARK    4  A    between atoms: C_11  and  C_12 
REMARK    5  A    between atoms: C_21  and  C_22 
REMARK    6  A    between atoms: C_22  and  C_23 
REMARK    7  A    between atoms: C_23  and  C_24 
REMARK    8  A    between atoms: C_24  and  O_25 
ROOT
HETATM    1  C   UNL     1      27.090  42.676  52.252  1.00  0.00     0.062 C 
HETATM    2  C   UNL     1      25.802  43.296  51.733  1.00  0.00     0.202 C 
HETATM    3  N   UNL     1      25.230  42.477  50.660  1.00  0.00    -0.083 N 
HETATM    4  C   UNL     1      25.921  41.500  49.996  1.00  0.00     0.726 A 
HETATM    5  N   UNL     1      27.170  41.188  50.400  1.00  0.00    -0.192 N 
HETATM    6  N   UNL     1      23.977  42.613  50.180  1.00  0.00    -0.140 NA
HETATM    7  C   UNL     1      24.000  41.725  49.177  1.00  0.00     0.166 A 
HETATM    8  N   UNL     1      25.173  41.016  49.037  1.00  0.00    -0.046 NA
HETATM    9  C   UNL     1      27.716  41.674  51.585  1.00  0.00     0.037 C 
HETATM   10  C   UNL     1      28.983  41.003  52.053  1.00  0.00     0.070 C 
HETATM   11  H   UNL     1      27.617  40.374  49.983  1.00  0.00     0.184 HD
ENDROOT
BRANCH   1  12
HETATM   12  C   UNL     1      27.505  43.041  53.629  1.00  0.00     0.256 C 
HETATM   13  N   UNL     1      28.620  43.847  53.680  1.00  0.00    -0.323 N 
HETATM   14  H   UNL     1      29.024  44.133  52.798  1.00  0.00     0.169 HD
HETATM   15  O   UNL     1      26.842  42.616  54.568  1.00  0.00    -0.267 OA
BRANCH  13  16
HETATM   16  C   UNL     1      29.266  44.346  54.840  1.00  0.00     0.041 A 
HETATM   17  C   UNL     1      28.794  45.540  55.429  1.00  0.00    -0.035 A 
HETATM   18  C   UNL     1      27.600  46.290  54.904  1.00  0.00     0.050 C 
HETATM   19  C   UNL     1      29.423  46.036  56.588  1.00  0.00     0.009 A 
HETATM   20  C   UNL     1      30.514  45.377  57.149  1.00  0.00     0.001 A 
HETATM   21  C   UNL     1      30.985  44.210  56.564  1.00  0.00     0.002 A 
HETATM   22  C   UNL     1      30.364  43.699  55.420  1.00  0.00     0.030 A 
ENDBRANCH  13  16
ENDBRANCH   1  12
BRANCH   2  23
HETATM   23  C   UNL     1      26.007  44.719  51.215  1.00  0.00    -0.028 A 
HETATM   24  C   UNL     1      26.720  44.972  50.031  1.00  0.00     0.010 A 
HETATM   25  C   UNL     1      26.892  46.278  49.564  1.00  0.00     0.008 A 
HETATM   26  C   UNL     1      26.350  47.364  50.261  1.00  0.00    -0.055 A 
HETATM   27  C   UNL     1      25.638  47.112  51.441  1.00  0.00     0.008 A 
HETATM   28  C   UNL     1      25.467  45.807  51.914  1.00  0.00     0.010 A 
BRANCH  26  29
HETATM   29  C   UNL     1      26.543  48.770  49.722  1.00  0.00     0.010 C 
HETATM   30  C   UNL     1      27.907  48.944  49.048  1.00  0.00     0.015 C 
HETATM   31  C   UNL     1      25.408  49.159  48.772  1.00  0.00     0.015 C 
ENDBRANCH  26  29
ENDBRANCH   2  23
BRANCH   7  32
HETATM   32  C   UNL     1      22.861  41.548  48.242  1.00  0.00     0.085 C 
BRANCH  32  33
HETATM   33  C   UNL     1      22.858  42.570  47.106  1.00  0.00     0.034 C 
BRANCH  33  34
HETATM   34  C   UNL     1      21.721  43.581  47.218  1.00  0.00     0.164 C 
BRANCH  34  35
HETATM   35  O   UNL     1      21.544  43.956  48.579  1.00  0.00    -0.401 OA
HETATM   36  H   UNL     1      22.359  44.400  48.870  1.00  0.00     0.209 HD
ENDBRANCH  34  35
ENDBRANCH  33  34
ENDBRANCH  32  33
ENDBRANCH   7  32
TORSDOF 8
ENDMDL
MODEL 2
REMARK VINA RESULT:      -9.3      0.415      1.202
REMARK  8 active torsions:
REMARK  status: ('A' for Active; 'I' for Inactive)
REMARK    1  A    between atoms: C_3  and  N_4 
REMARK       I    between atoms: N_4  and  C_5 
REMARK    2  A    between atoms: C_5  and  C_6 
REMARK    3  A    between atoms: C_7  and  C_8 
REMARK    4  A    between atoms: C_11  and  C_12 
REMARK    5  A    between atoms: C_21  and  C_22 
REMARK    6  A    between atoms: C_22  and  C_23 
REMARK    7  A    between atoms: C_23  and  C_24 
REMARK    8  A    between atoms: C_24  and  O_25 
ROOT
HETATM    1  C   UNL     1      26.997  42.815  52.444  1.00  0.00     0.062 C 
HETATM    2  C   UNL     1      25.727  43.381  51.828  1.00  0.00     0.202 C 
HETATM    3  N   UNL     1      25.244  42.514  50.749  1.00  0.00    -0.083 N 
HETATM    4  C   UNL     1      26.000  41.537  50.160  1.00  0.00     0.726 A 
HETATM    5  N   UNL     1      27.230  41.273  50.649  1.00  0.00    -0.192 N 
HETATM    6  N   UNL     1      24.020  42.599  50.191  1.00  0.00    -0.140 NA
HETATM    7  C   UNL     1      24.128  41.682  49.219  1.00  0.00     0.166 A 
HETATM    8  N   UNL     1      25.326  41.003  49.174  1.00  0.00    -0.046 NA
HETATM    9  C   UNL     1      27.689  41.811  51.850  1.00  0.00     0.037 C 
HETATM   10  C   UNL     1      28.942  41.190  52.415  1.00  0.00     0.070 C 
HETATM   11  H   UNL     1      27.723  40.459  50.287  1.00  0.00     0.184 HD
ENDROOT
BRANCH   1  12
HETATM   12  C   UNL     1      27.316  43.233  53.831  1.00  0.00     0.256 C 
HETATM   13  N   UNL     1      28.312  44.181  53.912  1.00  0.00    -0.323 N 
HETATM   14  H   UNL     1      28.702  44.516  53.041  1.00  0.00     0.169 HD
HETATM   15  O   UNL     1      26.687  42.725  54.751  1.00  0.00    -0.267 OA
BRANCH  13  16
HETATM   16  C   UNL     1      28.849  44.762  55.089  1.00  0.00     0.041 A 
HETATM   17  C   UNL     1      30.072  44.271  55.600  1.00  0.00    -0.035 A 
HETATM   18  C   UNL     1      30.859  43.182  54.923  1.00  0.00     0.050 C 
HETATM   19  C   UNL     1      30.618  44.850  56.762  1.00  0.00     0.009 A 
HETATM   20  C   UNL     1      29.962  45.885  57.424  1.00  0.00     0.001 A 
HETATM   21  C   UNL     1      28.755  46.359  56.929  1.00  0.00     0.002 A 
HETATM   22  C   UNL     1      28.206  45.802  55.770  1.00  0.00     0.030 A 
ENDBRANCH  13  16
ENDBRANCH   1  12
BRANCH   2  23
HETATM   23  C   UNL     1      25.926  44.793  51.278  1.00  0.00    -0.028 A 
HETATM   24  C   UNL     1      26.725  45.033  50.146  1.00  0.00     0.010 A 
HETATM   25  C   UNL     1      26.890  46.327  49.648  1.00  0.00     0.008 A 
HETATM   26  C   UNL     1      26.257  47.416  50.260  1.00  0.00    -0.055 A 
HETATM   27  C   UNL     1      25.460  47.178  51.388  1.00  0.00     0.008 A 
HETATM   28  C   UNL     1      25.295  45.884  51.892  1.00  0.00     0.010 A 
BRANCH  26  29
HETATM   29  C   UNL     1      26.447  48.810  49.689  1.00  0.00     0.010 C 
HETATM   30  C   UNL     1      27.811  48.972  49.013  1.00  0.00     0.015 C 
HETATM   31  C   UNL     1      25.313  49.172  48.727  1.00  0.00     0.015 C 
ENDBRANCH  26  29
ENDBRANCH   2  23
BRANCH   7  32
HETATM   32  C   UNL     1      23.054  41.444  48.224  1.00  0.00     0.085 C 
BRANCH  32  33
HETATM   33  C   UNL     1      23.001  42.517  47.136  1.00  0.00     0.034 C 
BRANCH  33  34
HETATM   34  C   UNL     1      21.755  43.392  47.223  1.00  0.00     0.164 C 
BRANCH  34  35
HETATM   35  O   UNL     1      21.611  43.893  48.548  1.00  0.00    -0.401 OA
HETATM   36  H   UNL     1      20.980  43.317  49.012  1.00  0.00     0.209 HD
ENDBRANCH  34  35
ENDBRANCH  33  34
ENDBRANCH  32  33
ENDBRANCH   7  32
TORSDOF 8
ENDMDL
MODEL 3
REMARK VINA RESULT:      -9.3      2.383      6.514
REMARK  8 active torsions:
REMARK  status: ('A' for Active; 'I' for Inactive)
REMARK    1  A    between atoms: C_3  and  N_4 
REMARK       I    between atoms: N_4  and  C_5 
REMARK    2  A    between atoms: C_5  and  C_6 
REMARK    3  A    between atoms: C_7  and  C_8 
REMARK    4  A    between atoms: C_11  and  C_12 
REMARK    5  A    between atoms: C_21  and  C_22 
REMARK    6  A    between atoms: C_22  and  C_23 
REMARK    7  A    between atoms: C_23  and  C_24 
REMARK    8  A    between atoms: C_24  and  O_25 
ROOT
HETATM    1  C   UNL     1      26.355  44.367  51.403  1.00  0.00     0.062 C 
HETATM    2  C   UNL     1      27.704  43.663  51.384  1.00  0.00     0.202 C 
HETATM    3  N   UNL     1      27.548  42.257  51.002  1.00  0.00    -0.083 N 
HETATM    4  C   UNL     1      26.350  41.596  51.000  1.00  0.00     0.726 A 
HETATM    5  N   UNL     1      25.219  42.283  51.267  1.00  0.00    -0.192 N 
HETATM    6  N   UNL     1      28.564  41.445  50.644  1.00  0.00    -0.140 NA
HETATM    7  C   UNL     1      27.912  40.283  50.503  1.00  0.00     0.166 A 
HETATM    8  N   UNL     1      26.550  40.337  50.704  1.00  0.00    -0.046 NA
HETATM    9  C   UNL     1      25.191  43.673  51.349  1.00  0.00     0.037 C 
HETATM   10  C   UNL     1      23.822  44.307  51.344  1.00  0.00     0.070 C 
HETATM   11  H   UNL     1      24.329  41.808  51.132  1.00  0.00     0.184 HD
ENDROOT
BRANCH   1  12
HETATM   12  C   UNL     1      26.363  45.841  51.240  1.00  0.00     0.256 C 
HETATM   13  N   UNL     1      26.394  46.256  49.927  1.00  0.00    -0.323 N 
HETATM   14  H   UNL     1      26.380  45.538  49.215  1.00  0.00     0.169 HD
HETATM   15  O   UNL     1      26.334  46.538  52.247  1.00  0.00    -0.267 OA
BRANCH  13  16
HETATM   16  C   UNL     1      26.427  47.592  49.450  1.00  0.00     0.041 A 
HETATM   17  C   UNL     1      25.208  48.250  49.167  1.00  0.00    -0.035 A 
HETATM   18  C   UNL     1      23.866  47.609  49.393  1.00  0.00     0.050 C 
HETATM   19  C   UNL     1      25.232  49.579  48.703  1.00  0.00     0.009 A 
HETATM   20  C   UNL     1      26.436  50.247  48.502  1.00  0.00     0.001 A 
HETATM   21  C   UNL     1      27.634  49.598  48.768  1.00  0.00     0.002 A 
HETATM   22  C   UNL     1      27.627  48.282  49.240  1.00  0.00     0.030 A 
ENDBRANCH  13  16
ENDBRANCH   1  12
BRANCH   2  23
HETATM   23  C   UNL     1      28.417  43.735  52.734  1.00  0.00    -0.028 A 
HETATM   24  C   UNL     1      29.698  43.185  52.915  1.00  0.00     0.010 A 
HETATM   25  C   UNL     1      30.343  43.266  54.151  1.00  0.00     0.008 A 
HETATM   26  C   UNL     1      29.732  43.904  55.237  1.00  0.00    -0.055 A 
HETATM   27  C   UNL     1      28.455  44.453  55.057  1.00  0.00     0.008 A 
HETATM   28  C   UNL     1      27.805  44.371  53.822  1.00  0.00     0.010 A 
BRANCH  26  29
HETATM   29  C   UNL     1      30.463  43.987  56.565  1.00  0.00     0.010 C 
HETATM   30  C   UNL     1      31.843  43.326  56.502  1.00  0.00     0.015 C 
HETATM   31  C   UNL     1      30.570  45.435  57.048  1.00  0.00     0.015 C 
ENDBRANCH  26  29
ENDBRANCH   2  23
BRANCH   7  32
HETATM   32  C   UNL     1      28.610  39.009  50.200  1.00  0.00     0.085 C 
BRANCH  32  33
HETATM   33  C   UNL     1      27.968  38.235  49.049  1.00  0.00     0.034 C 
BRANCH  33  34
HETATM   34  C   UNL     1      27.255  36.968  49.508  1.00  0.00     0.164 C 
BRANCH  34  35
HETATM   35  O   UNL     1      26.119  37.313  50.293  1.00  0.00    -0.401 OA
HETATM   36  H   UNL     1      25.556  36.522  50.359  1.00  0.00     0.209 HD
ENDBRANCH  34  35
ENDBRANCH  33  34
ENDBRANCH  32  33
ENDBRANCH   7  32
TORSDOF 8
ENDMDL
MODEL 4
REMARK VINA RESULT:      -8.2      3.164      8.332
REMARK  8 active torsions:
REMARK  status: ('A' for Active; 'I' for Inactive)
REMARK    1  A    between atoms: C_3  and  N_4 
REMARK       I    between atoms: N_4  and  C_5 
REMARK    2  A    between atoms: C_5  and  C_6 
REMARK    3  A    between atoms: C_7  and  C_8 
REMARK    4  A    between atoms: C_11  and  C_12 
REMARK    5  A    between atoms: C_21  and  C_22 
REMARK    6  A    between atoms: C_22  and  C_23 
REMARK    7  A    between atoms: C_23  and  C_24 
REMARK    8  A    between atoms: C_24  and  O_25 
ROOT
HETATM    1  C   UNL     1      24.283  46.663  49.853  1.00  0.00     0.062 C 
HETATM    2  C   UNL     1      23.977  45.417  50.669  1.00  0.00     0.202 C 
HETATM    3  N   UNL     1      24.947  45.259  51.756  1.00  0.00    -0.083 N 
HETATM    4  C   UNL     1      26.138  45.930  51.819  1.00  0.00     0.726 A 
HETATM    5  N   UNL     1      26.414  46.868  50.889  1.00  0.00    -0.192 N 
HETATM    6  N   UNL     1      24.798  44.415  52.797  1.00  0.00    -0.140 NA
HETATM    7  C   UNL     1      25.974  44.580  53.419  1.00  0.00     0.166 A 
HETATM    8  N   UNL     1      26.819  45.508  52.853  1.00  0.00    -0.046 NA
HETATM    9  C   UNL     1      25.459  47.327  49.983  1.00  0.00     0.037 C 
HETATM   10  C   UNL     1      25.819  48.578  49.221  1.00  0.00     0.070 C 
HETATM   11  H   UNL     1      27.240  47.447  51.025  1.00  0.00     0.184 HD
ENDROOT
BRANCH   1  12
HETATM   12  C   UNL     1      23.160  47.262  49.091  1.00  0.00     0.256 C 
HETATM   13  N   UNL     1      22.593  48.358  49.703  1.00  0.00    -0.323 N 
HETATM   14  H   UNL     1      23.003  48.662  50.576  1.00  0.00     0.169 HD
HETATM   15  O   UNL     1      22.848  46.755  48.020  1.00  0.00    -0.267 OA
BRANCH  13  16
HETATM   16  C   UNL     1      21.499  49.130  49.237  1.00  0.00     0.041 A 
HETATM   17  C   UNL     1      21.738  50.434  48.746  1.00  0.00    -0.035 A 
HETATM   18  C   UNL     1      23.117  51.028  48.653  1.00  0.00     0.050 C 
HETATM   19  C   UNL     1      20.659  51.204  48.271  1.00  0.00     0.009 A 
HETATM   20  C   UNL     1      19.358  50.707  48.295  1.00  0.00     0.001 A 
HETATM   21  C   UNL     1      19.121  49.431  48.788  1.00  0.00     0.002 A 
HETATM   22  C   UNL     1      20.183  48.650  49.253  1.00  0.00     0.030 A 
ENDBRANCH  13  16
ENDBRANCH   1  12
BRANCH   2  23
HETATM   23  C   UNL     1      23.976  44.148  49.817  1.00  0.00    -0.028 A 
HETATM   24  C   UNL     1      25.154  43.666  49.221  1.00  0.00     0.010 A 
HETATM   25  C   UNL     1      25.141  42.499  48.453  1.00  0.00     0.008 A 
HETATM   26  C   UNL     1      23.955  41.779  48.265  1.00  0.00    -0.055 A 
HETATM   27  C   UNL     1      22.781  42.259  48.859  1.00  0.00     0.008 A 
HETATM   28  C   UNL     1      22.789  43.429  49.626  1.00  0.00     0.010 A 
BRANCH  26  29
HETATM   29  C   UNL     1      23.975  40.508  47.434  1.00  0.00     0.010 C 
HETATM   30  C   UNL     1      22.565  40.058  47.041  1.00  0.00     0.015 C 
HETATM   31  C   UNL     1      24.863  40.669  46.198  1.00  0.00     0.015 C 
ENDBRANCH  26  29
ENDBRANCH   2  23
BRANCH   7  32
HETATM   32  C   UNL     1      26.366  43.783  54.607  1.00  0.00     0.085 C 
BRANCH  32  33
HETATM   33  C   UNL     1      27.688  43.039  54.417  1.00  0.00     0.034 C 
BRANCH  33  34
HETATM   34  C   UNL     1      27.696  42.147  53.180  1.00  0.00     0.164 C 
BRANCH  34  35
HETATM   35  O   UNL     1      27.417  40.803  53.555  1.00  0.00    -0.401 OA
HETATM   36  H   UNL     1      26.658  40.818  54.161  1.00  0.00     0.209 HD
ENDBRANCH  34  35
ENDBRANCH  33  34
ENDBRANCH  32  33
ENDBRANCH   7  32
TORSDOF 8
ENDMDL
MODEL 5
REMARK VINA RESULT:      -8.0      1.967      2.776
REMARK  8 active torsions:
REMARK  status: ('A' for Active; 'I' for Inactive)
REMARK    1  A    between atoms: C_3  and  N_4 
REMARK       I    between atoms: N_4  and  C_5 
REMARK    2  A    between atoms: C_5  and  C_6 
REMARK    3  A    between atoms: C_7  and  C_8 
REMARK    4  A    between atoms: C_11  and  C_12 
REMARK    5  A    between atoms: C_21  and  C_22 
REMARK    6  A    between atoms: C_22  and  C_23 
REMARK    7  A    between atoms: C_23  and  C_24 
REMARK    8  A    between atoms: C_24  and  O_25 
ROOT
HETATM    1  C   UNL     1      25.205  43.848  50.596  1.00  0.00     0.062 C 
HETATM    2  C   UNL     1      23.898  44.442  50.095  1.00  0.00     0.202 C 
HETATM    3  N   UNL     1      23.403  43.698  48.932  1.00  0.00    -0.083 N 
HETATM    4  C   UNL     1      24.167  42.828  48.203  1.00  0.00     0.726 A 
HETATM    5  N   UNL     1      25.421  42.548  48.616  1.00  0.00    -0.192 N 
HETATM    6  N   UNL     1      22.158  43.809  48.427  1.00  0.00    -0.140 NA
HETATM    7  C   UNL     1      22.260  43.023  47.347  1.00  0.00     0.166 A 
HETATM    8  N   UNL     1      23.475  42.397  47.180  1.00  0.00    -0.046 NA
HETATM    9  C   UNL     1      25.906  42.949  49.859  1.00  0.00     0.037 C 
HETATM   10  C   UNL     1      27.196  42.307  50.303  1.00  0.00     0.070 C 
HETATM   11  H   UNL     1      25.926  41.803  48.140  1.00  0.00     0.184 HD
ENDROOT
BRANCH   1  12
HETATM   12  C   UNL     1      25.561  44.102  52.013  1.00  0.00     0.256 C 
HETATM   13  N   UNL     1      26.748  44.780  52.177  1.00  0.00    -0.323 N 
HETATM   14  H   UNL     1      27.239  45.059  51.338  1.00  0.00     0.169 HD
HETATM   15  O   UNL     1      24.794  43.710  52.884  1.00  0.00    -0.267 OA
BRANCH  13  16
HETATM   16  C   UNL     1      27.362  45.152  53.400  1.00  0.00     0.041 A 
HETATM   17  C   UNL     1      26.976  46.360  54.022  1.00  0.00    -0.035 A 
HETATM   18  C   UNL     1      25.903  47.256  53.466  1.00  0.00     0.050 C 
HETATM   19  C   UNL     1      27.574  46.732  55.242  1.00  0.00     0.009 A 
HETATM   20  C   UNL     1      28.551  45.936  55.834  1.00  0.00     0.001 A 
HETATM   21  C   UNL     1      28.939  44.754  55.217  1.00  0.00     0.002 A 
HETATM   22  C   UNL     1      28.347  44.366  54.011  1.00  0.00     0.030 A 
ENDBRANCH  13  16
ENDBRANCH   1  12
BRANCH   2  23
HETATM   23  C   UNL     1      24.034  45.917  49.719  1.00  0.00    -0.028 A 
HETATM   24  C   UNL     1      25.250  46.604  49.877  1.00  0.00     0.010 A 
HETATM   25  C   UNL     1      25.363  47.950  49.520  1.00  0.00     0.008 A 
HETATM   26  C   UNL     1      24.269  48.644  48.990  1.00  0.00    -0.055 A 
HETATM   27  C   UNL     1      23.056  47.959  48.831  1.00  0.00     0.008 A 
HETATM   28  C   UNL     1      22.938  46.613  49.190  1.00  0.00     0.010 A 
BRANCH  26  29
HETATM   29  C   UNL     1      24.426  50.103  48.600  1.00  0.00     0.010 C 
HETATM   30  C   UNL     1      25.734  50.358  47.847  1.00  0.00     0.015 C 
HETATM   31  C   UNL     1      23.223  50.591  47.790  1.00  0.00     0.015 C 
ENDBRANCH  26  29
ENDBRANCH   2  23
BRANCH   7  32
HETATM   32  C   UNL     1      21.158  42.873  46.363  1.00  0.00     0.085 C 
BRANCH  32  33
HETATM   33  C   UNL     1      20.423  44.185  46.087  1.00  0.00     0.034 C 
BRANCH  33  34
HETATM   34  C   UNL     1      18.993  44.189  46.619  1.00  0.00     0.164 C 
BRANCH  34  35
HETATM   35  O   UNL     1      19.006  44.393  48.028  1.00  0.00    -0.401 OA
HETATM   36  H   UNL     1      18.154  44.792  48.274  1.00  0.00     0.209 HD
ENDBRANCH  34  35
ENDBRANCH  33  34
ENDBRANCH  32  33
ENDBRANCH   7  32
TORSDOF 8
ENDMDL
MODEL 6
REMARK VINA RESULT:      -7.8      2.645      7.297
REMARK  8 active torsions:
REMARK  status: ('A' for Active; 'I' for Inactive)
REMARK    1  A    between atoms: C_3  and  N_4 
REMARK       I    between atoms: N_4  and  C_5 
REMARK    2  A    between atoms: C_5  and  C_6 
REMARK    3  A    between atoms: C_7  and  C_8 
REMARK    4  A    between atoms: C_11  and  C_12 
REMARK    5  A    between atoms: C_21  and  C_22 
REMARK    6  A    between atoms: C_22  and  C_23 
REMARK    7  A    between atoms: C_23  and  C_24 
REMARK    8  A    between atoms: C_24  and  O_25 
ROOT
HETATM    1  C   UNL     1      23.087  45.295  48.941  1.00  0.00     0.062 C 
HETATM    2  C   UNL     1      24.583  45.052  49.064  1.00  0.00     0.202 C 
HETATM    3  N   UNL     1      24.875  43.616  49.064  1.00  0.00    -0.083 N 
HETATM    4  C   UNL     1      23.932  42.646  49.269  1.00  0.00     0.726 A 
HETATM    5  N   UNL     1      22.636  43.003  49.383  1.00  0.00    -0.192 N 
HETATM    6  N   UNL     1      26.104  43.086  48.897  1.00  0.00    -0.140 NA
HETATM    7  C   UNL     1      25.839  41.785  49.081  1.00  0.00     0.166 A 
HETATM    8  N   UNL     1      24.516  41.475  49.303  1.00  0.00    -0.046 NA
HETATM    9  C   UNL     1      22.188  44.292  49.104  1.00  0.00     0.037 C 
HETATM   10  C   UNL     1      20.694  44.459  48.977  1.00  0.00     0.070 C 
HETATM   11  H   UNL     1      21.937  42.263  49.403  1.00  0.00     0.184 HD
ENDROOT
BRANCH   1  12
HETATM   12  C   UNL     1      22.660  46.609  48.402  1.00  0.00     0.256 C 
HETATM   13  N   UNL     1      22.386  47.547  49.372  1.00  0.00    -0.323 N 
HETATM   14  H   UNL     1      22.525  47.270  50.335  1.00  0.00     0.169 HD
HETATM   15  O   UNL     1      22.597  46.747  47.186  1.00  0.00    -0.267 OA
BRANCH  13  16
HETATM   16  C   UNL     1      21.942  48.880  49.176  1.00  0.00     0.041 A 
HETATM   17  C   UNL     1      22.889  49.879  48.855  1.00  0.00    -0.035 A 
HETATM   18  C   UNL     1      24.352  49.583  48.666  1.00  0.00     0.050 C 
HETATM   19  C   UNL     1      22.455  51.203  48.649  1.00  0.00     0.009 A 
HETATM   20  C   UNL     1      21.111  51.545  48.774  1.00  0.00     0.001 A 
HETATM   21  C   UNL     1      20.182  50.566  49.100  1.00  0.00     0.002 A 
HETATM   22  C   UNL     1      20.596  49.246  49.298  1.00  0.00     0.030 A 
ENDBRANCH  13  16
ENDBRANCH   1  12
BRANCH   2  23
HETATM   23  C   UNL     1      25.174  45.679  50.327  1.00  0.00    -0.028 A 
HETATM   24  C   UNL     1      24.943  45.123  51.596  1.00  0.00     0.010 A 
HETATM   25  C   UNL     1      25.497  45.700  52.741  1.00  0.00     0.008 A 
HETATM   26  C   UNL     1      26.302  46.842  52.650  1.00  0.00    -0.055 A 
HETATM   27  C   UNL     1      26.533  47.396  51.383  1.00  0.00     0.008 A 
HETATM   28  C   UNL     1      25.977  46.823  50.235  1.00  0.00     0.010 A 
BRANCH  26  29
HETATM   29  C   UNL     1      26.900  47.440  53.910  1.00  0.00     0.010 C 
HETATM   30  C   UNL     1      25.835  48.091  54.798  1.00  0.00     0.015 C 
HETATM   31  C   UNL     1      27.700  46.396  54.692  1.00  0.00     0.015 C 
ENDBRANCH  26  29
ENDBRANCH   2  23
BRANCH   7  32
HETATM   32  C   UNL     1      26.901  40.750  49.097  1.00  0.00     0.085 C 
BRANCH  32  33
HETATM   33  C   UNL     1      27.159  40.180  50.492  1.00  0.00     0.034 C 
BRANCH  33  34
HETATM   34  C   UNL     1      28.251  40.929  51.248  1.00  0.00     0.164 C 
BRANCH  34  35
HETATM   35  O   UNL     1      28.513  40.277  52.486  1.00  0.00    -0.401 OA
HETATM   36  H   UNL     1      28.681  39.339  52.295  1.00  0.00     0.209 HD
ENDBRANCH  34  35
ENDBRANCH  33  34
ENDBRANCH  32  33
ENDBRANCH   7  32
TORSDOF 8
ENDMDL
MODEL 7
REMARK VINA RESULT:      -7.7      2.694      5.082
REMARK  8 active torsions:
REMARK  status: ('A' for Active; 'I' for Inactive)
REMARK    1  A    between atoms: C_3  and  N_4 
REMARK       I    between atoms: N_4  and  C_5 
REMARK    2  A    between atoms: C_5  and  C_6 
REMARK    3  A    between atoms: C_7  and  C_8 
REMARK    4  A    between atoms: C_11  and  C_12 
REMARK    5  A    between atoms: C_21  and  C_22 
REMARK    6  A    between atoms: C_22  and  C_23 
REMARK    7  A    between atoms: C_23  and  C_24 
REMARK    8  A    between atoms: C_24  and  O_25 
ROOT
HETATM    1  C   UNL     1      26.769  44.245  53.312  1.00  0.00     0.062 C 
HETATM    2  C   UNL     1      27.264  44.649  51.932  1.00  0.00     0.202 C 
HETATM    3  N   UNL     1      26.392  45.674  51.349  1.00  0.00    -0.083 N 
HETATM    4  C   UNL     1      25.142  45.969  51.820  1.00  0.00     0.726 A 
HETATM    5  N   UNL     1      24.704  45.364  52.944  1.00  0.00    -0.192 N 
HETATM    6  N   UNL     1      26.703  46.415  50.267  1.00  0.00    -0.140 NA
HETATM    7  C   UNL     1      25.560  47.096  50.099  1.00  0.00     0.166 A 
HETATM    8  N   UNL     1      24.582  46.855  51.037  1.00  0.00    -0.046 NA
HETATM    9  C   UNL     1      25.539  44.603  53.759  1.00  0.00     0.037 C 
HETATM   10  C   UNL     1      24.994  44.253  55.121  1.00  0.00     0.070 C 
HETATM   11  H   UNL     1      23.830  45.691  53.353  1.00  0.00     0.184 HD
ENDROOT
BRANCH   1  12
HETATM   12  C   UNL     1      27.766  43.657  54.239  1.00  0.00     0.256 C 
HETATM   13  N   UNL     1      28.630  44.578  54.787  1.00  0.00    -0.323 N 
HETATM   14  H   UNL     1      28.489  45.549  54.537  1.00  0.00     0.169 HD
HETATM   15  O   UNL     1      27.734  42.448  54.436  1.00  0.00    -0.267 OA
BRANCH  13  16
HETATM   16  C   UNL     1      29.696  44.326  55.688  1.00  0.00     0.041 A 
HETATM   17  C   UNL     1      29.812  45.116  56.854  1.00  0.00    -0.035 A 
HETATM   18  C   UNL     1      28.822  46.192  57.210  1.00  0.00     0.050 C 
HETATM   19  C   UNL     1      30.862  44.865  57.759  1.00  0.00     0.009 A 
HETATM   20  C   UNL     1      31.796  43.863  57.512  1.00  0.00     0.001 A 
HETATM   21  C   UNL     1      31.690  43.094  56.361  1.00  0.00     0.002 A 
HETATM   22  C   UNL     1      30.647  43.324  55.459  1.00  0.00     0.030 A 
ENDBRANCH  13  16
ENDBRANCH   1  12
BRANCH   2  23
HETATM   23  C   UNL     1      27.346  43.463  50.971  1.00  0.00    -0.028 A 
HETATM   24  C   UNL     1      26.618  43.442  49.769  1.00  0.00     0.010 A 
HETATM   25  C   UNL     1      26.710  42.356  48.896  1.00  0.00     0.008 A 
HETATM   26  C   UNL     1      27.535  41.265  49.195  1.00  0.00    -0.055 A 
HETATM   27  C   UNL     1      28.261  41.285  50.393  1.00  0.00     0.008 A 
HETATM   28  C   UNL     1      28.169  42.370  51.272  1.00  0.00     0.010 A 
BRANCH  26  29
HETATM   29  C   UNL     1      27.623  40.104  48.221  1.00  0.00     0.010 C 
HETATM   30  C   UNL     1      28.009  40.565  46.812  1.00  0.00     0.015 C 
HETATM   31  C   UNL     1      28.586  39.028  48.728  1.00  0.00     0.015 C 
ENDBRANCH  26  29
ENDBRANCH   2  23
BRANCH   7  32
HETATM   32  C   UNL     1      25.338  48.010  48.951  1.00  0.00     0.085 C 
BRANCH  32  33
HETATM   33  C   UNL     1      26.430  49.072  48.814  1.00  0.00     0.034 C 
BRANCH  33  34
HETATM   34  C   UNL     1      26.031  50.221  47.893  1.00  0.00     0.164 C 
BRANCH  34  35
HETATM   35  O   UNL     1      24.705  50.016  47.416  1.00  0.00    -0.401 OA
HETATM   36  H   UNL     1      24.147  50.718  47.790  1.00  0.00     0.209 HD
ENDBRANCH  34  35
ENDBRANCH  33  34
ENDBRANCH  32  33
ENDBRANCH   7  32
TORSDOF 8
ENDMDL
MODEL 8
REMARK VINA RESULT:      -7.5      3.683      8.788
REMARK  8 active torsions:
REMARK  status: ('A' for Active; 'I' for Inactive)
REMARK    1  A    between atoms: C_3  and  N_4 
REMARK       I    between atoms: N_4  and  C_5 
REMARK    2  A    between atoms: C_5  and  C_6 
REMARK    3  A    between atoms: C_7  and  C_8 
REMARK    4  A    between atoms: C_11  and  C_12 
REMARK    5  A    between atoms: C_21  and  C_22 
REMARK    6  A    between atoms: C_22  and  C_23 
REMARK    7  A    between atoms: C_23  and  C_24 
REMARK    8  A    between atoms: C_24  and  O_25 
ROOT
HETATM    1  C   UNL     1      23.870  47.593  49.237  1.00  0.00     0.062 C 
HETATM    2  C   UNL     1      23.486  46.308  49.954  1.00  0.00     0.202 C 
HETATM    3  N   UNL     1      24.499  45.949  50.950  1.00  0.00    -0.083 N 
HETATM    4  C   UNL     1      25.755  46.489  50.988  1.00  0.00     0.726 A 
HETATM    5  N   UNL     1      26.070  47.483  50.132  1.00  0.00    -0.192 N 
HETATM    6  N   UNL     1      24.326  45.024  51.916  1.00  0.00    -0.140 NA
HETATM    7  C   UNL     1      25.549  45.010  52.465  1.00  0.00     0.166 A 
HETATM    8  N   UNL     1      26.451  45.901  51.928  1.00  0.00    -0.046 NA
HETATM    9  C   UNL     1      25.116  48.121  49.343  1.00  0.00     0.037 C 
HETATM   10  C   UNL     1      25.557  49.400  48.676  1.00  0.00     0.070 C 
HETATM   11  H   UNL     1      26.960  47.962  50.261  1.00  0.00     0.184 HD
ENDROOT
BRANCH   1  12
HETATM   12  C   UNL     1      22.772  48.372  48.615  1.00  0.00     0.256 C 
HETATM   13  N   UNL     1      22.015  49.086  49.518  1.00  0.00    -0.323 N 
HETATM   14  H   UNL     1      22.289  49.037  50.491  1.00  0.00     0.169 HD
HETATM   15  O   UNL     1      22.640  48.323  47.398  1.00  0.00    -0.267 OA
BRANCH  13  16
HETATM   16  C   UNL     1      20.892  49.906  49.238  1.00  0.00     0.041 A 
HETATM   17  C   UNL     1      19.594  49.381  49.427  1.00  0.00    -0.035 A 
HETATM   18  C   UNL     1      19.346  47.995  49.960  1.00  0.00     0.050 C 
HETATM   19  C   UNL     1      18.474  50.192  49.162  1.00  0.00     0.009 A 
HETATM   20  C   UNL     1      18.626  51.496  48.698  1.00  0.00     0.001 A 
HETATM   21  C   UNL     1      19.901  52.008  48.500  1.00  0.00     0.002 A 
HETATM   22  C   UNL     1      21.023  51.219  48.770  1.00  0.00     0.030 A 
ENDBRANCH  13  16
ENDBRANCH   1  12
BRANCH   2  23
HETATM   23  C   UNL     1      23.299  45.136  48.990  1.00  0.00    -0.028 A 
HETATM   24  C   UNL     1      24.365  44.282  48.661  1.00  0.00     0.010 A 
HETATM   25  C   UNL     1      24.179  43.209  47.787  1.00  0.00     0.008 A 
HETATM   26  C   UNL     1      22.923  42.955  47.224  1.00  0.00    -0.055 A 
HETATM   27  C   UNL     1      21.859  43.806  47.552  1.00  0.00     0.008 A 
HETATM   28  C   UNL     1      22.043  44.884  48.424  1.00  0.00     0.010 A 
BRANCH  26  29
HETATM   29  C   UNL     1      22.748  41.774  46.286  1.00  0.00     0.010 C 
HETATM   30  C   UNL     1      23.452  40.518  46.807  1.00  0.00     0.015 C 
HETATM   31  C   UNL     1      21.267  41.498  46.014  1.00  0.00     0.015 C 
ENDBRANCH  26  29
ENDBRANCH   2  23
BRANCH   7  32
HETATM   32  C   UNL     1      25.928  44.064  53.543  1.00  0.00     0.085 C 
BRANCH  32  33
HETATM   33  C   UNL     1      26.977  44.635  54.497  1.00  0.00     0.034 C 
BRANCH  33  34
HETATM   34  C   UNL     1      28.340  43.967  54.351  1.00  0.00     0.164 C 
BRANCH  34  35
HETATM   35  O   UNL     1      28.719  43.942  52.979  1.00  0.00    -0.401 OA
HETATM   36  H   UNL     1      29.669  44.142  52.933  1.00  0.00     0.209 HD
ENDBRANCH  34  35
ENDBRANCH  33  34
ENDBRANCH  32  33
ENDBRANCH   7  32
TORSDOF 8
ENDMDL
MODEL 9
REMARK VINA RESULT:      -7.5      2.890      7.341
REMARK  8 active torsions:
REMARK  status: ('A' for Active; 'I' for Inactive)
REMARK    1  A    between atoms: C_3  and  N_4 
REMARK       I    between atoms: N_4  and  C_5 
REMARK    2  A    between atoms: C_5  and  C_6 
REMARK    3  A    between atoms: C_7  and  C_8 
REMARK    4  A    between atoms: C_11  and  C_12 
REMARK    5  A    between atoms: C_21  and  C_22 
REMARK    6  A    between atoms: C_22  and  C_23 
REMARK    7  A    between atoms: C_23  and  C_24 
REMARK    8  A    between atoms: C_24  and  O_25 
ROOT
HETATM    1  C   UNL     1      24.170  42.730  48.140  1.00  0.00     0.062 C 
HETATM    2  C   UNL     1      25.632  42.934  48.505  1.00  0.00     0.202 C 
HETATM    3  N   UNL     1      26.344  41.653  48.528  1.00  0.00    -0.083 N 
HETATM    4  C   UNL     1      25.720  40.435  48.558  1.00  0.00     0.726 A 
HETATM    5  N   UNL     1      24.375  40.383  48.462  1.00  0.00    -0.192 N 
HETATM    6  N   UNL     1      27.685  41.524  48.559  1.00  0.00    -0.140 NA
HETATM    7  C   UNL     1      27.803  40.194  48.674  1.00  0.00     0.166 A 
HETATM    8  N   UNL     1      26.619  39.491  48.669  1.00  0.00    -0.046 NA
HETATM    9  C   UNL     1      23.605  41.497  48.135  1.00  0.00     0.037 C 
HETATM   10  C   UNL     1      22.169  41.221  47.765  1.00  0.00     0.070 C 
HETATM   11  H   UNL     1      23.939  39.470  48.353  1.00  0.00     0.184 HD
ENDROOT
BRANCH   1  12
HETATM   12  C   UNL     1      23.452  43.891  47.560  1.00  0.00     0.256 C 
HETATM   13  N   UNL     1      22.905  44.734  48.501  1.00  0.00    -0.323 N 
HETATM   14  H   UNL     1      23.063  44.506  49.474  1.00  0.00     0.169 HD
HETATM   15  O   UNL     1      23.415  44.002  46.340  1.00  0.00    -0.267 OA
BRANCH  13  16
HETATM   16  C   UNL     1      22.149  45.911  48.263  1.00  0.00     0.041 A 
HETATM   17  C   UNL     1      22.622  47.144  48.765  1.00  0.00    -0.035 A 
HETATM   18  C   UNL     1      23.924  47.275  49.508  1.00  0.00     0.050 C 
HETATM   19  C   UNL     1      21.884  48.319  48.524  1.00  0.00     0.009 A 
HETATM   20  C   UNL     1      20.686  48.280  47.815  1.00  0.00     0.001 A 
HETATM   21  C   UNL     1      20.214  47.067  47.332  1.00  0.00     0.002 A 
HETATM   22  C   UNL     1      20.942  45.894  47.554  1.00  0.00     0.030 A 
ENDBRANCH  13  16
ENDBRANCH   1  12
BRANCH   2  23
HETATM   23  C   UNL     1      25.805  43.623  49.858  1.00  0.00    -0.028 A 
HETATM   24  C   UNL     1      26.645  44.739  50.010  1.00  0.00     0.010 A 
HETATM   25  C   UNL     1      26.786  45.364  51.251  1.00  0.00     0.008 A 
HETATM   26  C   UNL     1      26.087  44.899  52.371  1.00  0.00    -0.055 A 
HETATM   27  C   UNL     1      25.249  43.786  52.220  1.00  0.00     0.008 A 
HETATM   28  C   UNL     1      25.108  43.155  50.980  1.00  0.00     0.010 A 
BRANCH  26  29
HETATM   29  C   UNL     1      26.252  45.607  53.704  1.00  0.00     0.010 C 
HETATM   30  C   UNL     1      27.615  45.321  54.341  1.00  0.00     0.015 C 
HETATM   31  C   UNL     1      26.018  47.112  53.563  1.00  0.00     0.015 C 
ENDBRANCH  26  29
ENDBRANCH   2  23
BRANCH   7  32
HETATM   32  C   UNL     1      29.114  39.521  48.848  1.00  0.00     0.085 C 
BRANCH  32  33
HETATM   33  C   UNL     1      28.995  38.141  49.493  1.00  0.00     0.034 C 
BRANCH  33  34
HETATM   34  C   UNL     1      30.107  37.856  50.498  1.00  0.00     0.164 C 
BRANCH  34  35
HETATM   35  O   UNL     1      31.358  38.275  49.963  1.00  0.00    -0.401 OA
HETATM   36  H   UNL     1      31.716  37.536  49.442  1.00  0.00     0.209 HD
ENDBRANCH  34  35
ENDBRANCH  33  34
ENDBRANCH  32  33
ENDBRANCH   7  32
TORSDOF 8
ENDMDL
MODEL 10
REMARK VINA RESULT:      -7.5     17.445     19.548
REMARK  8 active torsions:
REMARK  status: ('A' for Active; 'I' for Inactive)
REMARK    1  A    between atoms: C_3  and  N_4 
REMARK       I    between atoms: N_4  and  C_5 
REMARK    2  A    between atoms: C_5  and  C_6 
REMARK    3  A    between atoms: C_7  and  C_8 
REMARK    4  A    between atoms: C_11  and  C_12 
REMARK    5  A    between atoms: C_21  and  C_22 
REMARK    6  A    between atoms: C_22  and  C_23 
REMARK    7  A    between atoms: C_23  and  C_24 
REMARK    8  A    between atoms: C_24  and  O_25 
ROOT
HETATM    1  C   UNL     1      37.650  45.335  65.378  1.00  0.00     0.062 C 
HETATM    2  C   UNL     1      38.690  44.907  64.355  1.00  0.00     0.202 C 
HETATM    3  N   UNL     1      38.544  43.484  64.033  1.00  0.00    -0.083 N 
HETATM    4  C   UNL     1      37.816  42.604  64.786  1.00  0.00     0.726 A 
HETATM    5  N   UNL     1      37.103  43.067  65.834  1.00  0.00    -0.192 N 
HETATM    6  N   UNL     1      39.134  42.873  62.986  1.00  0.00    -0.140 NA
HETATM    7  C   UNL     1      38.770  41.602  63.206  1.00  0.00     0.166 A 
HETATM    8  N   UNL     1      37.955  41.398  64.296  1.00  0.00    -0.046 NA
HETATM    9  C   UNL     1      36.915  44.427  66.067  1.00  0.00     0.037 C 
HETATM   10  C   UNL     1      35.855  44.783  67.079  1.00  0.00     0.070 C 
HETATM   11  H   UNL     1      36.466  42.424  66.300  1.00  0.00     0.184 HD
ENDROOT
BRANCH   1  12
HETATM   12  C   UNL     1      37.301  46.777  65.420  1.00  0.00     0.256 C 
HETATM   13  N   UNL     1      38.043  47.504  66.323  1.00  0.00    -0.323 N 
HETATM   14  H   UNL     1      38.758  47.007  66.839  1.00  0.00     0.169 HD
HETATM   15  O   UNL     1      36.421  47.184  64.671  1.00  0.00    -0.267 OA
BRANCH  13  16
HETATM   16  C   UNL     1      37.934  48.889  66.606  1.00  0.00     0.041 A 
HETATM   17  C   UNL     1      38.662  49.810  65.820  1.00  0.00    -0.035 A 
HETATM   18  C   UNL     1      39.521  49.389  64.659  1.00  0.00     0.050 C 
HETATM   19  C   UNL     1      38.550  51.189  66.088  1.00  0.00     0.009 A 
HETATM   20  C   UNL     1      37.748  51.655  67.126  1.00  0.00     0.001 A 
HETATM   21  C   UNL     1      37.042  50.749  67.907  1.00  0.00     0.002 A 
HETATM   22  C   UNL     1      37.133  49.379  67.646  1.00  0.00     0.030 A 
ENDBRANCH  13  16
ENDBRANCH   1  12
BRANCH   2  23
HETATM   23  C   UNL     1      40.119  45.163  64.834  1.00  0.00    -0.028 A 
HETATM   24  C   UNL     1      40.983  46.022  64.133  1.00  0.00     0.010 A 
HETATM   25  C   UNL     1      42.283  46.255  64.588  1.00  0.00     0.008 A 
HETATM   26  C   UNL     1      42.754  45.644  65.756  1.00  0.00    -0.055 A 
HETATM   27  C   UNL     1      41.892  44.788  66.455  1.00  0.00     0.008 A 
HETATM   28  C   UNL     1      40.591  44.549  66.002  1.00  0.00     0.010 A 
BRANCH  26  29
HETATM   29  C   UNL     1      44.168  45.926  66.231  1.00  0.00     0.010 C 
HETATM   30  C   UNL     1      45.049  44.674  66.183  1.00  0.00     0.015 C 
HETATM   31  C   UNL     1      44.800  47.071  65.437  1.00  0.00     0.015 C 
ENDBRANCH  26  29
ENDBRANCH   2  23
BRANCH   7  32
HETATM   32  C   UNL     1      39.253  40.478  62.365  1.00  0.00     0.085 C 
BRANCH  32  33
HETATM   33  C   UNL     1      39.619  39.238  63.180  1.00  0.00     0.034 C 
BRANCH  33  34
HETATM   34  C   UNL     1      40.693  39.510  64.228  1.00  0.00     0.164 C 
BRANCH  34  35
HETATM   35  O   UNL     1      40.125  39.434  65.531  1.00  0.00    -0.401 OA
HETATM   36  H   UNL     1      39.210  39.757  65.471  1.00  0.00     0.209 HD
ENDBRANCH  34  35
ENDBRANCH  33  34
ENDBRANCH  32  33
ENDBRANCH   7  32
TORSDOF 8
ENDMDL
