MODEL 1
REMARK VINA RESULT:      -9.6      0.000      0.000
REMARK  8 active torsions:
REMARK  status: ('A' for Active; 'I' for Inactive)
REMARK    1  A    between atoms: C_7  and  C_8 
REMARK       I    between atoms: C_8  and  N_9 
REMARK    2  A    between atoms: N_9  and  N_10 
REMARK    3  A    between atoms: N_10  and  C_11 
REMARK    4  A    between atoms: C_11  and  N_12 
REMARK    5  A    between atoms: N_12  and  C_13 
REMARK    6  A    between atoms: N_15  and  C_16 
REMARK    7  A    between atoms: C_16  and  C_17 
REMARK    8  A    between atoms: C_29  and  C_30 
ROOT
HETATM    1  C   UNL     1      22.725  47.743  49.051  1.00  0.00     0.290 C 
HETATM    2  N   UNL     1      23.658  47.945  50.047  1.00  0.00    -0.262 N 
HETATM    3  O   UNL     1      22.733  46.802  48.262  1.00  0.00    -0.264 OA
HETATM    4  H   UNL     1      23.491  48.696  50.718  1.00  0.00     0.190 HD
ENDROOT
BRANCH   2   5
HETATM    5  N   UNL     1      24.610  46.976  50.358  1.00  0.00    -0.273 N 
HETATM    6  H   UNL     1      24.285  46.099  50.779  1.00  0.00     0.189 HD
BRANCH   5   7
HETATM    7  C   UNL     1      25.878  47.027  49.844  1.00  0.00     0.192 C 
HETATM    8  S   UNL     1      26.675  48.440  49.410  1.00  0.00    -0.039 SA
BRANCH   7   9
HETATM    9  N   UNL     1      26.536  45.844  49.662  1.00  0.00    -0.315 N 
HETATM   10  H   UNL     1      26.862  45.670  48.721  1.00  0.00     0.170 HD
BRANCH   9  11
HETATM   11  C   UNL     1      26.731  44.835  50.580  1.00  0.00     0.151 A 
HETATM   12  N   UNL     1      26.544  44.962  51.897  1.00  0.00    -0.154 NA
HETATM   13  N   UNL     1      26.825  43.738  52.394  1.00  0.00    -0.275 N 
HETATM   14  C   UNL     1      27.196  42.843  51.432  1.00  0.00     0.116 A 
HETATM   15  C   UNL     1      27.150  43.529  50.242  1.00  0.00     0.071 A 
BRANCH  13  16
HETATM   16  C   UNL     1      26.797  43.506  53.831  1.00  0.00     0.192 C 
BRANCH  16  17
HETATM   17  C   UNL     1      28.098  43.877  54.481  1.00  0.00     0.000 A 
HETATM   18  C   UNL     1      29.150  42.960  54.531  1.00  0.00     0.124 A 
HETATM   19  F   UNL     1      28.998  41.744  53.987  1.00  0.00    -0.205 F 
HETATM   20  C   UNL     1      30.365  43.281  55.131  1.00  0.00     0.043 A 
HETATM   21  C   UNL     1      30.540  44.543  55.697  1.00  0.00     0.003 A 
HETATM   22  C   UNL     1      29.498  45.470  55.666  1.00  0.00     0.001 A 
HETATM   23  C   UNL     1      28.280  45.139  55.066  1.00  0.00     0.012 A 
ENDBRANCH  16  17
ENDBRANCH  13  16
ENDBRANCH   9  11
ENDBRANCH   7   9
ENDBRANCH   5   7
ENDBRANCH   2   5
BRANCH   1  24
HETATM   24  C   UNL     1      21.701  48.802  49.035  1.00  0.00     0.150 A 
HETATM   25  N   UNL     1      20.446  48.578  49.485  1.00  0.00    -0.165 NA
HETATM   26  N   UNL     1      19.821  49.752  49.295  1.00  0.00    -0.240 N 
HETATM   27  C   UNL     1      20.627  50.730  48.780  1.00  0.00     0.123 A 
HETATM   28  C   UNL     1      18.447  49.948  49.711  1.00  0.00     0.221 C 
HETATM   29  N   UNL     1      20.179  51.989  48.583  1.00  0.00    -0.371 N 
HETATM   30  C   UNL     1      21.851  50.143  48.585  1.00  0.00     0.089 A 
HETATM   31  C   UNL     1      18.763  52.316  48.697  1.00  0.00     0.081 C 
HETATM   32  H   UNL     1      20.748  52.654  48.060  1.00  0.00     0.161 HD
HETATM   33  C   UNL     1      18.101  52.260  47.326  1.00  0.00     0.032 C 
HETATM   34  C   UNL     1      18.098  51.446  49.775  1.00  0.00     0.061 C 
BRANCH  28  35
HETATM   35  C   UNL     1      17.498  49.146  48.848  1.00  0.00     0.409 C 
HETATM   36  F   UNL     1      16.307  49.759  48.674  1.00  0.00    -0.169 F 
HETATM   37  F   UNL     1      18.027  48.993  47.604  1.00  0.00    -0.169 F 
HETATM   38  F   UNL     1      17.256  47.906  49.316  1.00  0.00    -0.169 F 
ENDBRANCH  28  35
ENDBRANCH   1  24
TORSDOF 8
ENDMDL
MODEL 2
REMARK VINA RESULT:      -9.5      1.555      1.987
REMARK  8 active torsions:
REMARK  status: ('A' for Active; 'I' for Inactive)
REMARK    1  A    between atoms: C_7  and  C_8 
REMARK       I    between atoms: C_8  and  N_9 
REMARK    2  A    between atoms: N_9  and  N_10 
REMARK    3  A    between atoms: N_10  and  C_11 
REMARK    4  A    between atoms: C_11  and  N_12 
REMARK    5  A    between atoms: N_12  and  C_13 
REMARK    6  A    between atoms: N_15  and  C_16 
REMARK    7  A    between atoms: C_16  and  C_17 
REMARK    8  A    between atoms: C_29  and  C_30 
ROOT
HETATM    1  C   UNL     1      23.213  47.145  49.100  1.00  0.00     0.290 C 
HETATM    2  N   UNL     1      24.119  47.922  49.793  1.00  0.00    -0.262 N 
HETATM    3  O   UNL     1      23.359  45.951  48.852  1.00  0.00    -0.264 OA
HETATM    4  H   UNL     1      23.845  48.873  50.043  1.00  0.00     0.190 HD
ENDROOT
BRANCH   2   5
HETATM    5  N   UNL     1      25.220  47.358  50.435  1.00  0.00    -0.273 N 
HETATM    6  H   UNL     1      25.053  46.818  51.291  1.00  0.00     0.189 HD
BRANCH   5   7
HETATM    7  C   UNL     1      26.431  47.237  49.807  1.00  0.00     0.192 C 
HETATM    8  S   UNL     1      27.337  48.525  49.227  1.00  0.00    -0.039 SA
BRANCH   7   9
HETATM    9  N   UNL     1      26.929  45.978  49.631  1.00  0.00    -0.315 N 
HETATM   10  H   UNL     1      27.278  45.776  48.704  1.00  0.00     0.170 HD
BRANCH   9  11
HETATM   11  C   UNL     1      26.935  44.937  50.534  1.00  0.00     0.151 A 
HETATM   12  N   UNL     1      26.781  45.078  51.854  1.00  0.00    -0.154 NA
HETATM   13  N   UNL     1      26.830  43.816  52.332  1.00  0.00    -0.275 N 
HETATM   14  C   UNL     1      27.021  42.881  51.356  1.00  0.00     0.116 A 
HETATM   15  C   UNL     1      27.099  43.580  50.176  1.00  0.00     0.071 A 
BRANCH  13  16
HETATM   16  C   UNL     1      26.765  43.572  53.767  1.00  0.00     0.192 C 
BRANCH  16  17
HETATM   17  C   UNL     1      28.073  43.868  54.442  1.00  0.00     0.000 A 
HETATM   18  C   UNL     1      29.095  42.916  54.450  1.00  0.00     0.124 A 
HETATM   19  F   UNL     1      28.907  41.735  53.843  1.00  0.00    -0.205 F 
HETATM   20  C   UNL     1      30.315  43.166  55.071  1.00  0.00     0.043 A 
HETATM   21  C   UNL     1      30.527  44.391  55.702  1.00  0.00     0.003 A 
HETATM   22  C   UNL     1      29.516  45.352  55.713  1.00  0.00     0.001 A 
HETATM   23  C   UNL     1      28.292  45.092  55.091  1.00  0.00     0.012 A 
ENDBRANCH  16  17
ENDBRANCH  13  16
ENDBRANCH   9  11
ENDBRANCH   7   9
ENDBRANCH   5   7
ENDBRANCH   2   5
BRANCH   1  24
HETATM   24  C   UNL     1      22.033  47.920  48.681  1.00  0.00     0.150 A 
HETATM   25  N   UNL     1      21.860  49.205  49.061  1.00  0.00    -0.165 NA
HETATM   26  N   UNL     1      20.687  49.552  48.506  1.00  0.00    -0.240 N 
HETATM   27  C   UNL     1      20.118  48.561  47.754  1.00  0.00     0.123 A 
HETATM   28  C   UNL     1      20.164  50.897  48.631  1.00  0.00     0.221 C 
HETATM   29  N   UNL     1      18.968  48.756  47.073  1.00  0.00    -0.371 N 
HETATM   30  C   UNL     1      20.958  47.481  47.859  1.00  0.00     0.089 A 
HETATM   31  C   UNL     1      18.159  49.952  47.279  1.00  0.00     0.081 C 
HETATM   32  H   UNL     1      18.487  47.963  46.650  1.00  0.00     0.161 HD
HETATM   33  C   UNL     1      17.071  49.676  48.310  1.00  0.00     0.032 C 
HETATM   34  C   UNL     1      19.058  51.159  47.591  1.00  0.00     0.061 C 
BRANCH  28  35
HETATM   35  C   UNL     1      19.732  51.182  50.052  1.00  0.00     0.409 C 
HETATM   36  F   UNL     1      19.144  50.118  50.642  1.00  0.00    -0.169 F 
HETATM   37  F   UNL     1      20.821  51.479  50.812  1.00  0.00    -0.169 F 
HETATM   38  F   UNL     1      18.890  52.228  50.163  1.00  0.00    -0.169 F 
ENDBRANCH  28  35
ENDBRANCH   1  24
TORSDOF 8
ENDMDL
MODEL 3
REMARK VINA RESULT:      -9.5      6.174     10.608
REMARK  8 active torsions:
REMARK  status: ('A' for Active; 'I' for Inactive)
REMARK    1  A    between atoms: C_7  and  C_8 
REMARK       I    between atoms: C_8  and  N_9 
REMARK    2  A    between atoms: N_9  and  N_10 
REMARK    3  A    between atoms: N_10  and  C_11 
REMARK    4  A    between atoms: C_11  and  N_12 
REMARK    5  A    between atoms: N_12  and  C_13 
REMARK    6  A    between atoms: N_15  and  C_16 
REMARK    7  A    between atoms: C_16  and  C_17 
REMARK    8  A    between atoms: C_29  and  C_30 
ROOT
HETATM    1  C   UNL     1      28.506  41.237  53.004  1.00  0.00     0.290 C 
HETATM    2  N   UNL     1      27.237  41.301  52.465  1.00  0.00    -0.262 N 
HETATM    3  O   UNL     1      29.306  40.327  52.807  1.00  0.00    -0.264 OA
HETATM    4  H   UNL     1      26.698  42.157  52.601  1.00  0.00     0.190 HD
ENDROOT
BRANCH   2   5
HETATM    5  N   UNL     1      26.816  40.400  51.489  1.00  0.00    -0.273 N 
HETATM    6  H   UNL     1      25.881  39.988  51.586  1.00  0.00     0.189 HD
BRANCH   5   7
HETATM    7  C   UNL     1      27.457  40.297  50.283  1.00  0.00     0.192 C 
HETATM    8  S   UNL     1      28.160  38.892  49.694  1.00  0.00    -0.039 SA
BRANCH   7   9
HETATM    9  N   UNL     1      27.539  41.422  49.512  1.00  0.00    -0.315 N 
HETATM   10  H   UNL     1      28.431  41.574  49.063  1.00  0.00     0.170 HD
BRANCH   9  11
HETATM   11  C   UNL     1      26.586  42.403  49.344  1.00  0.00     0.151 A 
HETATM   12  N   UNL     1      26.733  43.676  49.723  1.00  0.00    -0.154 NA
HETATM   13  N   UNL     1      25.581  44.272  49.346  1.00  0.00    -0.275 N 
HETATM   14  C   UNL     1      24.704  43.412  48.751  1.00  0.00     0.116 A 
HETATM   15  C   UNL     1      25.327  42.187  48.740  1.00  0.00     0.071 A 
BRANCH  13  16
HETATM   16  C   UNL     1      25.344  45.674  49.662  1.00  0.00     0.192 C 
BRANCH  16  17
HETATM   17  C   UNL     1      25.463  45.942  51.134  1.00  0.00     0.000 A 
HETATM   18  C   UNL     1      26.126  47.082  51.594  1.00  0.00     0.124 A 
HETATM   19  F   UNL     1      26.650  47.946  50.712  1.00  0.00    -0.205 F 
HETATM   20  C   UNL     1      26.251  47.350  52.954  1.00  0.00     0.043 A 
HETATM   21  C   UNL     1      25.706  46.465  53.882  1.00  0.00     0.003 A 
HETATM   22  C   UNL     1      25.049  45.315  53.444  1.00  0.00     0.001 A 
HETATM   23  C   UNL     1      24.931  45.050  52.078  1.00  0.00     0.012 A 
ENDBRANCH  16  17
ENDBRANCH  13  16
ENDBRANCH   9  11
ENDBRANCH   7   9
ENDBRANCH   5   7
ENDBRANCH   2   5
BRANCH   1  24
HETATM   24  C   UNL     1      28.799  42.400  53.858  1.00  0.00     0.150 A 
HETATM   25  N   UNL     1      30.027  42.597  54.388  1.00  0.00    -0.165 NA
HETATM   26  N   UNL     1      29.894  43.727  55.101  1.00  0.00    -0.240 N 
HETATM   27  C   UNL     1      28.648  44.287  55.022  1.00  0.00     0.123 A 
HETATM   28  C   UNL     1      31.023  44.319  55.790  1.00  0.00     0.221 C 
HETATM   29  N   UNL     1      28.356  45.458  55.627  1.00  0.00    -0.371 N 
HETATM   30  C   UNL     1      27.907  43.443  54.235  1.00  0.00     0.089 A 
HETATM   31  C   UNL     1      29.277  46.073  56.574  1.00  0.00     0.081 C 
HETATM   32  H   UNL     1      27.387  45.774  55.682  1.00  0.00     0.161 HD
HETATM   33  C   UNL     1      28.912  45.670  57.998  1.00  0.00     0.032 C 
HETATM   34  C   UNL     1      30.732  45.783  56.171  1.00  0.00     0.061 C 
BRANCH  28  35
HETATM   35  C   UNL     1      31.452  43.466  56.963  1.00  0.00     0.409 C 
HETATM   36  F   UNL     1      32.594  42.784  56.722  1.00  0.00    -0.169 F 
HETATM   37  F   UNL     1      31.709  44.260  58.037  1.00  0.00    -0.169 F 
HETATM   38  F   UNL     1      30.520  42.577  57.357  1.00  0.00    -0.169 F 
ENDBRANCH  28  35
ENDBRANCH   1  24
TORSDOF 8
ENDMDL
MODEL 4
REMARK VINA RESULT:      -9.5      1.457      1.646
REMARK  8 active torsions:
REMARK  status: ('A' for Active; 'I' for Inactive)
REMARK    1  A    between atoms: C_7  and  C_8 
REMARK       I    between atoms: C_8  and  N_9 
REMARK    2  A    between atoms: N_9  and  N_10 
REMARK    3  A    between atoms: N_10  and  C_11 
REMARK    4  A    between atoms: C_11  and  N_12 
REMARK    5  A    between atoms: N_12  and  C_13 
REMARK    6  A    between atoms: N_15  and  C_16 
REMARK    7  A    between atoms: C_16  and  C_17 
REMARK    8  A    between atoms: C_29  and  C_30 
ROOT
HETATM    1  C   UNL     1      23.121  49.164  49.287  1.00  0.00     0.290 C 
HETATM    2  N   UNL     1      22.965  47.829  49.598  1.00  0.00    -0.262 N 
HETATM    3  O   UNL     1      24.202  49.722  49.113  1.00  0.00    -0.264 OA
HETATM    4  H   UNL     1      22.020  47.443  49.607  1.00  0.00     0.190 HD
ENDROOT
BRANCH   2   5
HETATM    5  N   UNL     1      24.042  46.944  49.568  1.00  0.00    -0.273 N 
HETATM    6  H   UNL     1      24.983  47.327  49.706  1.00  0.00     0.189 HD
BRANCH   5   7
HETATM    7  C   UNL     1      23.861  45.591  49.677  1.00  0.00     0.192 C 
HETATM    8  S   UNL     1      23.533  44.567  48.388  1.00  0.00    -0.039 SA
BRANCH   7   9
HETATM    9  N   UNL     1      23.941  45.040  50.924  1.00  0.00    -0.315 N 
HETATM   10  H   UNL     1      23.070  44.990  51.432  1.00  0.00     0.170 HD
BRANCH   9  11
HETATM   11  C   UNL     1      25.073  44.625  51.593  1.00  0.00     0.151 A 
HETATM   12  N   UNL     1      25.083  44.143  52.839  1.00  0.00    -0.154 NA
HETATM   13  N   UNL     1      26.380  43.847  53.072  1.00  0.00    -0.275 N 
HETATM   14  C   UNL     1      27.193  44.138  52.015  1.00  0.00     0.116 A 
HETATM   15  C   UNL     1      26.372  44.651  51.039  1.00  0.00     0.071 A 
BRANCH  13  16
HETATM   16  C   UNL     1      26.796  43.354  54.378  1.00  0.00     0.192 C 
BRANCH  16  17
HETATM   17  C   UNL     1      28.046  44.033  54.858  1.00  0.00     0.000 A 
HETATM   18  C   UNL     1      29.265  43.352  54.856  1.00  0.00     0.124 A 
HETATM   19  F   UNL     1      29.319  42.087  54.414  1.00  0.00    -0.205 F 
HETATM   20  C   UNL     1      30.437  43.960  55.298  1.00  0.00     0.043 A 
HETATM   21  C   UNL     1      30.398  45.276  55.756  1.00  0.00     0.003 A 
HETATM   22  C   UNL     1      29.188  45.971  55.774  1.00  0.00     0.001 A 
HETATM   23  C   UNL     1      28.016  45.353  55.333  1.00  0.00     0.012 A 
ENDBRANCH  16  17
ENDBRANCH  13  16
ENDBRANCH   9  11
ENDBRANCH   7   9
ENDBRANCH   5   7
ENDBRANCH   2   5
BRANCH   1  24
HETATM   24  C   UNL     1      21.827  49.859  49.186  1.00  0.00     0.150 A 
HETATM   25  N   UNL     1      20.685  49.294  49.637  1.00  0.00    -0.165 NA
HETATM   26  N   UNL     1      19.740  50.209  49.358  1.00  0.00    -0.240 N 
HETATM   27  C   UNL     1      20.229  51.350  48.786  1.00  0.00     0.123 A 
HETATM   28  C   UNL     1      18.359  50.005  49.744  1.00  0.00     0.221 C 
HETATM   29  N   UNL     1      19.429  52.399  48.496  1.00  0.00    -0.371 N 
HETATM   30  C   UNL     1      21.579  51.151  48.645  1.00  0.00     0.089 A 
HETATM   31  C   UNL     1      17.978  52.289  48.571  1.00  0.00     0.081 C 
HETATM   32  H   UNL     1      19.787  53.171  47.934  1.00  0.00     0.161 HD
HETATM   33  C   UNL     1      17.407  51.947  47.200  1.00  0.00     0.032 C 
HETATM   34  C   UNL     1      17.572  51.328  49.700  1.00  0.00     0.061 C 
BRANCH  28  35
HETATM   35  C   UNL     1      17.724  48.900  48.929  1.00  0.00     0.409 C 
HETATM   36  F   UNL     1      18.348  48.699  47.747  1.00  0.00    -0.169 F 
HETATM   37  F   UNL     1      17.812  47.722  49.606  1.00  0.00    -0.169 F 
HETATM   38  F   UNL     1      16.417  49.098  48.673  1.00  0.00    -0.169 F 
ENDBRANCH  28  35
ENDBRANCH   1  24
TORSDOF 8
ENDMDL
MODEL 5
REMARK VINA RESULT:      -9.4      1.937     11.068
REMARK  8 active torsions:
REMARK  status: ('A' for Active; 'I' for Inactive)
REMARK    1  A    between atoms: C_7  and  C_8 
REMARK       I    between atoms: C_8  and  N_9 
REMARK    2  A    between atoms: N_9  and  N_10 
REMARK    3  A    between atoms: N_10  and  C_11 
REMARK    4  A    between atoms: C_11  and  N_12 
REMARK    5  A    between atoms: N_12  and  C_13 
REMARK    6  A    between atoms: N_15  and  C_16 
REMARK    7  A    between atoms: C_16  and  C_17 
REMARK    8  A    between atoms: C_29  and  C_30 
ROOT
HETATM    1  C   UNL     1      25.695  46.636  51.572  1.00  0.00     0.290 C 
HETATM    2  N   UNL     1      25.660  46.782  50.200  1.00  0.00    -0.262 N 
HETATM    3  O   UNL     1      25.354  47.499  52.378  1.00  0.00    -0.264 OA
HETATM    4  H   UNL     1      25.856  45.963  49.624  1.00  0.00     0.190 HD
ENDROOT
BRANCH   2   5
HETATM    5  N   UNL     1      25.054  47.885  49.601  1.00  0.00    -0.273 N 
HETATM    6  H   UNL     1      24.055  48.039  49.776  1.00  0.00     0.189 HD
BRANCH   5   7
HETATM    7  C   UNL     1      25.793  48.908  49.070  1.00  0.00     0.192 C 
HETATM    8  S   UNL     1      27.470  48.979  49.084  1.00  0.00    -0.039 SA
BRANCH   7   9
HETATM    9  N   UNL     1      25.117  49.948  48.499  1.00  0.00    -0.315 N 
HETATM   10  H   UNL     1      25.685  50.596  47.971  1.00  0.00     0.170 HD
BRANCH   9  11
HETATM   11  C   UNL     1      23.781  50.259  48.628  1.00  0.00     0.151 A 
HETATM   12  N   UNL     1      23.157  50.458  49.793  1.00  0.00    -0.154 NA
HETATM   13  N   UNL     1      21.887  50.757  49.444  1.00  0.00    -0.275 N 
HETATM   14  C   UNL     1      21.685  50.742  48.094  1.00  0.00     0.116 A 
HETATM   15  C   UNL     1      22.897  50.415  47.536  1.00  0.00     0.071 A 
BRANCH  13  16
HETATM   16  C   UNL     1      20.877  50.973  50.471  1.00  0.00     0.192 C 
BRANCH  16  17
HETATM   17  C   UNL     1      19.487  50.921  49.905  1.00  0.00     0.000 A 
HETATM   18  C   UNL     1      18.872  49.693  49.652  1.00  0.00     0.124 A 
HETATM   19  F   UNL     1      19.525  48.554  49.925  1.00  0.00    -0.205 F 
HETATM   20  C   UNL     1      17.585  49.620  49.126  1.00  0.00     0.043 A 
HETATM   21  C   UNL     1      16.891  50.795  48.842  1.00  0.00     0.003 A 
HETATM   22  C   UNL     1      17.491  52.032  49.079  1.00  0.00     0.001 A 
HETATM   23  C   UNL     1      18.784  52.097  49.603  1.00  0.00     0.012 A 
ENDBRANCH  16  17
ENDBRANCH  13  16
ENDBRANCH   9  11
ENDBRANCH   7   9
ENDBRANCH   5   7
ENDBRANCH   2   5
BRANCH   1  24
HETATM   24  C   UNL     1      26.198  45.311  51.971  1.00  0.00     0.150 A 
HETATM   25  N   UNL     1      26.903  45.136  53.111  1.00  0.00    -0.165 NA
HETATM   26  N   UNL     1      27.190  43.824  53.115  1.00  0.00    -0.240 N 
HETATM   27  C   UNL     1      26.668  43.141  52.051  1.00  0.00     0.123 A 
HETATM   28  C   UNL     1      27.900  43.213  54.220  1.00  0.00     0.221 C 
HETATM   29  N   UNL     1      26.807  41.803  51.928  1.00  0.00    -0.371 N 
HETATM   30  C   UNL     1      26.031  44.079  51.280  1.00  0.00     0.089 A 
HETATM   31  C   UNL     1      27.703  41.051  52.798  1.00  0.00     0.081 C 
HETATM   32  H   UNL     1      26.545  41.343  51.056  1.00  0.00     0.161 HD
HETATM   33  C   UNL     1      29.062  40.883  52.129  1.00  0.00     0.032 C 
HETATM   34  C   UNL     1      27.743  41.681  54.199  1.00  0.00     0.061 C 
BRANCH  28  35
HETATM   35  C   UNL     1      29.342  43.669  54.259  1.00  0.00     0.409 C 
HETATM   36  F   UNL     1      30.154  42.776  54.867  1.00  0.00    -0.169 F 
HETATM   37  F   UNL     1      29.814  43.805  52.990  1.00  0.00    -0.169 F 
HETATM   38  F   UNL     1      29.518  44.860  54.864  1.00  0.00    -0.169 F 
ENDBRANCH  28  35
ENDBRANCH   1  24
TORSDOF 8
ENDMDL
MODEL 6
REMARK VINA RESULT:      -9.1      2.730      3.467
REMARK  8 active torsions:
REMARK  status: ('A' for Active; 'I' for Inactive)
REMARK    1  A    between atoms: C_7  and  C_8 
REMARK       I    between atoms: C_8  and  N_9 
REMARK    2  A    between atoms: N_9  and  N_10 
REMARK    3  A    between atoms: N_10  and  C_11 
REMARK    4  A    between atoms: C_11  and  N_12 
REMARK    5  A    between atoms: N_12  and  C_13 
REMARK    6  A    between atoms: N_15  and  C_16 
REMARK    7  A    between atoms: C_16  and  C_17 
REMARK    8  A    between atoms: C_29  and  C_30 
ROOT
HETATM    1  C   UNL     1      19.591  45.736  48.633  1.00  0.00     0.290 C 
HETATM    2  N   UNL     1      20.844  45.772  49.209  1.00  0.00    -0.262 N 
HETATM    3  O   UNL     1      18.996  44.710  48.312  1.00  0.00    -0.264 OA
HETATM    4  H   UNL     1      21.196  46.670  49.541  1.00  0.00     0.190 HD
ENDROOT
BRANCH   2   5
HETATM    5  N   UNL     1      21.478  44.609  49.644  1.00  0.00    -0.273 N 
HETATM    6  H   UNL     1      20.903  43.882  50.082  1.00  0.00     0.189 HD
BRANCH   5   7
HETATM    7  C   UNL     1      22.743  44.285  49.231  1.00  0.00     0.192 C 
HETATM    8  S   UNL     1      23.162  42.840  48.487  1.00  0.00    -0.039 SA
BRANCH   7   9
HETATM    9  N   UNL     1      23.734  45.199  49.451  1.00  0.00    -0.315 N 
HETATM   10  H   UNL     1      24.022  45.728  48.640  1.00  0.00     0.170 HD
BRANCH   9  11
HETATM   11  C   UNL     1      24.436  45.420  50.616  1.00  0.00     0.151 A 
HETATM   12  N   UNL     1      24.377  44.637  51.698  1.00  0.00    -0.154 NA
HETATM   13  N   UNL     1      25.231  45.212  52.572  1.00  0.00    -0.275 N 
HETATM   14  C   UNL     1      25.820  46.341  52.082  1.00  0.00     0.116 A 
HETATM   15  C   UNL     1      25.319  46.506  50.813  1.00  0.00     0.071 A 
BRANCH  13  16
HETATM   16  C   UNL     1      25.381  44.667  53.914  1.00  0.00     0.192 C 
BRANCH  16  17
HETATM   17  C   UNL     1      26.818  44.386  54.244  1.00  0.00     0.000 A 
HETATM   18  C   UNL     1      27.585  45.332  54.928  1.00  0.00     0.124 A 
HETATM   19  F   UNL     1      27.029  46.494  55.300  1.00  0.00    -0.205 F 
HETATM   20  C   UNL     1      28.920  45.094  55.243  1.00  0.00     0.043 A 
HETATM   21  C   UNL     1      29.511  43.889  54.868  1.00  0.00     0.003 A 
HETATM   22  C   UNL     1      28.765  42.934  54.176  1.00  0.00     0.001 A 
HETATM   23  C   UNL     1      27.427  43.181  53.860  1.00  0.00     0.012 A 
ENDBRANCH  16  17
ENDBRANCH  13  16
ENDBRANCH   9  11
ENDBRANCH   7   9
ENDBRANCH   5   7
ENDBRANCH   2   5
BRANCH   1  24
HETATM   24  C   UNL     1      19.036  47.086  48.440  1.00  0.00     0.150 A 
HETATM   25  N   UNL     1      19.794  48.100  47.966  1.00  0.00    -0.165 NA
HETATM   26  N   UNL     1      18.956  49.149  47.948  1.00  0.00    -0.240 N 
HETATM   27  C   UNL     1      17.684  48.847  48.351  1.00  0.00     0.123 A 
HETATM   28  C   UNL     1      19.376  50.439  47.439  1.00  0.00     0.221 C 
HETATM   29  N   UNL     1      16.696  49.767  48.335  1.00  0.00    -0.371 N 
HETATM   30  C   UNL     1      17.705  47.519  48.692  1.00  0.00     0.089 A 
HETATM   31  C   UNL     1      16.978  51.179  48.103  1.00  0.00     0.081 C 
HETATM   32  H   UNL     1      15.803  49.561  48.782  1.00  0.00     0.161 HD
HETATM   33  C   UNL     1      17.135  51.906  49.433  1.00  0.00     0.032 C 
HETATM   34  C   UNL     1      18.161  51.336  47.135  1.00  0.00     0.061 C 
BRANCH  28  35
HETATM   35  C   UNL     1      20.385  51.086  48.364  1.00  0.00     0.409 C 
HETATM   36  F   UNL     1      20.264  52.431  48.406  1.00  0.00    -0.169 F 
HETATM   37  F   UNL     1      20.185  50.649  49.637  1.00  0.00    -0.169 F 
HETATM   38  F   UNL     1      21.664  50.799  48.056  1.00  0.00    -0.169 F 
ENDBRANCH  28  35
ENDBRANCH   1  24
TORSDOF 8
ENDMDL
MODEL 7
REMARK VINA RESULT:      -8.9      1.820      2.206
REMARK  8 active torsions:
REMARK  status: ('A' for Active; 'I' for Inactive)
REMARK    1  A    between atoms: C_7  and  C_8 
REMARK       I    between atoms: C_8  and  N_9 
REMARK    2  A    between atoms: N_9  and  N_10 
REMARK    3  A    between atoms: N_10  and  C_11 
REMARK    4  A    between atoms: C_11  and  N_12 
REMARK    5  A    between atoms: N_12  and  C_13 
REMARK    6  A    between atoms: N_15  and  C_16 
REMARK    7  A    between atoms: C_16  and  C_17 
REMARK    8  A    between atoms: C_29  and  C_30 
ROOT
HETATM    1  C   UNL     1      23.319  48.338  48.643  1.00  0.00     0.290 C 
HETATM    2  N   UNL     1      24.445  48.918  49.191  1.00  0.00    -0.262 N 
HETATM    3  O   UNL     1      23.287  47.229  48.117  1.00  0.00    -0.264 OA
HETATM    4  H   UNL     1      24.336  49.794  49.704  1.00  0.00     0.190 HD
ENDROOT
BRANCH   2   5
HETATM    5  N   UNL     1      25.628  48.199  49.352  1.00  0.00    -0.273 N 
HETATM    6  H   UNL     1      26.504  48.639  49.049  1.00  0.00     0.189 HD
BRANCH   5   7
HETATM    7  C   UNL     1      25.693  47.098  50.164  1.00  0.00     0.192 C 
HETATM    8  S   UNL     1      26.403  45.639  49.736  1.00  0.00    -0.039 SA
BRANCH   7   9
HETATM    9  N   UNL     1      25.129  47.192  51.404  1.00  0.00    -0.315 N 
HETATM   10  H   UNL     1      24.310  47.780  51.464  1.00  0.00     0.170 HD
BRANCH   9  11
HETATM   11  C   UNL     1      25.590  46.650  52.585  1.00  0.00     0.151 A 
HETATM   12  N   UNL     1      26.614  47.136  53.293  1.00  0.00    -0.154 NA
HETATM   13  N   UNL     1      26.693  46.320  54.366  1.00  0.00    -0.275 N 
HETATM   14  C   UNL     1      25.758  45.325  54.353  1.00  0.00     0.116 A 
HETATM   15  C   UNL     1      25.029  45.511  53.203  1.00  0.00     0.071 A 
BRANCH  13  16
HETATM   16  C   UNL     1      27.756  46.500  55.346  1.00  0.00     0.192 C 
BRANCH  16  17
HETATM   17  C   UNL     1      28.780  45.406  55.265  1.00  0.00     0.000 A 
HETATM   18  C   UNL     1      29.811  45.332  56.204  1.00  0.00     0.124 A 
HETATM   19  F   UNL     1      29.879  46.240  57.189  1.00  0.00    -0.205 F 
HETATM   20  C   UNL     1      30.774  44.328  56.148  1.00  0.00     0.043 A 
HETATM   21  C   UNL     1      30.714  43.374  55.133  1.00  0.00     0.003 A 
HETATM   22  C   UNL     1      29.697  43.435  54.180  1.00  0.00     0.001 A 
HETATM   23  C   UNL     1      28.737  44.448  54.240  1.00  0.00     0.012 A 
ENDBRANCH  16  17
ENDBRANCH  13  16
ENDBRANCH   9  11
ENDBRANCH   7   9
ENDBRANCH   5   7
ENDBRANCH   2   5
BRANCH   1  24
HETATM   24  C   UNL     1      22.141  49.213  48.757  1.00  0.00     0.150 A 
HETATM   25  N   UNL     1      20.974  48.764  49.272  1.00  0.00    -0.165 NA
HETATM   26  N   UNL     1      20.156  49.826  49.195  1.00  0.00    -0.240 N 
HETATM   27  C   UNL     1      20.754  50.948  48.691  1.00  0.00     0.123 A 
HETATM   28  C   UNL     1      18.802  49.772  49.708  1.00  0.00     0.221 C 
HETATM   29  N   UNL     1      20.097  52.125  48.601  1.00  0.00    -0.371 N 
HETATM   30  C   UNL     1      22.039  50.582  48.383  1.00  0.00     0.089 A 
HETATM   31  C   UNL     1      18.659  52.209  48.825  1.00  0.00     0.081 C 
HETATM   32  H   UNL     1      20.512  52.900  48.085  1.00  0.00     0.161 HD
HETATM   33  C   UNL     1      17.917  52.113  47.497  1.00  0.00     0.032 C 
HETATM   34  C   UNL     1      18.222  51.187  49.887  1.00  0.00     0.061 C 
BRANCH  28  35
HETATM   35  C   UNL     1      17.934  48.869  48.859  1.00  0.00     0.409 C 
HETATM   36  F   UNL     1      18.389  48.750  47.592  1.00  0.00    -0.169 F 
HETATM   37  F   UNL     1      17.935  47.612  49.379  1.00  0.00    -0.169 F 
HETATM   38  F   UNL     1      16.646  49.258  48.797  1.00  0.00    -0.169 F 
ENDBRANCH  28  35
ENDBRANCH   1  24
TORSDOF 8
ENDMDL
MODEL 8
REMARK VINA RESULT:      -8.9      2.148      2.845
REMARK  8 active torsions:
REMARK  status: ('A' for Active; 'I' for Inactive)
REMARK    1  A    between atoms: C_7  and  C_8 
REMARK       I    between atoms: C_8  and  N_9 
REMARK    2  A    between atoms: N_9  and  N_10 
REMARK    3  A    between atoms: N_10  and  C_11 
REMARK    4  A    between atoms: C_11  and  N_12 
REMARK    5  A    between atoms: N_12  and  C_13 
REMARK    6  A    between atoms: N_15  and  C_16 
REMARK    7  A    between atoms: C_16  and  C_17 
REMARK    8  A    between atoms: C_29  and  C_30 
ROOT
HETATM    1  C   UNL     1      22.200  49.586  49.207  1.00  0.00     0.290 C 
HETATM    2  N   UNL     1      22.377  48.261  49.552  1.00  0.00    -0.262 N 
HETATM    3  O   UNL     1      23.031  50.473  49.381  1.00  0.00    -0.264 OA
HETATM    4  H   UNL     1      21.668  47.588  49.258  1.00  0.00     0.190 HD
ENDROOT
BRANCH   2   5
HETATM    5  N   UNL     1      23.614  47.780  49.977  1.00  0.00    -0.273 N 
HETATM    6  H   UNL     1      24.108  48.303  50.709  1.00  0.00     0.189 HD
BRANCH   5   7
HETATM    7  C   UNL     1      24.025  46.506  49.689  1.00  0.00     0.192 C 
HETATM    8  S   UNL     1      23.121  45.386  48.826  1.00  0.00    -0.039 SA
BRANCH   7   9
HETATM    9  N   UNL     1      25.251  46.117  50.147  1.00  0.00    -0.315 N 
HETATM   10  H   UNL     1      25.876  45.745  49.446  1.00  0.00     0.170 HD
BRANCH   9  11
HETATM   11  C   UNL     1      25.699  46.097  51.450  1.00  0.00     0.151 A 
HETATM   12  N   UNL     1      25.798  44.996  52.201  1.00  0.00    -0.154 NA
HETATM   13  N   UNL     1      26.296  45.437  53.376  1.00  0.00    -0.275 N 
HETATM   14  C   UNL     1      26.505  46.786  53.396  1.00  0.00     0.116 A 
HETATM   15  C   UNL     1      26.121  47.244  52.159  1.00  0.00     0.071 A 
BRANCH  13  16
HETATM   16  C   UNL     1      26.478  44.513  54.487  1.00  0.00     0.192 C 
BRANCH  16  17
HETATM   17  C   UNL     1      27.917  44.119  54.654  1.00  0.00     0.000 A 
HETATM   18  C   UNL     1      28.770  44.880  55.456  1.00  0.00     0.124 A 
HETATM   19  F   UNL     1      28.297  45.965  56.087  1.00  0.00    -0.205 F 
HETATM   20  C   UNL     1      30.108  44.536  55.624  1.00  0.00     0.043 A 
HETATM   21  C   UNL     1      30.614  43.408  54.979  1.00  0.00     0.003 A 
HETATM   22  C   UNL     1      29.781  42.640  54.166  1.00  0.00     0.001 A 
HETATM   23  C   UNL     1      28.440  42.994  53.999  1.00  0.00     0.012 A 
ENDBRANCH  16  17
ENDBRANCH  13  16
ENDBRANCH   9  11
ENDBRANCH   7   9
ENDBRANCH   5   7
ENDBRANCH   2   5
BRANCH   1  24
HETATM   24  C   UNL     1      20.880  49.823  48.598  1.00  0.00     0.150 A 
HETATM   25  N   UNL     1      20.168  50.940  48.868  1.00  0.00    -0.165 NA
HETATM   26  N   UNL     1      19.041  50.785  48.154  1.00  0.00    -0.240 N 
HETATM   27  C   UNL     1      19.013  49.639  47.408  1.00  0.00     0.123 A 
HETATM   28  C   UNL     1      18.022  51.814  48.124  1.00  0.00     0.221 C 
HETATM   29  N   UNL     1      17.983  49.352  46.582  1.00  0.00    -0.371 N 
HETATM   30  C   UNL     1      20.185  48.982  47.684  1.00  0.00     0.089 A 
HETATM   31  C   UNL     1      16.752  50.132  46.608  1.00  0.00     0.081 C 
HETATM   32  H   UNL     1      17.914  48.428  46.158  1.00  0.00     0.161 HD
HETATM   33  C   UNL     1      15.728  49.463  47.518  1.00  0.00     0.032 C 
HETATM   34  C   UNL     1      17.055  51.601  46.944  1.00  0.00     0.061 C 
BRANCH  28  35
HETATM   35  C   UNL     1      17.322  51.925  49.461  1.00  0.00     0.409 C 
HETATM   36  F   UNL     1      16.010  52.222  49.340  1.00  0.00    -0.169 F 
HETATM   37  F   UNL     1      17.379  50.730  50.109  1.00  0.00    -0.169 F 
HETATM   38  F   UNL     1      17.873  52.835  50.287  1.00  0.00    -0.169 F 
ENDBRANCH  28  35
ENDBRANCH   1  24
TORSDOF 8
ENDMDL
MODEL 9
REMARK VINA RESULT:      -8.8      2.896      3.644
REMARK  8 active torsions:
REMARK  status: ('A' for Active; 'I' for Inactive)
REMARK    1  A    between atoms: C_7  and  C_8 
REMARK       I    between atoms: C_8  and  N_9 
REMARK    2  A    between atoms: N_9  and  N_10 
REMARK    3  A    between atoms: N_10  and  C_11 
REMARK    4  A    between atoms: C_11  and  N_12 
REMARK    5  A    between atoms: N_12  and  C_13 
REMARK    6  A    between atoms: N_15  and  C_16 
REMARK    7  A    between atoms: C_16  and  C_17 
REMARK    8  A    between atoms: C_29  and  C_30 
ROOT
HETATM    1  C   UNL     1      22.041  44.814  47.954  1.00  0.00     0.290 C 
HETATM    2  N   UNL     1      23.400  44.694  47.748  1.00  0.00    -0.262 N 
HETATM    3  O   UNL     1      21.252  43.873  47.990  1.00  0.00    -0.264 OA
HETATM    4  H   UNL     1      23.979  45.528  47.852  1.00  0.00     0.190 HD
ENDROOT
BRANCH   2   5
HETATM    5  N   UNL     1      24.027  43.449  47.738  1.00  0.00    -0.273 N 
HETATM    6  H   UNL     1      23.978  42.893  46.877  1.00  0.00     0.189 HD
BRANCH   5   7
HETATM    7  C   UNL     1      24.943  43.100  48.694  1.00  0.00     0.192 C 
HETATM    8  S   UNL     1      25.181  41.537  49.259  1.00  0.00    -0.039 SA
BRANCH   7   9
HETATM    9  N   UNL     1      25.707  44.095  49.233  1.00  0.00    -0.315 N 
HETATM   10  H   UNL     1      26.382  44.510  48.606  1.00  0.00     0.170 HD
BRANCH   9  11
HETATM   11  C   UNL     1      25.721  44.537  50.539  1.00  0.00     0.151 A 
HETATM   12  N   UNL     1      25.954  43.759  51.600  1.00  0.00    -0.154 NA
HETATM   13  N   UNL     1      25.896  44.604  52.652  1.00  0.00    -0.275 N 
HETATM   14  C   UNL     1      25.622  45.892  52.289  1.00  0.00     0.116 A 
HETATM   15  C   UNL     1      25.497  45.878  50.921  1.00  0.00     0.071 A 
BRANCH  13  16
HETATM   16  C   UNL     1      26.035  44.095  54.009  1.00  0.00     0.192 C 
BRANCH  16  17
HETATM   17  C   UNL     1      27.471  44.055  54.445  1.00  0.00     0.000 A 
HETATM   18  C   UNL     1      28.246  42.916  54.221  1.00  0.00     0.124 A 
HETATM   19  F   UNL     1      27.705  41.855  53.605  1.00  0.00    -0.205 F 
HETATM   20  C   UNL     1      29.579  42.855  54.619  1.00  0.00     0.043 A 
HETATM   21  C   UNL     1      30.157  43.952  55.256  1.00  0.00     0.003 A 
HETATM   22  C   UNL     1      29.397  45.096  55.497  1.00  0.00     0.001 A 
HETATM   23  C   UNL     1      28.059  45.148  55.099  1.00  0.00     0.012 A 
ENDBRANCH  16  17
ENDBRANCH  13  16
ENDBRANCH   9  11
ENDBRANCH   7   9
ENDBRANCH   5   7
ENDBRANCH   2   5
BRANCH   1  24
HETATM   24  C   UNL     1      21.634  46.218  48.127  1.00  0.00     0.150 A 
HETATM   25  N   UNL     1      22.394  47.236  47.665  1.00  0.00    -0.165 NA
HETATM   26  N   UNL     1      21.711  48.337  48.022  1.00  0.00    -0.240 N 
HETATM   27  C   UNL     1      20.529  48.072  48.656  1.00  0.00     0.123 A 
HETATM   28  C   UNL     1      22.172  49.660  47.653  1.00  0.00     0.221 C 
HETATM   29  N   UNL     1      19.686  49.058  49.029  1.00  0.00    -0.371 N 
HETATM   30  C   UNL     1      20.454  46.706  48.755  1.00  0.00     0.089 A 
HETATM   31  C   UNL     1      20.088  50.459  48.978  1.00  0.00     0.081 C 
HETATM   32  H   UNL     1      18.891  48.847  49.633  1.00  0.00     0.161 HD
HETATM   33  C   UNL     1      20.619  50.901  50.337  1.00  0.00     0.032 C 
HETATM   34  C   UNL     1      21.044  50.698  47.799  1.00  0.00     0.061 C 
BRANCH  28  35
HETATM   35  C   UNL     1      23.430  50.028  48.409  1.00  0.00     0.409 C 
HETATM   36  F   UNL     1      23.575  49.324  49.553  1.00  0.00    -0.169 F 
HETATM   37  F   UNL     1      24.521  49.741  47.649  1.00  0.00    -0.169 F 
HETATM   38  F   UNL     1      23.512  51.336  48.719  1.00  0.00    -0.169 F 
ENDBRANCH  28  35
ENDBRANCH   1  24
TORSDOF 8
ENDMDL
MODEL 10
REMARK VINA RESULT:      -8.8      6.040      9.697
REMARK  8 active torsions:
REMARK  status: ('A' for Active; 'I' for Inactive)
REMARK    1  A    between atoms: C_7  and  C_8 
REMARK       I    between atoms: C_8  and  N_9 
REMARK    2  A    between atoms: N_9  and  N_10 
REMARK    3  A    between atoms: N_10  and  C_11 
REMARK    4  A    between atoms: C_11  and  N_12 
REMARK    5  A    between atoms: N_12  and  C_13 
REMARK    6  A    between atoms: N_15  and  C_16 
REMARK    7  A    between atoms: C_16  and  C_17 
REMARK    8  A    between atoms: C_29  and  C_30 
ROOT
HETATM    1  C   UNL     1      24.746  41.979  48.069  1.00  0.00     0.290 C 
HETATM    2  N   UNL     1      25.042  43.293  48.372  1.00  0.00    -0.262 N 
HETATM    3  O   UNL     1      23.655  41.581  47.670  1.00  0.00    -0.264 OA
HETATM    4  H   UNL     1      26.011  43.531  48.585  1.00  0.00     0.190 HD
ENDROOT
BRANCH   2   5
HETATM    5  N   UNL     1      24.154  44.325  48.077  1.00  0.00    -0.273 N 
HETATM    6  H   UNL     1      23.738  44.349  47.139  1.00  0.00     0.189 HD
BRANCH   5   7
HETATM    7  C   UNL     1      23.595  45.094  49.062  1.00  0.00     0.192 C 
HETATM    8  S   UNL     1      22.915  46.609  48.818  1.00  0.00    -0.039 SA
BRANCH   7   9
HETATM    9  N   UNL     1      23.604  44.598  50.334  1.00  0.00    -0.315 N 
HETATM   10  H   UNL     1      22.831  43.990  50.567  1.00  0.00     0.170 HD
BRANCH   9  11
HETATM   11  C   UNL     1      24.487  44.892  51.351  1.00  0.00     0.151 A 
HETATM   12  N   UNL     1      24.669  44.138  52.439  1.00  0.00    -0.154 NA
HETATM   13  N   UNL     1      25.627  44.786  53.136  1.00  0.00    -0.275 N 
HETATM   14  C   UNL     1      26.050  45.933  52.528  1.00  0.00     0.116 A 
HETATM   15  C   UNL     1      25.322  46.032  51.367  1.00  0.00     0.071 A 
BRANCH  13  16
HETATM   16  C   UNL     1      26.047  44.289  54.439  1.00  0.00     0.192 C 
BRANCH  16  17
HETATM   17  C   UNL     1      27.493  43.883  54.442  1.00  0.00     0.000 A 
HETATM   18  C   UNL     1      28.439  44.644  55.131  1.00  0.00     0.124 A 
HETATM   19  F   UNL     1      28.051  45.739  55.801  1.00  0.00    -0.205 F 
HETATM   20  C   UNL     1      29.785  44.289  55.146  1.00  0.00     0.043 A 
HETATM   21  C   UNL     1      30.204  43.151  54.458  1.00  0.00     0.003 A 
HETATM   22  C   UNL     1      29.275  42.382  53.756  1.00  0.00     0.001 A 
HETATM   23  C   UNL     1      27.927  42.747  53.742  1.00  0.00     0.012 A 
ENDBRANCH  16  17
ENDBRANCH  13  16
ENDBRANCH   9  11
ENDBRANCH   7   9
ENDBRANCH   5   7
ENDBRANCH   2   5
BRANCH   1  24
HETATM   24  C   UNL     1      25.902  41.093  48.282  1.00  0.00     0.150 A 
HETATM   25  N   UNL     1      25.831  39.766  48.032  1.00  0.00    -0.165 NA
HETATM   26  N   UNL     1      27.052  39.310  48.356  1.00  0.00    -0.240 N 
HETATM   27  C   UNL     1      27.916  40.288  48.766  1.00  0.00     0.123 A 
HETATM   28  C   UNL     1      27.408  37.918  48.173  1.00  0.00     0.221 C 
HETATM   29  N   UNL     1      29.203  40.017  49.071  1.00  0.00    -0.371 N 
HETATM   30  C   UNL     1      27.198  41.456  48.744  1.00  0.00     0.089 A 
HETATM   31  C   UNL     1      29.680  38.645  49.196  1.00  0.00     0.081 C 
HETATM   32  H   UNL     1      29.780  40.729  49.518  1.00  0.00     0.161 HD
HETATM   33  C   UNL     1      29.625  38.203  50.654  1.00  0.00     0.032 C 
HETATM   34  C   UNL     1      28.936  37.728  48.212  1.00  0.00     0.061 C 
BRANCH  28  35
HETATM   35  C   UNL     1      26.666  37.033  49.151  1.00  0.00     0.409 C 
HETATM   36  F   UNL     1      25.589  36.433  48.598  1.00  0.00    -0.169 F 
HETATM   37  F   UNL     1      27.483  36.029  49.570  1.00  0.00    -0.169 F 
HETATM   38  F   UNL     1      26.253  37.678  50.259  1.00  0.00    -0.169 F 
ENDBRANCH  28  35
ENDBRANCH   1  24
TORSDOF 8
ENDMDL
