MODEL 1
REMARK VINA RESULT:      -8.5      0.000      0.000
REMARK  6 active torsions:
REMARK  status: ('A' for Active; 'I' for Inactive)
REMARK    1  A    between atoms: C_7  and  C_8 
REMARK    2  A    between atoms: C_8  and  N_9 
REMARK       I    between atoms: N_9  and  C_10 
REMARK       I    between atoms: C_10  and  N_11 
REMARK    3  A    between atoms: N_11  and  C_12 
REMARK    4  A    between atoms: C_14  and  C_15 
REMARK    5  A    between atoms: C_15  and  O_16 
REMARK    6  A    between atoms: O_16  and  C_17 
ROOT
HETATM    1  C   UNL     1      25.559  47.479  49.896  1.00  0.00     0.036 A 
HETATM    2  C   UNL     1      24.647  48.366  49.314  1.00  0.00     0.038 A 
HETATM    3  C   UNL     1      25.096  49.501  48.613  1.00  0.00    -0.032 A 
HETATM    4  C   UNL     1      26.473  49.730  48.490  1.00  0.00     0.009 A 
HETATM    5  C   UNL     1      27.387  48.837  49.039  1.00  0.00     0.003 A 
HETATM    6  C   UNL     1      26.930  47.718  49.733  1.00  0.00     0.029 A 
ENDROOT
BRANCH   1   7
HETATM    7  N   UNL     1      25.214  46.316  50.609  1.00  0.00    -0.309 N 
HETATM    8  C   UNL     1      25.128  46.005  51.928  1.00  0.00     0.320 C 
HETATM    9  N   UNL     1      25.668  46.861  52.831  1.00  0.00    -0.339 N 
HETATM   10  O   UNL     1      24.604  44.940  52.251  1.00  0.00    -0.247 OA
HETATM   11  H   UNL     1      26.485  47.352  52.502  1.00  0.00     0.164 HD
HETATM   12  H   UNL     1      24.922  45.524  50.047  1.00  0.00     0.170 HD
BRANCH   9  13
HETATM   13  C   UNL     1      25.675  46.496  54.227  1.00  0.00     0.166 C 
BRANCH  13  14
HETATM   14  C   UNL     1      27.048  46.095  54.621  1.00  0.00     0.003 A 
HETATM   15  C   UNL     1      27.601  44.823  54.660  1.00  0.00     0.035 A 
HETATM   16  C   UNL     1      26.995  43.498  54.369  1.00  0.00     0.070 C 
HETATM   17  N   UNL     1      28.918  44.998  55.007  1.00  0.00    -0.278 N 
HETATM   18  C   UNL     1      29.960  44.004  55.104  1.00  0.00     0.179 C 
HETATM   19  N   UNL     1      29.236  46.283  55.252  1.00  0.00    -0.185 NA
HETATM   20  C   UNL     1      28.109  46.946  54.999  1.00  0.00     0.149 A 
ENDBRANCH  13  14
ENDBRANCH   9  13
ENDBRANCH   1   7
BRANCH   3  21
HETATM   21  C   UNL     1      24.116  50.486  48.025  1.00  0.00     0.206 C 
BRANCH  21  22
HETATM   22  O   UNL     1      22.909  50.454  48.784  1.00  0.00    -0.381 OA
BRANCH  22  23
HETATM   23  C   UNL     1      21.731  50.474  47.972  1.00  0.00     0.121 C 
HETATM   24  C   UNL     1      21.115  49.071  47.893  1.00  0.00     0.032 C 
HETATM   25  C   UNL     1      20.597  48.589  49.249  1.00  0.00     0.002 C 
HETATM   26  C   UNL     1      19.620  49.585  49.866  1.00  0.00     0.000 C 
HETATM   27  C   UNL     1      20.227  50.982  49.960  1.00  0.00     0.002 C 
HETATM   28  C   UNL     1      20.744  51.462  48.604  1.00  0.00     0.032 C 
ENDBRANCH  22  23
ENDBRANCH  21  22
ENDBRANCH   3  21
TORSDOF 6
ENDMDL
MODEL 2
REMARK VINA RESULT:      -8.0      2.878      9.234
REMARK  6 active torsions:
REMARK  status: ('A' for Active; 'I' for Inactive)
REMARK    1  A    between atoms: C_7  and  C_8 
REMARK    2  A    between atoms: C_8  and  N_9 
REMARK       I    between atoms: N_9  and  C_10 
REMARK       I    between atoms: C_10  and  N_11 
REMARK    3  A    between atoms: N_11  and  C_12 
REMARK    4  A    between atoms: C_14  and  C_15 
REMARK    5  A    between atoms: C_15  and  O_16 
REMARK    6  A    between atoms: O_16  and  C_17 
ROOT
HETATM    1  C   UNL     1      24.713  47.216  49.892  1.00  0.00     0.036 A 
HETATM    2  C   UNL     1      25.439  47.421  51.070  1.00  0.00     0.038 A 
HETATM    3  C   UNL     1      25.506  46.419  52.057  1.00  0.00    -0.032 A 
HETATM    4  C   UNL     1      24.846  45.202  51.843  1.00  0.00     0.009 A 
HETATM    5  C   UNL     1      24.147  44.978  50.662  1.00  0.00     0.003 A 
HETATM    6  C   UNL     1      24.086  45.978  49.693  1.00  0.00     0.029 A 
ENDROOT
BRANCH   1   7
HETATM    7  N   UNL     1      24.591  48.147  48.845  1.00  0.00    -0.309 N 
HETATM    8  C   UNL     1      23.836  49.259  48.650  1.00  0.00     0.320 C 
HETATM    9  N   UNL     1      22.799  49.493  49.493  1.00  0.00    -0.339 N 
HETATM   10  O   UNL     1      24.094  49.988  47.694  1.00  0.00    -0.247 OA
HETATM   11  H   UNL     1      22.352  48.660  49.843  1.00  0.00     0.164 HD
HETATM   12  H   UNL     1      25.216  48.011  48.059  1.00  0.00     0.170 HD
BRANCH   9  13
HETATM   13  C   UNL     1      21.928  50.615  49.239  1.00  0.00     0.166 C 
BRANCH  13  14
HETATM   14  C   UNL     1      20.520  50.146  49.221  1.00  0.00     0.003 A 
HETATM   15  C   UNL     1      19.374  50.860  48.899  1.00  0.00     0.035 A 
HETATM   16  C   UNL     1      19.200  52.287  48.525  1.00  0.00     0.070 C 
HETATM   17  N   UNL     1      18.343  49.955  48.953  1.00  0.00    -0.278 N 
HETATM   18  C   UNL     1      16.953  50.159  48.622  1.00  0.00     0.179 C 
HETATM   19  N   UNL     1      18.733  48.728  49.344  1.00  0.00    -0.185 NA
HETATM   20  C   UNL     1      20.053  48.841  49.487  1.00  0.00     0.149 A 
ENDBRANCH  13  14
ENDBRANCH   9  13
ENDBRANCH   1   7
BRANCH   3  21
HETATM   21  C   UNL     1      26.248  46.653  53.349  1.00  0.00     0.206 C 
BRANCH  21  22
HETATM   22  O   UNL     1      27.265  45.664  53.490  1.00  0.00    -0.381 OA
BRANCH  22  23
HETATM   23  C   UNL     1      27.248  45.013  54.765  1.00  0.00     0.121 C 
HETATM   24  C   UNL     1      26.642  43.609  54.638  1.00  0.00     0.032 C 
HETATM   25  C   UNL     1      27.505  42.681  53.783  1.00  0.00     0.002 C 
HETATM   26  C   UNL     1      28.941  42.616  54.294  1.00  0.00     0.000 C 
HETATM   27  C   UNL     1      29.558  44.006  54.414  1.00  0.00     0.002 C 
HETATM   28  C   UNL     1      28.694  44.934  55.268  1.00  0.00     0.032 C 
ENDBRANCH  22  23
ENDBRANCH  21  22
ENDBRANCH   3  21
TORSDOF 6
ENDMDL
MODEL 3
REMARK VINA RESULT:      -7.9      3.418      9.178
REMARK  6 active torsions:
REMARK  status: ('A' for Active; 'I' for Inactive)
REMARK    1  A    between atoms: C_7  and  C_8 
REMARK    2  A    between atoms: C_8  and  N_9 
REMARK       I    between atoms: N_9  and  C_10 
REMARK       I    between atoms: C_10  and  N_11 
REMARK    3  A    between atoms: N_11  and  C_12 
REMARK    4  A    between atoms: C_14  and  C_15 
REMARK    5  A    between atoms: C_15  and  O_16 
REMARK    6  A    between atoms: O_16  and  C_17 
ROOT
HETATM    1  C   UNL     1      24.120  46.206  49.539  1.00  0.00     0.036 A 
HETATM    2  C   UNL     1      24.444  44.954  50.072  1.00  0.00     0.038 A 
HETATM    3  C   UNL     1      25.162  44.849  51.277  1.00  0.00    -0.032 A 
HETATM    4  C   UNL     1      25.542  46.017  51.953  1.00  0.00     0.009 A 
HETATM    5  C   UNL     1      25.197  47.266  51.447  1.00  0.00     0.003 A 
HETATM    6  C   UNL     1      24.488  47.357  50.250  1.00  0.00     0.029 A 
ENDROOT
BRANCH   1   7
HETATM    7  N   UNL     1      23.402  46.418  48.349  1.00  0.00    -0.309 N 
HETATM    8  C   UNL     1      22.126  46.787  48.066  1.00  0.00     0.320 C 
HETATM    9  N   UNL     1      21.210  46.769  49.067  1.00  0.00    -0.339 N 
HETATM   10  O   UNL     1      21.838  47.080  46.907  1.00  0.00    -0.247 OA
HETATM   11  H   UNL     1      21.365  46.052  49.760  1.00  0.00     0.164 HD
HETATM   12  H   UNL     1      23.931  46.320  47.490  1.00  0.00     0.170 HD
BRANCH   9  13
HETATM   13  C   UNL     1      19.830  47.060  48.761  1.00  0.00     0.166 C 
BRANCH  13  14
HETATM   14  C   UNL     1      19.446  48.339  49.408  1.00  0.00     0.003 A 
HETATM   15  C   UNL     1      19.625  49.634  48.940  1.00  0.00     0.035 A 
HETATM   16  C   UNL     1      20.275  50.130  47.700  1.00  0.00     0.070 C 
HETATM   17  N   UNL     1      19.025  50.451  49.865  1.00  0.00    -0.278 N 
HETATM   18  C   UNL     1      18.849  51.883  49.816  1.00  0.00     0.179 C 
HETATM   19  N   UNL     1      18.528  49.782  50.922  1.00  0.00    -0.185 NA
HETATM   20  C   UNL     1      18.767  48.504  50.635  1.00  0.00     0.149 A 
ENDBRANCH  13  14
ENDBRANCH   9  13
ENDBRANCH   1   7
BRANCH   3  21
HETATM   21  C   UNL     1      25.555  43.502  51.831  1.00  0.00     0.206 C 
BRANCH  21  22
HETATM   22  O   UNL     1      26.880  43.580  52.353  1.00  0.00    -0.381 OA
BRANCH  22  23
HETATM   23  C   UNL     1      27.029  42.923  53.615  1.00  0.00     0.121 C 
HETATM   24  C   UNL     1      28.066  41.797  53.509  1.00  0.00     0.032 C 
HETATM   25  C   UNL     1      29.471  42.327  53.223  1.00  0.00     0.002 C 
HETATM   26  C   UNL     1      29.899  43.373  54.247  1.00  0.00     0.000 C 
HETATM   27  C   UNL     1      28.881  44.505  54.353  1.00  0.00     0.002 C 
HETATM   28  C   UNL     1      27.476  43.972  54.639  1.00  0.00     0.032 C 
ENDBRANCH  22  23
ENDBRANCH  21  22
ENDBRANCH   3  21
TORSDOF 6
ENDMDL
MODEL 4
REMARK VINA RESULT:      -7.8      3.149      8.819
REMARK  6 active torsions:
REMARK  status: ('A' for Active; 'I' for Inactive)
REMARK    1  A    between atoms: C_7  and  C_8 
REMARK    2  A    between atoms: C_8  and  N_9 
REMARK       I    between atoms: N_9  and  C_10 
REMARK       I    between atoms: C_10  and  N_11 
REMARK    3  A    between atoms: N_11  and  C_12 
REMARK    4  A    between atoms: C_14  and  C_15 
REMARK    5  A    between atoms: C_15  and  O_16 
REMARK    6  A    between atoms: O_16  and  C_17 
ROOT
HETATM    1  C   UNL     1      24.357  48.293  49.171  1.00  0.00     0.036 A 
HETATM    2  C   UNL     1      24.030  47.183  49.956  1.00  0.00     0.038 A 
HETATM    3  C   UNL     1      25.017  46.513  50.703  1.00  0.00    -0.032 A 
HETATM    4  C   UNL     1      26.339  46.977  50.663  1.00  0.00     0.009 A 
HETATM    5  C   UNL     1      26.668  48.099  49.909  1.00  0.00     0.003 A 
HETATM    6  C   UNL     1      25.681  48.753  49.172  1.00  0.00     0.029 A 
ENDROOT
BRANCH   1   7
HETATM    7  N   UNL     1      23.446  49.033  48.397  1.00  0.00    -0.309 N 
HETATM    8  C   UNL     1      22.488  49.952  48.685  1.00  0.00     0.320 C 
HETATM    9  N   UNL     1      22.105  50.105  49.977  1.00  0.00    -0.339 N 
HETATM   10  O   UNL     1      21.974  50.578  47.760  1.00  0.00    -0.247 OA
HETATM   11  H   UNL     1      22.146  49.260  50.525  1.00  0.00     0.164 HD
HETATM   12  H   UNL     1      23.515  48.909  47.394  1.00  0.00     0.170 HD
BRANCH   9  13
HETATM   13  C   UNL     1      21.019  51.003  50.285  1.00  0.00     0.166 C 
BRANCH  13  14
HETATM   14  C   UNL     1      19.734  50.363  49.911  1.00  0.00     0.003 A 
HETATM   15  C   UNL     1      18.701  50.880  49.141  1.00  0.00     0.035 A 
HETATM   16  C   UNL     1      18.546  52.213  48.505  1.00  0.00     0.070 C 
HETATM   17  N   UNL     1      17.782  49.867  49.020  1.00  0.00    -0.278 N 
HETATM   18  C   UNL     1      16.562  49.850  48.249  1.00  0.00     0.179 C 
HETATM   19  N   UNL     1      18.120  48.759  49.706  1.00  0.00    -0.185 NA
HETATM   20  C   UNL     1      19.309  49.054  50.228  1.00  0.00     0.149 A 
ENDBRANCH  13  14
ENDBRANCH   9  13
ENDBRANCH   1   7
BRANCH   3  21
HETATM   21  C   UNL     1      24.679  45.286  51.513  1.00  0.00     0.206 C 
BRANCH  21  22
HETATM   22  O   UNL     1      25.877  44.748  52.069  1.00  0.00    -0.381 OA
BRANCH  22  23
HETATM   23  C   UNL     1      25.745  44.382  53.446  1.00  0.00     0.121 C 
HETATM   24  C   UNL     1      26.945  43.533  53.888  1.00  0.00     0.032 C 
HETATM   25  C   UNL     1      28.255  44.322  53.859  1.00  0.00     0.002 C 
HETATM   26  C   UNL     1      28.158  45.605  54.678  1.00  0.00     0.000 C 
HETATM   27  C   UNL     1      26.975  46.463  54.239  1.00  0.00     0.002 C 
HETATM   28  C   UNL     1      25.666  45.673  54.268  1.00  0.00     0.032 C 
ENDBRANCH  22  23
ENDBRANCH  21  22
ENDBRANCH   3  21
TORSDOF 6
ENDMDL
MODEL 5
REMARK VINA RESULT:      -7.6      1.854      2.576
REMARK  6 active torsions:
REMARK  status: ('A' for Active; 'I' for Inactive)
REMARK    1  A    between atoms: C_7  and  C_8 
REMARK    2  A    between atoms: C_8  and  N_9 
REMARK       I    between atoms: N_9  and  C_10 
REMARK       I    between atoms: C_10  and  N_11 
REMARK    3  A    between atoms: N_11  and  C_12 
REMARK    4  A    between atoms: C_14  and  C_15 
REMARK    5  A    between atoms: C_15  and  O_16 
REMARK    6  A    between atoms: O_16  and  C_17 
ROOT
HETATM    1  C   UNL     1      25.805  45.476  49.608  1.00  0.00     0.036 A 
HETATM    2  C   UNL     1      24.470  45.557  49.200  1.00  0.00     0.038 A 
HETATM    3  C   UNL     1      23.802  46.796  49.167  1.00  0.00    -0.032 A 
HETATM    4  C   UNL     1      24.494  47.958  49.535  1.00  0.00     0.009 A 
HETATM    5  C   UNL     1      25.832  47.890  49.913  1.00  0.00     0.003 A 
HETATM    6  C   UNL     1      26.481  46.657  49.944  1.00  0.00     0.029 A 
ENDROOT
BRANCH   1   7
HETATM    7  N   UNL     1      26.562  44.292  49.669  1.00  0.00    -0.309 N 
HETATM    8  C   UNL     1      26.989  43.493  50.681  1.00  0.00     0.320 C 
HETATM    9  N   UNL     1      26.901  43.956  51.953  1.00  0.00    -0.339 N 
HETATM   10  O   UNL     1      27.480  42.400  50.404  1.00  0.00    -0.247 OA
HETATM   11  H   UNL     1      27.017  44.954  52.041  1.00  0.00     0.164 HD
HETATM   12  H   UNL     1      26.834  43.896  48.777  1.00  0.00     0.170 HD
BRANCH   9  13
HETATM   13  C   UNL     1      27.443  43.161  53.028  1.00  0.00     0.166 C 
BRANCH  13  14
HETATM   14  C   UNL     1      27.965  44.062  54.085  1.00  0.00     0.003 A 
HETATM   15  C   UNL     1      29.219  44.062  54.681  1.00  0.00     0.035 A 
HETATM   16  C   UNL     1      30.382  43.159  54.481  1.00  0.00     0.070 C 
HETATM   17  N   UNL     1      29.229  45.140  55.531  1.00  0.00    -0.278 N 
HETATM   18  C   UNL     1      30.321  45.643  56.329  1.00  0.00     0.179 C 
HETATM   19  N   UNL     1      28.054  45.796  55.571  1.00  0.00    -0.185 NA
HETATM   20  C   UNL     1      27.298  45.154  54.682  1.00  0.00     0.149 A 
ENDBRANCH  13  14
ENDBRANCH   9  13
ENDBRANCH   1   7
BRANCH   3  21
HETATM   21  C   UNL     1      22.349  46.883  48.774  1.00  0.00     0.206 C 
BRANCH  21  22
HETATM   22  O   UNL     1      21.850  48.175  49.113  1.00  0.00    -0.381 OA
BRANCH  22  23
HETATM   23  C   UNL     1      21.028  48.749  48.091  1.00  0.00     0.121 C 
HETATM   24  C   UNL     1      19.619  49.024  48.633  1.00  0.00     0.032 C 
HETATM   25  C   UNL     1      19.617  50.094  49.726  1.00  0.00     0.002 C 
HETATM   26  C   UNL     1      20.286  51.382  49.256  1.00  0.00     0.000 C 
HETATM   27  C   UNL     1      21.693  51.122  48.725  1.00  0.00     0.002 C 
HETATM   28  C   UNL     1      21.693  50.052  47.633  1.00  0.00     0.032 C 
ENDBRANCH  22  23
ENDBRANCH  21  22
ENDBRANCH   3  21
TORSDOF 6
ENDMDL
MODEL 6
REMARK VINA RESULT:      -7.6      3.311      9.271
REMARK  6 active torsions:
REMARK  status: ('A' for Active; 'I' for Inactive)
REMARK    1  A    between atoms: C_7  and  C_8 
REMARK    2  A    between atoms: C_8  and  N_9 
REMARK       I    between atoms: N_9  and  C_10 
REMARK       I    between atoms: C_10  and  N_11 
REMARK    3  A    between atoms: N_11  and  C_12 
REMARK    4  A    between atoms: C_14  and  C_15 
REMARK    5  A    between atoms: C_15  and  O_16 
REMARK    6  A    between atoms: O_16  and  C_17 
ROOT
HETATM    1  C   UNL     1      27.065  42.448  51.707  1.00  0.00     0.036 A 
HETATM    2  C   UNL     1      27.193  43.610  52.475  1.00  0.00     0.038 A 
HETATM    3  C   UNL     1      27.918  43.599  53.681  1.00  0.00    -0.032 A 
HETATM    4  C   UNL     1      28.526  42.409  54.105  1.00  0.00     0.009 A 
HETATM    5  C   UNL     1      28.429  41.256  53.333  1.00  0.00     0.003 A 
HETATM    6  C   UNL     1      27.706  41.280  52.141  1.00  0.00     0.029 A 
ENDROOT
BRANCH   1   7
HETATM    7  N   UNL     1      26.371  42.356  50.488  1.00  0.00    -0.309 N 
HETATM    8  C   UNL     1      25.422  43.114  49.879  1.00  0.00     0.320 C 
HETATM    9  N   UNL     1      24.791  44.069  50.608  1.00  0.00    -0.339 N 
HETATM   10  O   UNL     1      25.141  42.879  48.705  1.00  0.00    -0.247 OA
HETATM   11  H   UNL     1      24.675  43.839  51.583  1.00  0.00     0.164 HD
HETATM   12  H   UNL     1      26.638  41.587  49.885  1.00  0.00     0.170 HD
BRANCH   9  13
HETATM   13  C   UNL     1      23.712  44.813  50.004  1.00  0.00     0.166 C 
BRANCH  13  14
HETATM   14  C   UNL     1      24.145  46.217  49.794  1.00  0.00     0.003 A 
HETATM   15  C   UNL     1      23.523  47.212  49.053  1.00  0.00     0.035 A 
HETATM   16  C   UNL     1      22.288  47.172  48.228  1.00  0.00     0.070 C 
HETATM   17  N   UNL     1      24.274  48.345  49.246  1.00  0.00    -0.278 N 
HETATM   18  C   UNL     1      24.017  49.683  48.769  1.00  0.00     0.179 C 
HETATM   19  N   UNL     1      25.365  48.136  50.006  1.00  0.00    -0.185 NA
HETATM   20  C   UNL     1      25.274  46.853  50.352  1.00  0.00     0.149 A 
ENDBRANCH  13  14
ENDBRANCH   9  13
ENDBRANCH   1   7
BRANCH   3  21
HETATM   21  C   UNL     1      28.019  44.838  54.537  1.00  0.00     0.206 C 
BRANCH  21  22
HETATM   22  O   UNL     1      28.828  44.553  55.677  1.00  0.00    -0.381 OA
BRANCH  22  23
HETATM   23  C   UNL     1      30.068  45.266  55.682  1.00  0.00     0.121 C 
HETATM   24  C   UNL     1      30.136  46.208  56.891  1.00  0.00     0.032 C 
HETATM   25  C   UNL     1      30.165  45.448  58.217  1.00  0.00     0.002 C 
HETATM   26  C   UNL     1      31.293  44.422  58.255  1.00  0.00     0.000 C 
HETATM   27  C   UNL     1      31.229  43.472  57.063  1.00  0.00     0.002 C 
HETATM   28  C   UNL     1      31.200  44.234  55.738  1.00  0.00     0.032 C 
ENDBRANCH  22  23
ENDBRANCH  21  22
ENDBRANCH   3  21
TORSDOF 6
ENDMDL
MODEL 7
REMARK VINA RESULT:      -7.6      2.910      9.374
REMARK  6 active torsions:
REMARK  status: ('A' for Active; 'I' for Inactive)
REMARK    1  A    between atoms: C_7  and  C_8 
REMARK    2  A    between atoms: C_8  and  N_9 
REMARK       I    between atoms: N_9  and  C_10 
REMARK       I    between atoms: C_10  and  N_11 
REMARK    3  A    between atoms: N_11  and  C_12 
REMARK    4  A    between atoms: C_14  and  C_15 
REMARK    5  A    between atoms: C_15  and  O_16 
REMARK    6  A    between atoms: O_16  and  C_17 
ROOT
HETATM    1  C   UNL     1      25.492  44.022  52.327  1.00  0.00     0.036 A 
HETATM    2  C   UNL     1      26.717  43.459  52.699  1.00  0.00     0.038 A 
HETATM    3  C   UNL     1      27.523  44.069  53.679  1.00  0.00    -0.032 A 
HETATM    4  C   UNL     1      27.079  45.248  54.293  1.00  0.00     0.009 A 
HETATM    5  C   UNL     1      25.847  45.799  53.952  1.00  0.00     0.003 A 
HETATM    6  C   UNL     1      25.060  45.186  52.979  1.00  0.00     0.029 A 
ENDROOT
BRANCH   1   7
HETATM    7  N   UNL     1      24.614  43.488  51.368  1.00  0.00    -0.309 N 
HETATM    8  C   UNL     1      23.966  43.998  50.289  1.00  0.00     0.320 C 
HETATM    9  N   UNL     1      23.924  45.345  50.137  1.00  0.00    -0.339 N 
HETATM   10  O   UNL     1      23.406  43.224  49.515  1.00  0.00    -0.247 OA
HETATM   11  H   UNL     1      23.903  45.861  51.004  1.00  0.00     0.164 HD
HETATM   12  H   UNL     1      24.428  42.494  51.445  1.00  0.00     0.170 HD
BRANCH   9  13
HETATM   13  C   UNL     1      23.155  45.906  49.052  1.00  0.00     0.166 C 
BRANCH  13  14
HETATM   14  C   UNL     1      23.210  47.386  49.129  1.00  0.00     0.003 A 
HETATM   15  C   UNL     1      22.170  48.298  49.011  1.00  0.00     0.035 A 
HETATM   16  C   UNL     1      20.726  48.085  48.737  1.00  0.00     0.070 C 
HETATM   17  N   UNL     1      22.728  49.532  49.240  1.00  0.00    -0.278 N 
HETATM   18  C   UNL     1      22.068  50.813  49.321  1.00  0.00     0.179 C 
HETATM   19  N   UNL     1      24.059  49.485  49.437  1.00  0.00    -0.185 NA
HETATM   20  C   UNL     1      24.345  48.185  49.387  1.00  0.00     0.149 A 
ENDBRANCH  13  14
ENDBRANCH   9  13
ENDBRANCH   1   7
BRANCH   3  21
HETATM   21  C   UNL     1      28.866  43.492  54.048  1.00  0.00     0.206 C 
BRANCH  21  22
HETATM   22  O   UNL     1      29.221  43.934  55.357  1.00  0.00    -0.381 OA
BRANCH  22  23
HETATM   23  C   UNL     1      30.430  44.699  55.387  1.00  0.00     0.121 C 
HETATM   24  C   UNL     1      30.235  45.970  56.223  1.00  0.00     0.032 C 
HETATM   25  C   UNL     1      29.981  45.661  57.699  1.00  0.00     0.002 C 
HETATM   26  C   UNL     1      31.077  44.778  58.287  1.00  0.00     0.000 C 
HETATM   27  C   UNL     1      31.272  43.505  57.470  1.00  0.00     0.002 C 
HETATM   28  C   UNL     1      31.526  43.816  55.995  1.00  0.00     0.032 C 
ENDBRANCH  22  23
ENDBRANCH  21  22
ENDBRANCH   3  21
TORSDOF 6
ENDMDL
MODEL 8
REMARK VINA RESULT:      -7.6      3.780      8.774
REMARK  6 active torsions:
REMARK  status: ('A' for Active; 'I' for Inactive)
REMARK    1  A    between atoms: C_7  and  C_8 
REMARK    2  A    between atoms: C_8  and  N_9 
REMARK       I    between atoms: N_9  and  C_10 
REMARK       I    between atoms: C_10  and  N_11 
REMARK    3  A    between atoms: N_11  and  C_12 
REMARK    4  A    between atoms: C_14  and  C_15 
REMARK    5  A    between atoms: C_15  and  O_16 
REMARK    6  A    between atoms: O_16  and  C_17 
ROOT
HETATM    1  C   UNL     1      23.375  45.479  49.130  1.00  0.00     0.036 A 
HETATM    2  C   UNL     1      24.080  46.352  49.965  1.00  0.00     0.038 A 
HETATM    3  C   UNL     1      24.798  45.866  51.074  1.00  0.00    -0.032 A 
HETATM    4  C   UNL     1      24.813  44.488  51.329  1.00  0.00     0.009 A 
HETATM    5  C   UNL     1      24.140  43.609  50.487  1.00  0.00     0.003 A 
HETATM    6  C   UNL     1      23.430  44.103  49.394  1.00  0.00     0.029 A 
ENDROOT
BRANCH   1   7
HETATM    7  N   UNL     1      22.636  45.863  47.998  1.00  0.00    -0.309 N 
HETATM    8  C   UNL     1      21.415  46.428  47.811  1.00  0.00     0.320 C 
HETATM    9  N   UNL     1      20.559  46.482  48.862  1.00  0.00    -0.339 N 
HETATM   10  O   UNL     1      21.115  46.829  46.687  1.00  0.00    -0.247 OA
HETATM   11  H   UNL     1      20.643  45.710  49.506  1.00  0.00     0.164 HD
HETATM   12  H   UNL     1      23.100  45.741  47.105  1.00  0.00     0.170 HD
BRANCH   9  13
HETATM   13  C   UNL     1      19.223  46.986  48.654  1.00  0.00     0.166 C 
BRANCH  13  14
HETATM   14  C   UNL     1      19.080  48.289  49.350  1.00  0.00     0.003 A 
HETATM   15  C   UNL     1      19.248  49.568  48.836  1.00  0.00     0.035 A 
HETATM   16  C   UNL     1      19.654  50.017  47.480  1.00  0.00     0.070 C 
HETATM   17  N   UNL     1      18.920  50.426  49.857  1.00  0.00    -0.278 N 
HETATM   18  C   UNL     1      18.842  51.867  49.826  1.00  0.00     0.179 C 
HETATM   19  N   UNL     1      18.612  49.794  51.004  1.00  0.00    -0.185 NA
HETATM   20  C   UNL     1      18.691  48.502  50.690  1.00  0.00     0.149 A 
ENDBRANCH  13  14
ENDBRANCH   9  13
ENDBRANCH   1   7
BRANCH   3  21
HETATM   21  C   UNL     1      25.520  46.808  52.004  1.00  0.00     0.206 C 
BRANCH  21  22
HETATM   22  O   UNL     1      26.483  46.073  52.758  1.00  0.00    -0.381 OA
BRANCH  22  23
HETATM   23  C   UNL     1      26.153  45.968  54.146  1.00  0.00     0.121 C 
HETATM   24  C   UNL     1      26.957  44.838  54.801  1.00  0.00     0.032 C 
HETATM   25  C   UNL     1      28.458  45.130  54.820  1.00  0.00     0.002 C 
HETATM   26  C   UNL     1      28.763  46.473  55.476  1.00  0.00     0.000 C 
HETATM   27  C   UNL     1      27.977  47.607  54.825  1.00  0.00     0.002 C 
HETATM   28  C   UNL     1      26.477  47.313  54.807  1.00  0.00     0.032 C 
ENDBRANCH  22  23
ENDBRANCH  21  22
ENDBRANCH   3  21
TORSDOF 6
ENDMDL
MODEL 9
REMARK VINA RESULT:      -7.5     11.445     12.988
REMARK  6 active torsions:
REMARK  status: ('A' for Active; 'I' for Inactive)
REMARK    1  A    between atoms: C_7  and  C_8 
REMARK    2  A    between atoms: C_8  and  N_9 
REMARK       I    between atoms: N_9  and  C_10 
REMARK       I    between atoms: C_10  and  N_11 
REMARK    3  A    between atoms: N_11  and  C_12 
REMARK    4  A    between atoms: C_14  and  C_15 
REMARK    5  A    between atoms: C_15  and  O_16 
REMARK    6  A    between atoms: O_16  and  C_17 
ROOT
HETATM    1  C   UNL     1      30.244  47.668  39.849  1.00  0.00     0.036 A 
HETATM    2  C   UNL     1      29.598  48.835  40.268  1.00  0.00     0.038 A 
HETATM    3  C   UNL     1      28.455  49.307  39.596  1.00  0.00    -0.032 A 
HETATM    4  C   UNL     1      27.957  48.585  38.502  1.00  0.00     0.009 A 
HETATM    5  C   UNL     1      28.575  47.406  38.097  1.00  0.00     0.003 A 
HETATM    6  C   UNL     1      29.707  46.951  38.770  1.00  0.00     0.029 A 
ENDROOT
BRANCH   1   7
HETATM    7  N   UNL     1      31.383  47.111  40.456  1.00  0.00    -0.309 N 
HETATM    8  C   UNL     1      32.544  47.624  40.940  1.00  0.00     0.320 C 
HETATM    9  N   UNL     1      32.861  48.907  40.636  1.00  0.00    -0.339 N 
HETATM   10  O   UNL     1      33.283  46.895  41.600  1.00  0.00    -0.247 OA
HETATM   11  H   UNL     1      32.538  49.212  39.730  1.00  0.00     0.164 HD
HETATM   12  H   UNL     1      31.353  46.111  40.619  1.00  0.00     0.170 HD
BRANCH   9  13
HETATM   13  C   UNL     1      34.136  49.434  41.058  1.00  0.00     0.166 C 
BRANCH  13  14
HETATM   14  C   UNL     1      33.919  50.435  42.132  1.00  0.00     0.003 A 
HETATM   15  C   UNL     1      32.788  50.637  42.911  1.00  0.00     0.035 A 
HETATM   16  C   UNL     1      31.465  49.963  42.883  1.00  0.00     0.070 C 
HETATM   17  N   UNL     1      33.124  51.620  43.809  1.00  0.00    -0.278 N 
HETATM   18  C   UNL     1      32.337  52.145  44.899  1.00  0.00     0.179 C 
HETATM   19  N   UNL     1      34.366  52.105  43.626  1.00  0.00    -0.185 NA
HETATM   20  C   UNL     1      34.851  51.374  42.624  1.00  0.00     0.149 A 
ENDBRANCH  13  14
ENDBRANCH   9  13
ENDBRANCH   1   7
BRANCH   3  21
HETATM   21  C   UNL     1      27.783  50.591  40.014  1.00  0.00     0.206 C 
BRANCH  21  22
HETATM   22  O   UNL     1      28.765  51.482  40.540  1.00  0.00    -0.381 OA
BRANCH  22  23
HETATM   23  C   UNL     1      29.042  52.589  39.677  1.00  0.00     0.121 C 
HETATM   24  C   UNL     1      29.650  53.748  40.479  1.00  0.00     0.032 C 
HETATM   25  C   UNL     1      31.024  53.399  41.052  1.00  0.00     0.002 C 
HETATM   26  C   UNL     1      31.982  52.918  39.967  1.00  0.00     0.000 C 
HETATM   27  C   UNL     1      31.393  51.758  39.170  1.00  0.00     0.002 C 
HETATM   28  C   UNL     1      30.019  52.109  38.598  1.00  0.00     0.032 C 
ENDBRANCH  22  23
ENDBRANCH  21  22
ENDBRANCH   3  21
TORSDOF 6
ENDMDL
MODEL 10
REMARK VINA RESULT:      -7.4      3.269      8.843
REMARK  6 active torsions:
REMARK  status: ('A' for Active; 'I' for Inactive)
REMARK    1  A    between atoms: C_7  and  C_8 
REMARK    2  A    between atoms: C_8  and  N_9 
REMARK       I    between atoms: N_9  and  C_10 
REMARK       I    between atoms: C_10  and  N_11 
REMARK    3  A    between atoms: N_11  and  C_12 
REMARK    4  A    between atoms: C_14  and  C_15 
REMARK    5  A    between atoms: C_15  and  O_16 
REMARK    6  A    between atoms: O_16  and  C_17 
ROOT
HETATM    1  C   UNL     1      25.758  42.290  51.240  1.00  0.00     0.036 A 
HETATM    2  C   UNL     1      26.837  42.951  51.835  1.00  0.00     0.038 A 
HETATM    3  C   UNL     1      28.141  42.431  51.738  1.00  0.00    -0.032 A 
HETATM    4  C   UNL     1      28.354  41.243  51.025  1.00  0.00     0.009 A 
HETATM    5  C   UNL     1      27.291  40.596  50.404  1.00  0.00     0.003 A 
HETATM    6  C   UNL     1      26.004  41.120  50.509  1.00  0.00     0.029 A 
ENDROOT
BRANCH   1   7
HETATM    7  N   UNL     1      24.422  42.730  51.271  1.00  0.00    -0.309 N 
HETATM    8  C   UNL     1      23.640  43.444  50.421  1.00  0.00     0.320 C 
HETATM    9  N   UNL     1      24.233  44.096  49.390  1.00  0.00    -0.339 N 
HETATM   10  O   UNL     1      22.432  43.507  50.642  1.00  0.00    -0.247 OA
HETATM   11  H   UNL     1      25.163  44.432  49.590  1.00  0.00     0.164 HD
HETATM   12  H   UNL     1      23.880  42.436  52.075  1.00  0.00     0.170 HD
BRANCH   9  13
HETATM   13  C   UNL     1      23.429  44.939  48.538  1.00  0.00     0.166 C 
BRANCH  13  14
HETATM   14  C   UNL     1      23.549  46.347  48.992  1.00  0.00     0.003 A 
HETATM   15  C   UNL     1      22.794  47.447  48.608  1.00  0.00     0.035 A 
HETATM   16  C   UNL     1      21.690  47.563  47.620  1.00  0.00     0.070 C 
HETATM   17  N   UNL     1      23.243  48.493  49.375  1.00  0.00    -0.278 N 
HETATM   18  C   UNL     1      22.736  49.844  49.434  1.00  0.00     0.179 C 
HETATM   19  N   UNL     1      24.270  48.161  50.179  1.00  0.00    -0.185 NA
HETATM   20  C   UNL     1      24.440  46.858  49.959  1.00  0.00     0.149 A 
ENDBRANCH  13  14
ENDBRANCH   9  13
ENDBRANCH   1   7
BRANCH   3  21
HETATM   21  C   UNL     1      29.301  43.114  52.419  1.00  0.00     0.206 C 
BRANCH  21  22
HETATM   22  O   UNL     1      28.804  44.160  53.252  1.00  0.00    -0.381 OA
BRANCH  22  23
HETATM   23  C   UNL     1      28.521  43.732  54.588  1.00  0.00     0.121 C 
HETATM   24  C   UNL     1      29.766  43.089  55.215  1.00  0.00     0.032 C 
HETATM   25  C   UNL     1      30.905  44.092  55.402  1.00  0.00     0.002 C 
HETATM   26  C   UNL     1      30.456  45.313  56.199  1.00  0.00     0.000 C 
HETATM   27  C   UNL     1      29.226  45.968  55.578  1.00  0.00     0.002 C 
HETATM   28  C   UNL     1      28.088  44.964  55.391  1.00  0.00     0.032 C 
ENDBRANCH  22  23
ENDBRANCH  21  22
ENDBRANCH   3  21
TORSDOF 6
ENDMDL
