MODEL 1
REMARK VINA RESULT:     -11.0      0.000      0.000
REMARK  8 active torsions:
REMARK  status: ('A' for Active; 'I' for Inactive)
REMARK    1  A    between atoms: C_4  and  S_5 
REMARK    2  A    between atoms: S_5  and  C_6 
REMARK    3  A    between atoms: C_6  and  C_7 
REMARK       I    between atoms: C_7  and  N_8 
REMARK    4  A    between atoms: N_8  and  C_9 
REMARK    5  A    between atoms: C_20  and  C_21 
REMARK    6  A    between atoms: C_27  and  C_28 
REMARK       I    between atoms: C_28  and  N_29 
REMARK    7  A    between atoms: N_29  and  C_30 
REMARK    8  A    between atoms: C_31  and  O_32 
ROOT
HETATM    1  C   UNL     1      22.329  44.810  47.977  1.00  0.00     0.069 C 
HETATM    2  C   UNL     1      23.186  45.457  49.039  1.00  0.00     0.019 C 
HETATM    3  N   UNL     1      23.995  44.592  49.760  1.00  0.00    -0.353 N 
HETATM    4  C   UNL     1      24.705  44.929  50.895  1.00  0.00     0.087 C 
HETATM    5  C   UNL     1      24.771  46.233  51.255  1.00  0.00     0.055 C 
HETATM    6  C   UNL     1      25.393  46.665  52.573  1.00  0.00     0.019 C 
HETATM    7  N   UNL     1      25.908  47.023  53.668  1.00  0.00    -0.096 N 
HETATM    8  C   UNL     1      24.235  47.319  50.325  1.00  0.00     0.104 C 
HETATM    9  C   UNL     1      23.242  46.791  49.288  1.00  0.00     0.046 C 
HETATM   10  H   UNL     1      23.937  43.599  49.553  1.00  0.00     0.166 HD
ENDROOT
BRANCH   4  11
HETATM   11  S   UNL     1      25.626  43.696  51.723  1.00  0.00    -0.102 SA
BRANCH  11  12
HETATM   12  C   UNL     1      27.318  43.959  51.103  1.00  0.00     0.184 C 
BRANCH  12  13
HETATM   13  C   UNL     1      28.391  43.670  52.163  1.00  0.00     0.231 C 
HETATM   14  N   UNL     1      28.345  44.482  53.280  1.00  0.00    -0.327 N 
HETATM   15  H   UNL     1      27.602  45.175  53.272  1.00  0.00     0.169 HD
HETATM   16  O   UNL     1      29.225  42.790  51.956  1.00  0.00    -0.272 OA
BRANCH  14  17
HETATM   17  C   UNL     1      29.151  44.453  54.432  1.00  0.00     0.034 A 
HETATM   18  C   UNL     1      30.041  43.423  54.741  1.00  0.00     0.031 A 
HETATM   19  C   UNL     1      30.795  43.469  55.919  1.00  0.00     0.026 A 
HETATM   20  C   UNL     1      30.665  44.548  56.790  1.00  0.00     0.034 A 
HETATM   21 CL   UNL     1      31.593  44.605  58.236  1.00  0.00    -0.084 Cl
HETATM   22  C   UNL     1      29.782  45.584  56.494  1.00  0.00     0.026 A 
HETATM   23  C   UNL     1      29.027  45.534  55.319  1.00  0.00     0.031 A 
ENDBRANCH  14  17
ENDBRANCH  12  13
ENDBRANCH  11  12
ENDBRANCH   4  11
BRANCH   8  24
HETATM   24  C   UNL     1      25.439  48.022  49.675  1.00  0.00    -0.044 A 
HETATM   25  C   UNL     1      26.745  47.509  49.809  1.00  0.00     0.008 A 
HETATM   26  C   UNL     1      27.839  48.184  49.267  1.00  0.00     0.001 A 
HETATM   27  C   UNL     1      27.650  49.388  48.595  1.00  0.00     0.000 A 
HETATM   28  C   UNL     1      26.367  49.916  48.464  1.00  0.00     0.001 A 
HETATM   29  C   UNL     1      25.267  49.241  49.000  1.00  0.00     0.008 A 
ENDBRANCH   8  24
BRANCH   9  30
HETATM   30  C   UNL     1      22.305  47.729  48.580  1.00  0.00     0.255 C 
HETATM   31  N   UNL     1      21.344  48.328  49.368  1.00  0.00    -0.321 N 
HETATM   32  H   UNL     1      21.098  47.921  50.255  1.00  0.00     0.169 HD
HETATM   33  O   UNL     1      22.353  47.831  47.356  1.00  0.00    -0.268 OA
BRANCH  31  34
HETATM   34  C   UNL     1      20.510  49.385  48.931  1.00  0.00     0.068 A 
HETATM   35  C   UNL     1      19.191  49.189  48.473  1.00  0.00     0.095 A 
HETATM   36  C   UNL     1      18.430  50.304  48.100  1.00  0.00     0.039 A 
HETATM   37  C   UNL     1      18.982  51.588  48.143  1.00  0.00     0.003 A 
HETATM   38  C   UNL     1      20.306  51.768  48.534  1.00  0.00     0.002 A 
HETATM   39  C   UNL     1      21.074  50.667  48.911  1.00  0.00     0.032 A 
BRANCH  35  40
HETATM   40  O   UNL     1      18.777  47.891  48.313  1.00  0.00    -0.354 OA
HETATM   41  C   UNL     1      17.425  47.584  48.611  1.00  0.00     0.210 C 
ENDBRANCH  35  40
ENDBRANCH  31  34
ENDBRANCH   9  30
TORSDOF 8
ENDMDL
MODEL 2
REMARK VINA RESULT:     -10.9      1.800      2.369
REMARK  8 active torsions:
REMARK  status: ('A' for Active; 'I' for Inactive)
REMARK    1  A    between atoms: C_4  and  S_5 
REMARK    2  A    between atoms: S_5  and  C_6 
REMARK    3  A    between atoms: C_6  and  C_7 
REMARK       I    between atoms: C_7  and  N_8 
REMARK    4  A    between atoms: N_8  and  C_9 
REMARK    5  A    between atoms: C_20  and  C_21 
REMARK    6  A    between atoms: C_27  and  C_28 
REMARK       I    between atoms: C_28  and  N_29 
REMARK    7  A    between atoms: N_29  and  C_30 
REMARK    8  A    between atoms: C_31  and  O_32 
ROOT
HETATM    1  C   UNL     1      23.462  43.889  47.329  1.00  0.00     0.069 C 
HETATM    2  C   UNL     1      23.992  44.785  48.425  1.00  0.00     0.019 C 
HETATM    3  N   UNL     1      25.195  44.389  48.988  1.00  0.00    -0.353 N 
HETATM    4  C   UNL     1      25.759  44.937  50.122  1.00  0.00     0.087 C 
HETATM    5  C   UNL     1      25.207  46.058  50.644  1.00  0.00     0.055 C 
HETATM    6  C   UNL     1      25.667  46.627  51.977  1.00  0.00     0.019 C 
HETATM    7  N   UNL     1      26.049  47.099  53.082  1.00  0.00    -0.096 N 
HETATM    8  C   UNL     1      24.106  46.801  49.889  1.00  0.00     0.104 C 
HETATM    9  C   UNL     1      23.404  45.936  48.840  1.00  0.00     0.046 C 
HETATM   10  H   UNL     1      25.616  43.525  48.658  1.00  0.00     0.166 HD
ENDROOT
BRANCH   4  11
HETATM   11  S   UNL     1      27.253  44.272  50.740  1.00  0.00    -0.102 SA
BRANCH  11  12
HETATM   12  C   UNL     1      26.686  43.094  52.008  1.00  0.00     0.184 C 
BRANCH  12  13
HETATM   13  C   UNL     1      27.086  43.514  53.430  1.00  0.00     0.231 C 
HETATM   14  N   UNL     1      28.385  43.966  53.564  1.00  0.00    -0.327 N 
HETATM   15  H   UNL     1      28.925  43.971  52.703  1.00  0.00     0.169 HD
HETATM   16  O   UNL     1      26.275  43.397  54.346  1.00  0.00    -0.272 OA
BRANCH  14  17
HETATM   17  C   UNL     1      29.042  44.452  54.708  1.00  0.00     0.034 A 
HETATM   18  C   UNL     1      30.181  43.869  55.265  1.00  0.00     0.031 A 
HETATM   19  C   UNL     1      30.762  44.412  56.418  1.00  0.00     0.026 A 
HETATM   20  C   UNL     1      30.207  45.541  57.014  1.00  0.00     0.034 A 
HETATM   21 CL   UNL     1      30.922  46.208  58.428  1.00  0.00    -0.084 Cl
HETATM   22  C   UNL     1      29.071  46.134  56.468  1.00  0.00     0.026 A 
HETATM   23  C   UNL     1      28.490  45.588  55.320  1.00  0.00     0.031 A 
ENDBRANCH  14  17
ENDBRANCH  12  13
ENDBRANCH  11  12
ENDBRANCH   4  11
BRANCH   8  24
HETATM   24  C   UNL     1      24.725  48.070  49.279  1.00  0.00    -0.044 A 
HETATM   25  C   UNL     1      23.923  49.054  48.668  1.00  0.00     0.008 A 
HETATM   26  C   UNL     1      24.496  50.173  48.063  1.00  0.00     0.001 A 
HETATM   27  C   UNL     1      25.880  50.321  48.046  1.00  0.00     0.000 A 
HETATM   28  C   UNL     1      26.690  49.351  48.634  1.00  0.00     0.001 A 
HETATM   29  C   UNL     1      26.120  48.231  49.246  1.00  0.00     0.008 A 
ENDBRANCH   8  24
BRANCH   9  30
HETATM   30  C   UNL     1      22.055  46.329  48.306  1.00  0.00     0.255 C 
HETATM   31  N   UNL     1      20.969  45.922  49.051  1.00  0.00    -0.321 N 
HETATM   32  H   UNL     1      21.066  45.161  49.703  1.00  0.00     0.169 HD
HETATM   33  O   UNL     1      21.969  46.874  47.207  1.00  0.00    -0.268 OA
BRANCH  31  34
HETATM   34  C   UNL     1      19.644  46.363  48.825  1.00  0.00     0.068 A 
HETATM   35  C   UNL     1      18.653  45.558  48.226  1.00  0.00     0.095 A 
HETATM   36  C   UNL     1      17.358  46.073  48.081  1.00  0.00     0.039 A 
HETATM   37  C   UNL     1      17.061  47.376  48.488  1.00  0.00     0.003 A 
HETATM   38  C   UNL     1      18.059  48.188  49.018  1.00  0.00     0.002 A 
HETATM   39  C   UNL     1      19.352  47.689  49.171  1.00  0.00     0.032 A 
BRANCH  35  40
HETATM   40  O   UNL     1      19.060  44.353  47.713  1.00  0.00    -0.354 OA
HETATM   41  C   UNL     1      18.957  44.158  46.312  1.00  0.00     0.210 C 
ENDBRANCH  35  40
ENDBRANCH  31  34
ENDBRANCH   9  30
TORSDOF 8
ENDMDL
MODEL 3
REMARK VINA RESULT:     -10.3      3.732     10.347
REMARK  8 active torsions:
REMARK  status: ('A' for Active; 'I' for Inactive)
REMARK    1  A    between atoms: C_4  and  S_5 
REMARK    2  A    between atoms: S_5  and  C_6 
REMARK    3  A    between atoms: C_6  and  C_7 
REMARK       I    between atoms: C_7  and  N_8 
REMARK    4  A    between atoms: N_8  and  C_9 
REMARK    5  A    between atoms: C_20  and  C_21 
REMARK    6  A    between atoms: C_27  and  C_28 
REMARK       I    between atoms: C_28  and  N_29 
REMARK    7  A    between atoms: N_29  and  C_30 
REMARK    8  A    between atoms: C_31  and  O_32 
ROOT
HETATM    1  C   UNL     1      26.730  47.127  52.562  1.00  0.00     0.069 C 
HETATM    2  C   UNL     1      26.009  45.930  51.988  1.00  0.00     0.019 C 
HETATM    3  N   UNL     1      25.209  46.188  50.887  1.00  0.00    -0.353 N 
HETATM    4  C   UNL     1      24.316  45.297  50.327  1.00  0.00     0.087 C 
HETATM    5  C   UNL     1      24.326  44.013  50.757  1.00  0.00     0.055 C 
HETATM    6  C   UNL     1      23.271  43.014  50.310  1.00  0.00     0.019 C 
HETATM    7  N   UNL     1      22.395  42.185  49.940  1.00  0.00    -0.096 N 
HETATM    8  C   UNL     1      25.424  43.523  51.700  1.00  0.00     0.104 C 
HETATM    9  C   UNL     1      26.132  44.656  52.443  1.00  0.00     0.046 C 
HETATM   10  H   UNL     1      25.135  47.149  50.563  1.00  0.00     0.166 HD
ENDROOT
BRANCH   4  11
HETATM   11  S   UNL     1      23.331  45.809  48.977  1.00  0.00    -0.102 SA
BRANCH  11  12
HETATM   12  C   UNL     1      23.621  47.606  48.913  1.00  0.00     0.184 C 
BRANCH  12  13
HETATM   13  C   UNL     1      22.370  48.396  48.502  1.00  0.00     0.231 C 
HETATM   14  N   UNL     1      21.873  49.250  49.468  1.00  0.00    -0.327 N 
HETATM   15  H   UNL     1      22.397  49.259  50.338  1.00  0.00     0.169 HD
HETATM   16  O   UNL     1      21.874  48.209  47.393  1.00  0.00    -0.272 OA
BRANCH  14  17
HETATM   17  C   UNL     1      20.778  50.129  49.396  1.00  0.00     0.034 A 
HETATM   18  C   UNL     1      20.773  51.318  48.665  1.00  0.00     0.031 A 
HETATM   19  C   UNL     1      19.641  52.142  48.663  1.00  0.00     0.026 A 
HETATM   20  C   UNL     1      18.510  51.777  49.387  1.00  0.00     0.034 A 
HETATM   21 CL   UNL     1      17.120  52.789  49.382  1.00  0.00    -0.084 Cl
HETATM   22  C   UNL     1      18.499  50.592  50.120  1.00  0.00     0.026 A 
HETATM   23  C   UNL     1      19.632  49.774  50.125  1.00  0.00     0.031 A 
ENDBRANCH  14  17
ENDBRANCH  12  13
ENDBRANCH  11  12
ENDBRANCH   4  11
BRANCH   8  24
HETATM   24  C   UNL     1      26.401  42.663  50.880  1.00  0.00    -0.044 A 
HETATM   25  C   UNL     1      26.457  42.757  49.475  1.00  0.00     0.008 A 
HETATM   26  C   UNL     1      27.303  41.931  48.735  1.00  0.00     0.001 A 
HETATM   27  C   UNL     1      28.096  40.988  49.382  1.00  0.00     0.000 A 
HETATM   28  C   UNL     1      28.044  40.872  50.770  1.00  0.00     0.001 A 
HETATM   29  C   UNL     1      27.202  41.701  51.517  1.00  0.00     0.008 A 
ENDBRANCH   8  24
BRANCH   9  30
HETATM   30  C   UNL     1      26.922  44.375  53.691  1.00  0.00     0.255 C 
HETATM   31  N   UNL     1      28.293  44.436  53.564  1.00  0.00    -0.321 N 
HETATM   32  H   UNL     1      28.716  44.353  52.654  1.00  0.00     0.169 HD
HETATM   33  O   UNL     1      26.342  43.999  54.708  1.00  0.00    -0.268 OA
BRANCH  31  34
HETATM   34  C   UNL     1      29.192  44.403  54.656  1.00  0.00     0.068 A 
HETATM   35  C   UNL     1      29.383  45.492  55.532  1.00  0.00     0.095 A 
HETATM   36  C   UNL     1      30.267  45.348  56.610  1.00  0.00     0.039 A 
HETATM   37  C   UNL     1      30.977  44.158  56.792  1.00  0.00     0.003 A 
HETATM   38  C   UNL     1      30.834  43.111  55.887  1.00  0.00     0.002 A 
HETATM   39  C   UNL     1      29.956  43.239  54.811  1.00  0.00     0.032 A 
BRANCH  35  40
HETATM   40  O   UNL     1      28.770  46.672  55.197  1.00  0.00    -0.354 OA
HETATM   41  C   UNL     1      27.714  47.130  56.026  1.00  0.00     0.210 C 
ENDBRANCH  35  40
ENDBRANCH  31  34
ENDBRANCH   9  30
TORSDOF 8
ENDMDL
MODEL 4
REMARK VINA RESULT:     -10.1      1.354      2.179
REMARK  8 active torsions:
REMARK  status: ('A' for Active; 'I' for Inactive)
REMARK    1  A    between atoms: C_4  and  S_5 
REMARK    2  A    between atoms: S_5  and  C_6 
REMARK    3  A    between atoms: C_6  and  C_7 
REMARK       I    between atoms: C_7  and  N_8 
REMARK    4  A    between atoms: N_8  and  C_9 
REMARK    5  A    between atoms: C_20  and  C_21 
REMARK    6  A    between atoms: C_27  and  C_28 
REMARK       I    between atoms: C_28  and  N_29 
REMARK    7  A    between atoms: N_29  and  C_30 
REMARK    8  A    between atoms: C_31  and  O_32 
ROOT
HETATM    1  C   UNL     1      21.833  45.193  46.755  1.00  0.00     0.069 C 
HETATM    2  C   UNL     1      22.675  45.364  47.999  1.00  0.00     0.019 C 
HETATM    3  N   UNL     1      23.359  44.233  48.415  1.00  0.00    -0.353 N 
HETATM    4  C   UNL     1      24.022  44.104  49.619  1.00  0.00     0.087 C 
HETATM    5  C   UNL     1      24.177  45.204  50.395  1.00  0.00     0.055 C 
HETATM    6  C   UNL     1      24.749  45.114  51.800  1.00  0.00     0.019 C 
HETATM    7  N   UNL     1      25.223  45.038  52.967  1.00  0.00    -0.096 N 
HETATM    8  C   UNL     1      23.796  46.584  49.863  1.00  0.00     0.104 C 
HETATM    9  C   UNL     1      22.829  46.529  48.679  1.00  0.00     0.046 C 
HETATM   10  H   UNL     1      23.229  43.374  47.888  1.00  0.00     0.166 HD
ENDROOT
BRANCH   4  11
HETATM   11  S   UNL     1      24.779  42.580  50.018  1.00  0.00    -0.102 SA
BRANCH  11  12
HETATM   12  C   UNL     1      26.556  42.973  49.950  1.00  0.00     0.184 C 
BRANCH  12  13
HETATM   13  C   UNL     1      27.291  42.631  51.255  1.00  0.00     0.231 C 
HETATM   14  N   UNL     1      28.061  43.651  51.778  1.00  0.00    -0.327 N 
HETATM   15  H   UNL     1      28.049  44.513  51.240  1.00  0.00     0.169 HD
HETATM   16  O   UNL     1      27.189  41.500  51.727  1.00  0.00    -0.272 OA
BRANCH  14  17
HETATM   17  C   UNL     1      28.819  43.672  52.963  1.00  0.00     0.034 A 
HETATM   18  C   UNL     1      28.541  44.493  54.057  1.00  0.00     0.031 A 
HETATM   19  C   UNL     1      29.360  44.460  55.192  1.00  0.00     0.026 A 
HETATM   20  C   UNL     1      30.456  43.602  55.238  1.00  0.00     0.034 A 
HETATM   21 CL   UNL     1      31.459  43.561  56.633  1.00  0.00    -0.084 Cl
HETATM   22  C   UNL     1      30.745  42.776  54.154  1.00  0.00     0.026 A 
HETATM   23  C   UNL     1      29.928  42.815  53.020  1.00  0.00     0.031 A 
ENDBRANCH  14  17
ENDBRANCH  12  13
ENDBRANCH  11  12
ENDBRANCH   4  11
BRANCH   8  24
HETATM   24  C   UNL     1      25.095  47.334  49.521  1.00  0.00    -0.044 A 
HETATM   25  C   UNL     1      26.352  46.707  49.630  1.00  0.00     0.008 A 
HETATM   26  C   UNL     1      27.529  47.412  49.377  1.00  0.00     0.001 A 
HETATM   27  C   UNL     1      27.471  48.757  49.024  1.00  0.00     0.000 A 
HETATM   28  C   UNL     1      26.237  49.397  48.923  1.00  0.00     0.001 A 
HETATM   29  C   UNL     1      25.055  48.694  49.171  1.00  0.00     0.008 A 
ENDBRANCH   8  24
BRANCH   9  30
HETATM   30  C   UNL     1      22.022  47.739  48.295  1.00  0.00     0.255 C 
HETATM   31  N   UNL     1      20.961  48.041  49.121  1.00  0.00    -0.321 N 
HETATM   32  H   UNL     1      20.576  47.332  49.724  1.00  0.00     0.169 HD
HETATM   33  O   UNL     1      22.257  48.318  47.237  1.00  0.00    -0.268 OA
BRANCH  31  34
HETATM   34  C   UNL     1      20.216  49.242  49.045  1.00  0.00     0.068 A 
HETATM   35  C   UNL     1      20.759  50.509  49.345  1.00  0.00     0.095 A 
HETATM   36  C   UNL     1      19.952  51.644  49.200  1.00  0.00     0.039 A 
HETATM   37  C   UNL     1      18.617  51.522  48.802  1.00  0.00     0.003 A 
HETATM   38  C   UNL     1      18.069  50.264  48.571  1.00  0.00     0.002 A 
HETATM   39  C   UNL     1      18.861  49.125  48.709  1.00  0.00     0.032 A 
BRANCH  35  40
HETATM   40  O   UNL     1      22.024  50.531  49.876  1.00  0.00    -0.354 OA
HETATM   41  C   UNL     1      23.017  51.281  49.195  1.00  0.00     0.210 C 
ENDBRANCH  35  40
ENDBRANCH  31  34
ENDBRANCH   9  30
TORSDOF 8
ENDMDL
MODEL 5
REMARK VINA RESULT:      -9.8      3.676      4.930
REMARK  8 active torsions:
REMARK  status: ('A' for Active; 'I' for Inactive)
REMARK    1  A    between atoms: C_4  and  S_5 
REMARK    2  A    between atoms: S_5  and  C_6 
REMARK    3  A    between atoms: C_6  and  C_7 
REMARK       I    between atoms: C_7  and  N_8 
REMARK    4  A    between atoms: N_8  and  C_9 
REMARK    5  A    between atoms: C_20  and  C_21 
REMARK    6  A    between atoms: C_27  and  C_28 
REMARK       I    between atoms: C_28  and  N_29 
REMARK    7  A    between atoms: N_29  and  C_30 
REMARK    8  A    between atoms: C_31  and  O_32 
ROOT
HETATM    1  C   UNL     1      22.415  45.002  47.747  1.00  0.00     0.069 C 
HETATM    2  C   UNL     1      23.253  45.650  48.824  1.00  0.00     0.019 C 
HETATM    3  N   UNL     1      24.128  44.805  49.487  1.00  0.00    -0.353 N 
HETATM    4  C   UNL     1      24.839  45.131  50.624  1.00  0.00     0.087 C 
HETATM    5  C   UNL     1      24.832  46.418  51.047  1.00  0.00     0.055 C 
HETATM    6  C   UNL     1      25.453  46.824  52.373  1.00  0.00     0.019 C 
HETATM    7  N   UNL     1      25.968  47.162  53.474  1.00  0.00    -0.096 N 
HETATM    8  C   UNL     1      24.210  47.511  50.181  1.00  0.00     0.104 C 
HETATM    9  C   UNL     1      23.231  46.971  49.136  1.00  0.00     0.046 C 
HETATM   10  H   UNL     1      24.128  43.821  49.233  1.00  0.00     0.166 HD
ENDROOT
BRANCH   4  11
HETATM   11  S   UNL     1      25.852  43.920  51.375  1.00  0.00    -0.102 SA
BRANCH  11  12
HETATM   12  C   UNL     1      25.277  42.370  50.610  1.00  0.00     0.184 C 
BRANCH  12  13
HETATM   13  C   UNL     1      26.273  41.808  49.585  1.00  0.00     0.231 C 
HETATM   14  N   UNL     1      26.190  40.444  49.375  1.00  0.00    -0.327 N 
HETATM   15  H   UNL     1      25.476  39.972  49.922  1.00  0.00     0.169 HD
HETATM   16  O   UNL     1      27.084  42.562  49.052  1.00  0.00    -0.272 OA
BRANCH  14  17
HETATM   17  C   UNL     1      26.924  39.637  48.488  1.00  0.00     0.034 A 
HETATM   18  C   UNL     1      26.732  39.616  47.106  1.00  0.00     0.031 A 
HETATM   19  C   UNL     1      27.500  38.767  46.298  1.00  0.00     0.026 A 
HETATM   20  C   UNL     1      28.464  37.942  46.871  1.00  0.00     0.034 A 
HETATM   21 CL   UNL     1      29.407  36.903  45.878  1.00  0.00    -0.084 Cl
HETATM   22  C   UNL     1      28.668  37.954  48.248  1.00  0.00     0.026 A 
HETATM   23  C   UNL     1      27.897  38.798  49.053  1.00  0.00     0.031 A 
ENDBRANCH  14  17
ENDBRANCH  12  13
ENDBRANCH  11  12
ENDBRANCH   4  11
BRANCH   8  24
HETATM   24  C   UNL     1      25.355  48.318  49.544  1.00  0.00    -0.044 A 
HETATM   25  C   UNL     1      26.704  47.999  49.797  1.00  0.00     0.008 A 
HETATM   26  C   UNL     1      27.735  48.772  49.264  1.00  0.00     0.001 A 
HETATM   27  C   UNL     1      27.438  49.884  48.482  1.00  0.00     0.000 A 
HETATM   28  C   UNL     1      26.109  50.223  48.232  1.00  0.00     0.001 A 
HETATM   29  C   UNL     1      25.072  49.448  48.759  1.00  0.00     0.008 A 
ENDBRANCH   8  24
BRANCH   9  30
HETATM   30  C   UNL     1      22.223  47.882  48.493  1.00  0.00     0.255 C 
HETATM   31  N   UNL     1      21.288  48.440  49.339  1.00  0.00    -0.321 N 
HETATM   32  H   UNL     1      21.106  48.017  50.235  1.00  0.00     0.169 HD
HETATM   33  O   UNL     1      22.197  47.996  47.269  1.00  0.00    -0.268 OA
BRANCH  31  34
HETATM   34  C   UNL     1      20.394  49.470  48.962  1.00  0.00     0.068 A 
HETATM   35  C   UNL     1      19.069  49.228  48.543  1.00  0.00     0.095 A 
HETATM   36  C   UNL     1      18.248  50.318  48.227  1.00  0.00     0.039 A 
HETATM   37  C   UNL     1      18.745  51.623  48.288  1.00  0.00     0.003 A 
HETATM   38  C   UNL     1      20.072  51.851  48.639  1.00  0.00     0.002 A 
HETATM   39  C   UNL     1      20.900  50.776  48.958  1.00  0.00     0.032 A 
BRANCH  35  40
HETATM   40  O   UNL     1      18.706  47.918  48.360  1.00  0.00    -0.354 OA
HETATM   41  C   UNL     1      17.532  47.457  49.009  1.00  0.00     0.210 C 
ENDBRANCH  35  40
ENDBRANCH  31  34
ENDBRANCH   9  30
TORSDOF 8
ENDMDL
MODEL 6
REMARK VINA RESULT:      -9.4      3.667      9.867
REMARK  8 active torsions:
REMARK  status: ('A' for Active; 'I' for Inactive)
REMARK    1  A    between atoms: C_4  and  S_5 
REMARK    2  A    between atoms: S_5  and  C_6 
REMARK    3  A    between atoms: C_6  and  C_7 
REMARK       I    between atoms: C_7  and  N_8 
REMARK    4  A    between atoms: N_8  and  C_9 
REMARK    5  A    between atoms: C_20  and  C_21 
REMARK    6  A    between atoms: C_27  and  C_28 
REMARK       I    between atoms: C_28  and  N_29 
REMARK    7  A    between atoms: N_29  and  C_30 
REMARK    8  A    between atoms: C_31  and  O_32 
ROOT
HETATM    1  C   UNL     1      25.442  46.851  50.660  1.00  0.00     0.069 C 
HETATM    2  C   UNL     1      25.012  45.466  50.237  1.00  0.00     0.019 C 
HETATM    3  N   UNL     1      24.443  45.378  48.977  1.00  0.00    -0.353 N 
HETATM    4  C   UNL     1      23.805  44.264  48.469  1.00  0.00     0.087 C 
HETATM    5  C   UNL     1      23.877  43.103  49.163  1.00  0.00     0.055 C 
HETATM    6  C   UNL     1      23.071  41.880  48.757  1.00  0.00     0.019 C 
HETATM    7  N   UNL     1      22.402  40.865  48.420  1.00  0.00    -0.096 N 
HETATM    8  C   UNL     1      24.797  42.985  50.377  1.00  0.00     0.104 C 
HETATM    9  C   UNL     1      25.187  44.338  50.974  1.00  0.00     0.046 C 
HETATM   10  H   UNL     1      24.325  46.235  48.444  1.00  0.00     0.166 HD
ENDROOT
BRANCH   4  11
HETATM   11  S   UNL     1      23.080  44.344  46.881  1.00  0.00    -0.102 SA
BRANCH  11  12
HETATM   12  C   UNL     1      21.384  44.908  47.231  1.00  0.00     0.184 C 
BRANCH  12  13
HETATM   13  C   UNL     1      21.307  46.413  47.527  1.00  0.00     0.231 C 
HETATM   14  N   UNL     1      20.070  46.866  47.942  1.00  0.00    -0.327 N 
HETATM   15  H   UNL     1      19.354  46.149  48.007  1.00  0.00     0.169 HD
HETATM   16  O   UNL     1      22.301  47.116  47.352  1.00  0.00    -0.272 OA
BRANCH  14  17
HETATM   17  C   UNL     1      19.682  48.163  48.323  1.00  0.00     0.034 A 
HETATM   18  C   UNL     1      19.494  49.219  47.429  1.00  0.00     0.031 A 
HETATM   19  C   UNL     1      19.122  50.485  47.898  1.00  0.00     0.026 A 
HETATM   20  C   UNL     1      18.931  50.696  49.261  1.00  0.00     0.034 A 
HETATM   21 CL   UNL     1      18.471  52.250  49.835  1.00  0.00    -0.084 Cl
HETATM   22  C   UNL     1      19.113  49.652  50.164  1.00  0.00     0.026 A 
HETATM   23  C   UNL     1      19.490  48.390  49.694  1.00  0.00     0.031 A 
ENDBRANCH  14  17
ENDBRANCH  12  13
ENDBRANCH  11  12
ENDBRANCH   4  11
BRANCH   8  24
HETATM   24  C   UNL     1      26.024  42.156  49.961  1.00  0.00    -0.044 A 
HETATM   25  C   UNL     1      26.470  42.129  48.625  1.00  0.00     0.008 A 
HETATM   26  C   UNL     1      27.547  41.328  48.244  1.00  0.00     0.001 A 
HETATM   27  C   UNL     1      28.187  40.530  49.188  1.00  0.00     0.000 A 
HETATM   28  C   UNL     1      27.752  40.535  50.511  1.00  0.00     0.001 A 
HETATM   29  C   UNL     1      26.677  41.339  50.899  1.00  0.00     0.008 A 
ENDBRANCH   8  24
BRANCH   9  30
HETATM   30  C   UNL     1      25.717  44.430  52.378  1.00  0.00     0.255 C 
HETATM   31  N   UNL     1      27.059  44.724  52.497  1.00  0.00    -0.321 N 
HETATM   32  H   UNL     1      27.678  44.565  51.719  1.00  0.00     0.169 HD
HETATM   33  O   UNL     1      24.990  44.134  53.324  1.00  0.00    -0.268 OA
BRANCH  31  34
HETATM   34  C   UNL     1      27.691  45.050  53.720  1.00  0.00     0.068 A 
HETATM   35  C   UNL     1      28.667  44.233  54.328  1.00  0.00     0.095 A 
HETATM   36  C   UNL     1      29.264  44.661  55.520  1.00  0.00     0.039 A 
HETATM   37  C   UNL     1      28.872  45.861  56.120  1.00  0.00     0.003 A 
HETATM   38  C   UNL     1      27.862  46.631  55.550  1.00  0.00     0.002 A 
HETATM   39  C   UNL     1      27.261  46.218  54.363  1.00  0.00     0.032 A 
BRANCH  35  40
HETATM   40  O   UNL     1      28.884  43.002  53.762  1.00  0.00    -0.354 OA
HETATM   41  C   UNL     1      30.098  42.799  53.058  1.00  0.00     0.210 C 
ENDBRANCH  35  40
ENDBRANCH  31  34
ENDBRANCH   9  30
TORSDOF 8
ENDMDL
MODEL 7
REMARK VINA RESULT:      -9.2      3.865      9.434
REMARK  8 active torsions:
REMARK  status: ('A' for Active; 'I' for Inactive)
REMARK    1  A    between atoms: C_4  and  S_5 
REMARK    2  A    between atoms: S_5  and  C_6 
REMARK    3  A    between atoms: C_6  and  C_7 
REMARK       I    between atoms: C_7  and  N_8 
REMARK    4  A    between atoms: N_8  and  C_9 
REMARK    5  A    between atoms: C_20  and  C_21 
REMARK    6  A    between atoms: C_27  and  C_28 
REMARK       I    between atoms: C_28  and  N_29 
REMARK    7  A    between atoms: N_29  and  C_30 
REMARK    8  A    between atoms: C_31  and  O_32 
ROOT
HETATM    1  C   UNL     1      25.379  46.004  49.674  1.00  0.00     0.069 C 
HETATM    2  C   UNL     1      24.899  44.619  49.310  1.00  0.00     0.019 C 
HETATM    3  N   UNL     1      24.342  44.495  48.047  1.00  0.00    -0.353 N 
HETATM    4  C   UNL     1      23.666  43.384  47.582  1.00  0.00     0.087 C 
HETATM    5  C   UNL     1      23.683  42.255  48.330  1.00  0.00     0.055 C 
HETATM    6  C   UNL     1      22.834  41.047  47.969  1.00  0.00     0.019 C 
HETATM    7  N   UNL     1      22.129  40.045  47.669  1.00  0.00    -0.096 N 
HETATM    8  C   UNL     1      24.582  42.157  49.561  1.00  0.00     0.104 C 
HETATM    9  C   UNL     1      25.019  43.521  50.100  1.00  0.00     0.046 C 
HETATM   10  H   UNL     1      24.265  45.330  47.473  1.00  0.00     0.166 HD
ENDROOT
BRANCH   4  11
HETATM   11  S   UNL     1      22.965  43.419  45.982  1.00  0.00    -0.102 SA
BRANCH  11  12
HETATM   12  C   UNL     1      21.195  43.694  46.314  1.00  0.00     0.184 C 
BRANCH  12  13
HETATM   13  C   UNL     1      20.949  44.811  47.338  1.00  0.00     0.231 C 
HETATM   14  N   UNL     1      21.376  46.067  46.950  1.00  0.00    -0.327 N 
HETATM   15  H   UNL     1      21.802  46.105  46.029  1.00  0.00     0.169 HD
HETATM   16  O   UNL     1      20.438  44.536  48.422  1.00  0.00    -0.272 OA
BRANCH  14  17
HETATM   17  C   UNL     1      21.268  47.291  47.633  1.00  0.00     0.034 A 
HETATM   18  C   UNL     1      22.283  47.847  48.413  1.00  0.00     0.031 A 
HETATM   19  C   UNL     1      22.082  49.066  49.071  1.00  0.00     0.026 A 
HETATM   20  C   UNL     1      20.866  49.734  48.948  1.00  0.00     0.034 A 
HETATM   21 CL   UNL     1      20.622  51.232  49.756  1.00  0.00    -0.084 Cl
HETATM   22  C   UNL     1      19.845  49.192  48.173  1.00  0.00     0.026 A 
HETATM   23  C   UNL     1      20.046  47.973  47.520  1.00  0.00     0.031 A 
ENDBRANCH  14  17
ENDBRANCH  12  13
ENDBRANCH  11  12
ENDBRANCH   4  11
BRANCH   8  24
HETATM   24  C   UNL     1      25.780  41.262  49.201  1.00  0.00    -0.044 A 
HETATM   25  C   UNL     1      26.148  40.171  50.013  1.00  0.00     0.008 A 
HETATM   26  C   UNL     1      27.272  39.401  49.713  1.00  0.00     0.001 A 
HETATM   27  C   UNL     1      28.054  39.714  48.606  1.00  0.00     0.000 A 
HETATM   28  C   UNL     1      27.713  40.797  47.798  1.00  0.00     0.001 A 
HETATM   29  C   UNL     1      26.585  41.569  48.092  1.00  0.00     0.008 A 
ENDBRANCH   8  24
BRANCH   9  30
HETATM   30  C   UNL     1      25.535  43.657  51.505  1.00  0.00     0.255 C 
HETATM   31  N   UNL     1      26.905  43.737  51.639  1.00  0.00    -0.321 N 
HETATM   32  H   UNL     1      27.501  43.406  50.899  1.00  0.00     0.169 HD
HETATM   33  O   UNL     1      24.755  43.575  52.452  1.00  0.00    -0.268 OA
BRANCH  31  34
HETATM   34  C   UNL     1      27.564  44.069  52.847  1.00  0.00     0.068 A 
HETATM   35  C   UNL     1      27.382  45.298  53.513  1.00  0.00     0.095 A 
HETATM   36  C   UNL     1      28.050  45.517  54.725  1.00  0.00     0.039 A 
HETATM   37  C   UNL     1      28.912  44.549  55.247  1.00  0.00     0.003 A 
HETATM   38  C   UNL     1      29.137  43.364  54.552  1.00  0.00     0.002 A 
HETATM   39  C   UNL     1      28.478  43.132  53.346  1.00  0.00     0.032 A 
BRANCH  35  40
HETATM   40  O   UNL     1      26.646  46.254  52.861  1.00  0.00    -0.354 OA
HETATM   41  C   UNL     1      25.836  47.116  53.644  1.00  0.00     0.210 C 
ENDBRANCH  35  40
ENDBRANCH  31  34
ENDBRANCH   9  30
TORSDOF 8
ENDMDL
MODEL 8
REMARK VINA RESULT:      -9.0      5.141     11.191
REMARK  8 active torsions:
REMARK  status: ('A' for Active; 'I' for Inactive)
REMARK    1  A    between atoms: C_4  and  S_5 
REMARK    2  A    between atoms: S_5  and  C_6 
REMARK    3  A    between atoms: C_6  and  C_7 
REMARK       I    between atoms: C_7  and  N_8 
REMARK    4  A    between atoms: N_8  and  C_9 
REMARK    5  A    between atoms: C_20  and  C_21 
REMARK    6  A    between atoms: C_27  and  C_28 
REMARK       I    between atoms: C_28  and  N_29 
REMARK    7  A    between atoms: N_29  and  C_30 
REMARK    8  A    between atoms: C_31  and  O_32 
ROOT
HETATM    1  C   UNL     1      24.695  49.935  48.482  1.00  0.00     0.069 C 
HETATM    2  C   UNL     1      23.341  49.277  48.606  1.00  0.00     0.019 C 
HETATM    3  N   UNL     1      22.274  50.011  48.113  1.00  0.00    -0.353 N 
HETATM    4  C   UNL     1      20.942  49.699  48.297  1.00  0.00     0.087 C 
HETATM    5  C   UNL     1      20.627  48.501  48.846  1.00  0.00     0.055 C 
HETATM    6  C   UNL     1      19.198  48.151  49.228  1.00  0.00     0.019 C 
HETATM    7  N   UNL     1      18.012  47.861  49.545  1.00  0.00    -0.096 N 
HETATM    8  C   UNL     1      21.710  47.450  49.080  1.00  0.00     0.104 C 
HETATM    9  C   UNL     1      23.123  48.035  49.110  1.00  0.00     0.046 C 
HETATM   10  H   UNL     1      22.463  50.937  47.738  1.00  0.00     0.166 HD
ENDROOT
BRANCH   4  11
HETATM   11  S   UNL     1      19.718  50.773  47.664  1.00  0.00    -0.102 SA
BRANCH  11  12
HETATM   12  C   UNL     1      19.447  51.942  49.034  1.00  0.00     0.184 C 
BRANCH  12  13
HETATM   13  C   UNL     1      17.985  51.982  49.501  1.00  0.00     0.231 C 
HETATM   14  N   UNL     1      17.274  53.099  49.105  1.00  0.00    -0.327 N 
HETATM   15  H   UNL     1      17.801  53.763  48.547  1.00  0.00     0.169 HD
HETATM   16  O   UNL     1      17.550  51.073  50.206  1.00  0.00    -0.272 OA
BRANCH  14  17
HETATM   17  C   UNL     1      15.923  53.417  49.334  1.00  0.00     0.034 A 
HETATM   18  C   UNL     1      14.955  53.492  48.331  1.00  0.00     0.031 A 
HETATM   19  C   UNL     1      13.634  53.833  48.648  1.00  0.00     0.026 A 
HETATM   20  C   UNL     1      13.277  54.093  49.968  1.00  0.00     0.034 A 
HETATM   21 CL   UNL     1      11.655  54.509  50.355  1.00  0.00    -0.084 Cl
HETATM   22  C   UNL     1      14.232  54.021  50.979  1.00  0.00     0.026 A 
HETATM   23  C   UNL     1      15.551  53.686  50.660  1.00  0.00     0.031 A 
ENDBRANCH  14  17
ENDBRANCH  12  13
ENDBRANCH  11  12
ENDBRANCH   4  11
BRANCH   8  24
HETATM   24  C   UNL     1      21.553  46.362  48.004  1.00  0.00    -0.044 A 
HETATM   25  C   UNL     1      21.530  44.995  48.344  1.00  0.00     0.008 A 
HETATM   26  C   UNL     1      21.448  44.011  47.358  1.00  0.00     0.001 A 
HETATM   27  C   UNL     1      21.401  44.376  46.015  1.00  0.00     0.000 A 
HETATM   28  C   UNL     1      21.436  45.723  45.660  1.00  0.00     0.001 A 
HETATM   29  C   UNL     1      21.513  46.711  46.644  1.00  0.00     0.008 A 
ENDBRANCH   8  24
BRANCH   9  30
HETATM   30  C   UNL     1      24.255  47.265  49.733  1.00  0.00     0.255 C 
HETATM   31  N   UNL     1      24.251  47.195  51.110  1.00  0.00    -0.321 N 
HETATM   32  H   UNL     1      23.728  47.870  51.644  1.00  0.00     0.169 HD
HETATM   33  O   UNL     1      25.168  46.845  49.025  1.00  0.00    -0.268 OA
BRANCH  31  34
HETATM   34  C   UNL     1      25.106  46.356  51.862  1.00  0.00     0.068 A 
HETATM   35  C   UNL     1      24.955  44.955  51.924  1.00  0.00     0.095 A 
HETATM   36  C   UNL     1      25.878  44.206  52.665  1.00  0.00     0.039 A 
HETATM   37  C   UNL     1      26.909  44.838  53.364  1.00  0.00     0.003 A 
HETATM   38  C   UNL     1      27.014  46.226  53.353  1.00  0.00     0.002 A 
HETATM   39  C   UNL     1      26.104  46.985  52.618  1.00  0.00     0.032 A 
BRANCH  35  40
HETATM   40  O   UNL     1      23.832  44.426  51.340  1.00  0.00    -0.354 OA
HETATM   41  C   UNL     1      23.992  43.304  50.488  1.00  0.00     0.210 C 
ENDBRANCH  35  40
ENDBRANCH  31  34
ENDBRANCH   9  30
TORSDOF 8
ENDMDL
MODEL 9
REMARK VINA RESULT:      -8.8      3.939     10.566
REMARK  8 active torsions:
REMARK  status: ('A' for Active; 'I' for Inactive)
REMARK    1  A    between atoms: C_4  and  S_5 
REMARK    2  A    between atoms: S_5  and  C_6 
REMARK    3  A    between atoms: C_6  and  C_7 
REMARK       I    between atoms: C_7  and  N_8 
REMARK    4  A    between atoms: N_8  and  C_9 
REMARK    5  A    between atoms: C_20  and  C_21 
REMARK    6  A    between atoms: C_27  and  C_28 
REMARK       I    between atoms: C_28  and  N_29 
REMARK    7  A    between atoms: N_29  and  C_30 
REMARK    8  A    between atoms: C_31  and  O_32 
ROOT
HETATM    1  C   UNL     1      26.607  47.272  52.686  1.00  0.00     0.069 C 
HETATM    2  C   UNL     1      25.913  46.068  52.090  1.00  0.00     0.019 C 
HETATM    3  N   UNL     1      25.143  46.320  50.966  1.00  0.00    -0.353 N 
HETATM    4  C   UNL     1      24.274  45.422  50.381  1.00  0.00     0.087 C 
HETATM    5  C   UNL     1      24.283  44.137  50.810  1.00  0.00     0.055 C 
HETATM    6  C   UNL     1      23.250  43.130  50.333  1.00  0.00     0.019 C 
HETATM    7  N   UNL     1      22.393  42.294  49.936  1.00  0.00    -0.096 N 
HETATM    8  C   UNL     1      25.357  43.656  51.784  1.00  0.00     0.104 C 
HETATM    9  C   UNL     1      26.034  44.796  52.548  1.00  0.00     0.046 C 
HETATM   10  H   UNL     1      25.071  47.281  50.642  1.00  0.00     0.166 HD
ENDROOT
BRANCH   4  11
HETATM   11  S   UNL     1      23.325  45.926  49.003  1.00  0.00    -0.102 SA
BRANCH  11  12
HETATM   12  C   UNL     1      23.466  47.741  49.047  1.00  0.00     0.184 C 
BRANCH  12  13
HETATM   13  C   UNL     1      22.116  48.448  48.853  1.00  0.00     0.231 C 
HETATM   14  N   UNL     1      21.069  47.622  48.491  1.00  0.00    -0.327 N 
HETATM   15  H   UNL     1      21.314  46.640  48.399  1.00  0.00     0.169 HD
HETATM   16  O   UNL     1      22.047  49.668  48.989  1.00  0.00    -0.272 OA
BRANCH  14  17
HETATM   17  C   UNL     1      19.718  47.945  48.276  1.00  0.00     0.034 A 
HETATM   18  C   UNL     1      19.115  47.994  47.018  1.00  0.00     0.031 A 
HETATM   19  C   UNL     1      17.764  48.341  46.894  1.00  0.00     0.026 A 
HETATM   20  C   UNL     1      17.012  48.635  48.029  1.00  0.00     0.034 A 
HETATM   21 CL   UNL     1      15.353  49.060  47.876  1.00  0.00    -0.084 Cl
HETATM   22  C   UNL     1      17.600  48.589  49.290  1.00  0.00     0.026 A 
HETATM   23  C   UNL     1      18.950  48.247  49.411  1.00  0.00     0.031 A 
ENDBRANCH  14  17
ENDBRANCH  12  13
ENDBRANCH  11  12
ENDBRANCH   4  11
BRANCH   8  24
HETATM   24  C   UNL     1      26.365  42.805  50.993  1.00  0.00    -0.044 A 
HETATM   25  C   UNL     1      26.445  42.884  49.588  1.00  0.00     0.008 A 
HETATM   26  C   UNL     1      27.320  42.065  48.873  1.00  0.00     0.001 A 
HETATM   27  C   UNL     1      28.118  41.146  49.546  1.00  0.00     0.000 A 
HETATM   28  C   UNL     1      28.044  41.046  50.934  1.00  0.00     0.001 A 
HETATM   29  C   UNL     1      27.173  41.867  51.655  1.00  0.00     0.008 A 
ENDBRANCH   8  24
BRANCH   9  30
HETATM   30  C   UNL     1      26.790  44.520  53.819  1.00  0.00     0.255 C 
HETATM   31  N   UNL     1      28.148  44.750  53.774  1.00  0.00    -0.321 N 
HETATM   32  H   UNL     1      28.623  44.782  52.886  1.00  0.00     0.169 HD
HETATM   33  O   UNL     1      26.210  44.008  54.774  1.00  0.00    -0.268 OA
BRANCH  31  34
HETATM   34  C   UNL     1      28.989  44.745  54.912  1.00  0.00     0.068 A 
HETATM   35  C   UNL     1      29.888  43.698  55.203  1.00  0.00     0.095 A 
HETATM   36  C   UNL     1      30.708  43.804  56.334  1.00  0.00     0.039 A 
HETATM   37  C   UNL     1      30.610  44.911  57.182  1.00  0.00     0.003 A 
HETATM   38  C   UNL     1      29.675  45.909  56.925  1.00  0.00     0.002 A 
HETATM   39  C   UNL     1      28.855  45.818  55.802  1.00  0.00     0.032 A 
BRANCH  35  40
HETATM   40  O   UNL     1      29.815  42.579  54.413  1.00  0.00    -0.354 OA
HETATM   41  C   UNL     1      30.514  42.591  53.179  1.00  0.00     0.210 C 
ENDBRANCH  35  40
ENDBRANCH  31  34
ENDBRANCH   9  30
TORSDOF 8
ENDMDL
MODEL 10
REMARK VINA RESULT:      -8.7      6.223     12.369
REMARK  8 active torsions:
REMARK  status: ('A' for Active; 'I' for Inactive)
REMARK    1  A    between atoms: C_4  and  S_5 
REMARK    2  A    between atoms: S_5  and  C_6 
REMARK    3  A    between atoms: C_6  and  C_7 
REMARK       I    between atoms: C_7  and  N_8 
REMARK    4  A    between atoms: N_8  and  C_9 
REMARK    5  A    between atoms: C_20  and  C_21 
REMARK    6  A    between atoms: C_27  and  C_28 
REMARK       I    between atoms: C_28  and  N_29 
REMARK    7  A    between atoms: N_29  and  C_30 
REMARK    8  A    between atoms: C_31  and  O_32 
ROOT
HETATM    1  C   UNL     1      19.439  45.885  48.295  1.00  0.00     0.069 C 
HETATM    2  C   UNL     1      19.159  47.149  47.517  1.00  0.00     0.019 C 
HETATM    3  N   UNL     1      18.097  47.080  46.630  1.00  0.00    -0.353 N 
HETATM    4  C   UNL     1      17.788  48.036  45.684  1.00  0.00     0.087 C 
HETATM    5  C   UNL     1      18.449  49.218  45.717  1.00  0.00     0.055 C 
HETATM    6  C   UNL     1      18.283  50.255  44.619  1.00  0.00     0.019 C 
HETATM    7  N   UNL     1      18.146  51.115  43.706  1.00  0.00    -0.096 N 
HETATM    8  C   UNL     1      19.375  49.552  46.885  1.00  0.00     0.104 C 
HETATM    9  C   UNL     1      19.833  48.319  47.665  1.00  0.00     0.046 C 
HETATM   10  H   UNL     1      17.606  46.194  46.539  1.00  0.00     0.166 HD
ENDROOT
BRANCH   4  11
HETATM   11  S   UNL     1      16.449  47.759  44.595  1.00  0.00    -0.102 SA
BRANCH  11  12
HETATM   12  C   UNL     1      14.993  48.008  45.660  1.00  0.00     0.184 C 
BRANCH  12  13
HETATM   13  C   UNL     1      14.307  49.361  45.423  1.00  0.00     0.231 C 
HETATM   14  N   UNL     1      15.075  50.468  45.729  1.00  0.00    -0.327 N 
HETATM   15  H   UNL     1      16.007  50.258  46.073  1.00  0.00     0.169 HD
HETATM   16  O   UNL     1      13.145  49.388  45.024  1.00  0.00    -0.272 OA
BRANCH  14  17
HETATM   17  C   UNL     1      14.759  51.832  45.593  1.00  0.00     0.034 A 
HETATM   18  C   UNL     1      14.382  52.433  44.391  1.00  0.00     0.031 A 
HETATM   19  C   UNL     1      14.100  53.804  44.344  1.00  0.00     0.026 A 
HETATM   20  C   UNL     1      14.188  54.575  45.500  1.00  0.00     0.034 A 
HETATM   21 CL   UNL     1      13.839  56.258  45.440  1.00  0.00    -0.084 Cl
HETATM   22  C   UNL     1      14.561  53.989  46.706  1.00  0.00     0.026 A 
HETATM   23  C   UNL     1      14.847  52.621  46.750  1.00  0.00     0.031 A 
ENDBRANCH  14  17
ENDBRANCH  12  13
ENDBRANCH  11  12
ENDBRANCH   4  11
BRANCH   8  24
HETATM   24  C   UNL     1      18.655  50.574  47.782  1.00  0.00    -0.044 A 
HETATM   25  C   UNL     1      19.189  51.860  48.000  1.00  0.00     0.008 A 
HETATM   26  C   UNL     1      18.562  52.760  48.861  1.00  0.00     0.001 A 
HETATM   27  C   UNL     1      17.400  52.387  49.530  1.00  0.00     0.000 A 
HETATM   28  C   UNL     1      16.864  51.116  49.337  1.00  0.00     0.001 A 
HETATM   29  C   UNL     1      17.486  50.212  48.470  1.00  0.00     0.008 A 
ENDBRANCH   8  24
BRANCH   9  30
HETATM   30  C   UNL     1      21.045  48.383  48.553  1.00  0.00     0.255 C 
HETATM   31  N   UNL     1      22.162  47.717  48.098  1.00  0.00    -0.321 N 
HETATM   32  H   UNL     1      22.066  46.992  47.405  1.00  0.00     0.169 HD
HETATM   33  O   UNL     1      20.960  48.906  49.663  1.00  0.00    -0.268 OA
BRANCH  31  34
HETATM   34  C   UNL     1      23.445  47.830  48.684  1.00  0.00     0.068 A 
HETATM   35  C   UNL     1      24.304  48.925  48.459  1.00  0.00     0.095 A 
HETATM   36  C   UNL     1      25.540  48.964  49.118  1.00  0.00     0.039 A 
HETATM   37  C   UNL     1      25.932  47.917  49.956  1.00  0.00     0.003 A 
HETATM   38  C   UNL     1      25.108  46.808  50.123  1.00  0.00     0.002 A 
HETATM   39  C   UNL     1      23.875  46.756  49.475  1.00  0.00     0.032 A 
BRANCH  35  40
HETATM   40  O   UNL     1      23.915  49.832  47.507  1.00  0.00    -0.354 OA
HETATM   41  C   UNL     1      23.394  51.076  47.948  1.00  0.00     0.210 C 
ENDBRANCH  35  40
ENDBRANCH  31  34
ENDBRANCH   9  30
TORSDOF 8
ENDMDL
