MODEL 1
REMARK VINA RESULT:      -7.7      0.000      0.000
REMARK  4 active torsions:
REMARK  status: ('A' for Active; 'I' for Inactive)
REMARK    1  A    between atoms: C_7  and  C_8 
REMARK    2  A    between atoms: C_8  and  N_9 
REMARK    3  A    between atoms: N_15  and  C_17 
REMARK    4  A    between atoms: C_21  and  C_22 
ROOT
HETATM    1  N   UNL     1      21.493  50.412  48.941  1.00  0.00    -0.067 N 
HETATM    2  H   UNL     1      22.265  50.844  49.470  1.00  0.00     0.280 HD
HETATM    3  C   UNL     1      20.679  51.554  48.408  1.00  0.00     0.236 C 
HETATM    4  C   UNL     1      19.401  51.047  47.742  1.00  0.00     0.039 C 
HETATM    5  C   UNL     1      18.521  50.128  48.637  1.00  0.00    -0.013 C 
HETATM    6  C   UNL     1      17.787  50.923  49.748  1.00  0.00     0.245 C 
HETATM    7  N   UNL     1      16.695  51.795  49.175  1.00  0.00    -0.065 N 
HETATM    8  H   UNL     1      17.095  52.456  48.495  1.00  0.00     0.280 HD
HETATM    9  C   UNL     1      15.637  50.987  48.428  1.00  0.00     0.244 C 
HETATM   10  C   UNL     1      16.278  50.233  47.247  1.00  0.00     0.045 C 
HETATM   11  C   UNL     1      17.448  49.373  47.791  1.00  0.00     0.022 C 
HETATM   12  C   UNL     1      19.444  49.043  49.275  1.00  0.00     0.039 C 
HETATM   13  C   UNL     1      20.729  49.568  49.914  1.00  0.00     0.236 C 
ENDROOT
BRANCH   7  14
HETATM   14  C   UNL     1      16.047  52.626  50.245  1.00  0.00     0.188 A 
HETATM   15  C   UNL     1      15.628  54.018  49.862  1.00  0.00     0.035 A 
HETATM   16  C   UNL     1      14.592  52.951  50.070  1.00  0.00     0.035 A 
ENDBRANCH   7  14
BRANCH  10  17
HETATM   17  C   UNL     1      16.654  51.065  46.023  1.00  0.00    -0.052 A 
HETATM   18  C   UNL     1      16.308  52.417  45.860  1.00  0.00     0.007 A 
HETATM   19  C   UNL     1      16.688  53.126  44.715  1.00  0.00     0.001 A 
HETATM   20  C   UNL     1      17.394  52.495  43.698  1.00  0.00     0.000 A 
HETATM   21  C   UNL     1      17.702  51.146  43.812  1.00  0.00     0.001 A 
HETATM   22  C   UNL     1      17.325  50.437  44.955  1.00  0.00     0.007 A 
ENDBRANCH  10  17
BRANCH   1  23
HETATM   23  C   UNL     1      22.246  49.606  47.883  1.00  0.00     0.277 C 
BRANCH  23  24
HETATM   24  C   UNL     1      23.683  49.467  48.213  1.00  0.00     0.011 A 
HETATM   25  C   UNL     1      24.317  48.521  49.010  1.00  0.00     0.035 A 
HETATM   26  C   UNL     1      23.801  47.322  49.723  1.00  0.00     0.070 C 
HETATM   27  N   UNL     1      25.649  48.873  49.020  1.00  0.00    -0.278 N 
HETATM   28  C   UNL     1      26.755  48.221  49.685  1.00  0.00     0.179 C 
HETATM   29  N   UNL     1      25.896  49.984  48.307  1.00  0.00    -0.185 NA
HETATM   30  C   UNL     1      24.726  50.310  47.774  1.00  0.00     0.149 A 
ENDBRANCH  23  24
ENDBRANCH   1  23
TORSDOF 4
ENDMDL
MODEL 2
REMARK VINA RESULT:      -7.4      2.174      3.515
REMARK  4 active torsions:
REMARK  status: ('A' for Active; 'I' for Inactive)
REMARK    1  A    between atoms: C_7  and  C_8 
REMARK    2  A    between atoms: C_8  and  N_9 
REMARK    3  A    between atoms: N_15  and  C_17 
REMARK    4  A    between atoms: C_21  and  C_22 
ROOT
HETATM    1  N   UNL     1      21.678  50.083  48.653  1.00  0.00    -0.067 N 
HETATM    2  H   UNL     1      22.357  50.792  48.338  1.00  0.00     0.280 HD
HETATM    3  C   UNL     1      20.860  49.741  47.441  1.00  0.00     0.236 C 
HETATM    4  C   UNL     1      19.699  48.820  47.811  1.00  0.00     0.039 C 
HETATM    5  C   UNL     1      18.782  49.353  48.948  1.00  0.00    -0.013 C 
HETATM    6  C   UNL     1      17.880  50.522  48.472  1.00  0.00     0.245 C 
HETATM    7  N   UNL     1      16.808  50.042  47.522  1.00  0.00    -0.065 N 
HETATM    8  H   UNL     1      17.242  49.594  46.702  1.00  0.00     0.280 HD
HETATM    9  C   UNL     1      15.893  48.998  48.157  1.00  0.00     0.244 C 
HETATM   10  C   UNL     1      16.708  47.760  48.578  1.00  0.00     0.045 C 
HETATM   11  C   UNL     1      17.860  48.225  49.508  1.00  0.00     0.022 C 
HETATM   12  C   UNL     1      19.691  49.824  50.127  1.00  0.00     0.039 C 
HETATM   13  C   UNL     1      20.861  50.724  49.733  1.00  0.00     0.236 C 
ENDROOT
BRANCH   7  14
HETATM   14  C   UNL     1      15.994  51.190  46.998  1.00  0.00     0.188 A 
HETATM   15  C   UNL     1      16.235  51.596  45.571  1.00  0.00     0.035 A 
HETATM   16  C   UNL     1      14.971  50.876  45.945  1.00  0.00     0.035 A 
ENDBRANCH   7  14
BRANCH  10  17
HETATM   17  C   UNL     1      17.168  46.826  47.461  1.00  0.00    -0.052 A 
HETATM   18  C   UNL     1      16.846  47.009  46.106  1.00  0.00     0.007 A 
HETATM   19  C   UNL     1      17.303  46.119  45.128  1.00  0.00     0.001 A 
HETATM   20  C   UNL     1      18.068  45.014  45.484  1.00  0.00     0.000 A 
HETATM   21  C   UNL     1      18.355  44.782  46.823  1.00  0.00     0.001 A 
HETATM   22  C   UNL     1      17.900  45.671  47.800  1.00  0.00     0.007 A 
ENDBRANCH  10  17
BRANCH   1  23
HETATM   23  C   UNL     1      22.593  48.966  49.151  1.00  0.00     0.277 C 
BRANCH  23  24
HETATM   24  C   UNL     1      24.009  49.212  48.796  1.00  0.00     0.011 A 
HETATM   25  C   UNL     1      25.163  48.651  49.330  1.00  0.00     0.035 A 
HETATM   26  C   UNL     1      25.366  47.596  50.359  1.00  0.00     0.070 C 
HETATM   27  N   UNL     1      26.212  49.259  48.675  1.00  0.00    -0.278 N 
HETATM   28  C   UNL     1      27.632  49.038  48.836  1.00  0.00     0.179 C 
HETATM   29  N   UNL     1      25.804  50.176  47.783  1.00  0.00    -0.185 NA
HETATM   30  C   UNL     1      24.479  50.109  47.812  1.00  0.00     0.149 A 
ENDBRANCH  23  24
ENDBRANCH   1  23
TORSDOF 4
ENDMDL
MODEL 3
REMARK VINA RESULT:      -7.2      5.654     12.584
REMARK  4 active torsions:
REMARK  status: ('A' for Active; 'I' for Inactive)
REMARK    1  A    between atoms: C_7  and  C_8 
REMARK    2  A    between atoms: C_8  and  N_9 
REMARK    3  A    between atoms: N_15  and  C_17 
REMARK    4  A    between atoms: C_21  and  C_22 
ROOT
HETATM    1  N   UNL     1      26.216  46.053  49.301  1.00  0.00    -0.067 N 
HETATM    2  H   UNL     1      26.364  46.528  48.398  1.00  0.00     0.280 HD
HETATM    3  C   UNL     1      27.489  45.310  49.580  1.00  0.00     0.236 C 
HETATM    4  C   UNL     1      27.341  44.421  50.814  1.00  0.00     0.039 C 
HETATM    5  C   UNL     1      26.140  43.435  50.764  1.00  0.00    -0.013 C 
HETATM    6  C   UNL     1      26.388  42.260  49.783  1.00  0.00     0.245 C 
HETATM    7  N   UNL     1      27.441  41.312  50.309  1.00  0.00    -0.065 N 
HETATM    8  H   UNL     1      28.324  41.818  50.460  1.00  0.00     0.280 HD
HETATM    9  C   UNL     1      27.052  40.700  51.652  1.00  0.00     0.244 C 
HETATM   10  C   UNL     1      26.873  41.805  52.709  1.00  0.00     0.045 C 
HETATM   11  C   UNL     1      25.842  42.834  52.174  1.00  0.00     0.022 C 
HETATM   12  C   UNL     1      24.870  44.234  50.333  1.00  0.00     0.039 C 
HETATM   13  C   UNL     1      25.046  45.136  49.112  1.00  0.00     0.236 C 
ENDROOT
BRANCH   7  14
HETATM   14  C   UNL     1      27.738  40.226  49.314  1.00  0.00     0.188 A 
HETATM   15  C   UNL     1      29.040  40.327  48.570  1.00  0.00     0.035 A 
HETATM   16  C   UNL     1      28.865  39.290  49.643  1.00  0.00     0.035 A 
ENDBRANCH   7  14
BRANCH  10  17
HETATM   17  C   UNL     1      28.145  42.448  53.256  1.00  0.00    -0.052 A 
HETATM   18  C   UNL     1      29.441  42.087  52.848  1.00  0.00     0.007 A 
HETATM   19  C   UNL     1      30.569  42.719  53.383  1.00  0.00     0.001 A 
HETATM   20  C   UNL     1      30.429  43.703  54.355  1.00  0.00     0.000 A 
HETATM   21  C   UNL     1      29.162  44.040  54.813  1.00  0.00     0.001 A 
HETATM   22  C   UNL     1      28.035  43.411  54.278  1.00  0.00     0.007 A 
ENDBRANCH  10  17
BRANCH   1  23
HETATM   23  C   UNL     1      25.934  47.228  50.236  1.00  0.00     0.277 C 
BRANCH  23  24
HETATM   24  C   UNL     1      24.941  48.165  49.662  1.00  0.00     0.011 A 
HETATM   25  C   UNL     1      25.143  49.291  48.872  1.00  0.00     0.035 A 
HETATM   26  C   UNL     1      26.378  49.883  48.292  1.00  0.00     0.070 C 
HETATM   27  N   UNL     1      23.892  49.823  48.652  1.00  0.00    -0.278 N 
HETATM   28  C   UNL     1      23.525  50.991  47.882  1.00  0.00     0.179 C 
HETATM   29  N   UNL     1      22.918  49.128  49.263  1.00  0.00    -0.185 NA
HETATM   30  C   UNL     1      23.540  48.098  49.823  1.00  0.00     0.149 A 
ENDBRANCH  23  24
ENDBRANCH   1  23
TORSDOF 4
ENDMDL
MODEL 4
REMARK VINA RESULT:      -7.0     24.960     28.424
REMARK  4 active torsions:
REMARK  status: ('A' for Active; 'I' for Inactive)
REMARK    1  A    between atoms: C_7  and  C_8 
REMARK    2  A    between atoms: C_8  and  N_9 
REMARK    3  A    between atoms: N_15  and  C_17 
REMARK    4  A    between atoms: C_21  and  C_22 
ROOT
HETATM    1  N   UNL     1      40.446  39.473  65.097  1.00  0.00    -0.067 N 
HETATM    2  H   UNL     1      40.348  38.733  65.807  1.00  0.00     0.280 HD
HETATM    3  C   UNL     1      40.313  40.769  65.842  1.00  0.00     0.236 C 
HETATM    4  C   UNL     1      40.271  41.951  64.876  1.00  0.00     0.039 C 
HETATM    5  C   UNL     1      39.182  41.850  63.770  1.00  0.00    -0.013 C 
HETATM    6  C   UNL     1      37.755  42.086  64.331  1.00  0.00     0.245 C 
HETATM    7  N   UNL     1      37.547  43.529  64.725  1.00  0.00    -0.065 N 
HETATM    8  H   UNL     1      38.240  43.802  65.436  1.00  0.00     0.280 HD
HETATM    9  C   UNL     1      37.730  44.484  63.548  1.00  0.00     0.244 C 
HETATM   10  C   UNL     1      39.161  44.372  62.988  1.00  0.00     0.045 C 
HETATM   11  C   UNL     1      39.433  42.887  62.631  1.00  0.00     0.022 C 
HETATM   12  C   UNL     1      39.275  40.432  63.123  1.00  0.00     0.039 C 
HETATM   13  C   UNL     1      39.341  39.265  64.107  1.00  0.00     0.236 C 
ENDROOT
BRANCH   7  14
HETATM   14  C   UNL     1      36.196  43.732  65.347  1.00  0.00     0.188 A 
HETATM   15  C   UNL     1      36.170  44.258  66.755  1.00  0.00     0.035 A 
HETATM   16  C   UNL     1      35.772  45.148  65.613  1.00  0.00     0.035 A 
ENDBRANCH   7  14
BRANCH  10  17
HETATM   17  C   UNL     1      40.275  45.013  63.812  1.00  0.00    -0.052 A 
HETATM   18  C   UNL     1      40.050  45.936  64.847  1.00  0.00     0.007 A 
HETATM   19  C   UNL     1      41.115  46.484  65.570  1.00  0.00     0.001 A 
HETATM   20  C   UNL     1      42.426  46.144  65.259  1.00  0.00     0.000 A 
HETATM   21  C   UNL     1      42.677  45.274  64.205  1.00  0.00     0.001 A 
HETATM   22  C   UNL     1      41.614  44.725  63.484  1.00  0.00     0.007 A 
ENDBRANCH  10  17
BRANCH   1  23
HETATM   23  C   UNL     1      41.839  39.191  64.535  1.00  0.00     0.277 C 
BRANCH  23  24
HETATM   24  C   UNL     1      42.348  37.867  64.961  1.00  0.00     0.011 A 
HETATM   25  C   UNL     1      43.647  37.374  64.942  1.00  0.00     0.035 A 
HETATM   26  C   UNL     1      44.940  38.006  64.568  1.00  0.00     0.070 C 
HETATM   27  N   UNL     1      43.562  36.078  65.402  1.00  0.00    -0.278 N 
HETATM   28  C   UNL     1      44.621  35.112  65.595  1.00  0.00     0.179 C 
HETATM   29  N   UNL     1      42.301  35.711  65.688  1.00  0.00    -0.185 NA
HETATM   30  C   UNL     1      41.577  36.803  65.479  1.00  0.00     0.149 A 
ENDBRANCH  23  24
ENDBRANCH   1  23
TORSDOF 4
ENDMDL
MODEL 5
REMARK VINA RESULT:      -7.0     24.846     27.562
REMARK  4 active torsions:
REMARK  status: ('A' for Active; 'I' for Inactive)
REMARK    1  A    between atoms: C_7  and  C_8 
REMARK    2  A    between atoms: C_8  and  N_9 
REMARK    3  A    between atoms: N_15  and  C_17 
REMARK    4  A    between atoms: C_21  and  C_22 
ROOT
HETATM    1  N   UNL     1      41.969  45.996  65.669  1.00  0.00    -0.067 N 
HETATM    2  H   UNL     1      42.653  46.184  66.417  1.00  0.00     0.280 HD
HETATM    3  C   UNL     1      40.946  45.082  66.276  1.00  0.00     0.236 C 
HETATM    4  C   UNL     1      39.960  44.589  65.219  1.00  0.00     0.039 C 
HETATM    5  C   UNL     1      40.617  43.917  63.980  1.00  0.00    -0.013 C 
HETATM    6  C   UNL     1      41.178  42.508  64.307  1.00  0.00     0.245 C 
HETATM    7  N   UNL     1      40.067  41.512  64.543  1.00  0.00    -0.065 N 
HETATM    8  H   UNL     1      39.473  41.829  65.322  1.00  0.00     0.280 HD
HETATM    9  C   UNL     1      39.153  41.361  63.330  1.00  0.00     0.244 C 
HETATM   10  C   UNL     1      38.486  42.708  62.994  1.00  0.00     0.045 C 
HETATM   11  C   UNL     1      39.598  43.773  62.806  1.00  0.00     0.022 C 
HETATM   12  C   UNL     1      41.766  44.846  63.473  1.00  0.00     0.039 C 
HETATM   13  C   UNL     1      42.726  45.348  64.551  1.00  0.00     0.236 C 
ENDROOT
BRANCH   7  14
HETATM   14  C   UNL     1      40.616  40.173  64.945  1.00  0.00     0.188 A 
HETATM   15  C   UNL     1      40.351  39.727  66.355  1.00  0.00     0.035 A 
HETATM   16  C   UNL     1      39.621  39.080  65.213  1.00  0.00     0.035 A 
ENDBRANCH   7  14
BRANCH  10  17
HETATM   17  C   UNL     1      37.357  43.165  63.915  1.00  0.00    -0.052 A 
HETATM   18  C   UNL     1      36.649  42.305  64.771  1.00  0.00     0.007 A 
HETATM   19  C   UNL     1      35.627  42.787  65.596  1.00  0.00     0.001 A 
HETATM   20  C   UNL     1      35.271  44.131  65.563  1.00  0.00     0.000 A 
HETATM   21  C   UNL     1      35.919  44.991  64.686  1.00  0.00     0.001 A 
HETATM   22  C   UNL     1      36.941  44.510  63.864  1.00  0.00     0.007 A 
ENDBRANCH  10  17
BRANCH   1  23
HETATM   23  C   UNL     1      41.466  47.402  65.341  1.00  0.00     0.277 C 
BRANCH  23  24
HETATM   24  C   UNL     1      40.605  47.945  66.416  1.00  0.00     0.011 A 
HETATM   25  C   UNL     1      39.237  48.191  66.412  1.00  0.00     0.035 A 
HETATM   26  C   UNL     1      38.189  47.935  65.387  1.00  0.00     0.070 C 
HETATM   27  N   UNL     1      38.951  48.737  67.644  1.00  0.00    -0.278 N 
HETATM   28  C   UNL     1      37.675  49.166  68.172  1.00  0.00     0.179 C 
HETATM   29  N   UNL     1      40.042  48.874  68.416  1.00  0.00    -0.185 NA
HETATM   30  C   UNL     1      41.028  48.346  67.702  1.00  0.00     0.149 A 
ENDBRANCH  23  24
ENDBRANCH   1  23
TORSDOF 4
ENDMDL
MODEL 6
REMARK VINA RESULT:      -6.9      2.276      4.370
REMARK  4 active torsions:
REMARK  status: ('A' for Active; 'I' for Inactive)
REMARK    1  A    between atoms: C_7  and  C_8 
REMARK    2  A    between atoms: C_8  and  N_9 
REMARK    3  A    between atoms: N_15  and  C_17 
REMARK    4  A    between atoms: C_21  and  C_22 
ROOT
HETATM    1  N   UNL     1      19.748  51.862  48.376  1.00  0.00    -0.067 N 
HETATM    2  H   UNL     1      20.543  52.458  48.100  1.00  0.00     0.280 HD
HETATM    3  C   UNL     1      19.566  50.883  47.253  1.00  0.00     0.236 C 
HETATM    4  C   UNL     1      18.306  50.045  47.461  1.00  0.00     0.039 C 
HETATM    5  C   UNL     1      17.005  50.869  47.676  1.00  0.00    -0.013 C 
HETATM    6  C   UNL     1      16.509  51.532  46.365  1.00  0.00     0.245 C 
HETATM    7  N   UNL     1      15.971  50.506  45.395  1.00  0.00    -0.065 N 
HETATM    8  H   UNL     1      16.704  49.819  45.170  1.00  0.00     0.280 HD
HETATM    9  C   UNL     1      14.797  49.720  45.972  1.00  0.00     0.244 C 
HETATM   10  C   UNL     1      15.236  48.958  47.236  1.00  0.00     0.045 C 
HETATM   11  C   UNL     1      15.853  49.974  48.233  1.00  0.00     0.022 C 
HETATM   12  C   UNL     1      17.292  51.962  48.754  1.00  0.00     0.039 C 
HETATM   13  C   UNL     1      18.570  52.772  48.541  1.00  0.00     0.236 C 
ENDROOT
BRANCH   7  14
HETATM   14  C   UNL     1      15.574  51.145  44.095  1.00  0.00     0.188 A 
HETATM   15  C   UNL     1      16.202  50.590  42.848  1.00  0.00     0.035 A 
HETATM   16  C   UNL     1      14.756  50.315  43.149  1.00  0.00     0.035 A 
ENDBRANCH   7  14
BRANCH  10  17
HETATM   17  C   UNL     1      16.097  47.714  47.026  1.00  0.00    -0.052 A 
HETATM   18  C   UNL     1      16.328  47.126  45.771  1.00  0.00     0.007 A 
HETATM   19  C   UNL     1      17.132  45.988  45.644  1.00  0.00     0.001 A 
HETATM   20  C   UNL     1      17.700  45.398  46.767  1.00  0.00     0.000 A 
HETATM   21  C   UNL     1      17.443  45.930  48.024  1.00  0.00     0.001 A 
HETATM   22  C   UNL     1      16.641  47.066  48.152  1.00  0.00     0.007 A 
ENDBRANCH  10  17
BRANCH   1  23
HETATM   23  C   UNL     1      20.248  51.256  49.687  1.00  0.00     0.277 C 
BRANCH  23  24
HETATM   24  C   UNL     1      21.439  50.400  49.481  1.00  0.00     0.011 A 
HETATM   25  C   UNL     1      21.517  49.022  49.321  1.00  0.00     0.035 A 
HETATM   26  C   UNL     1      20.464  47.975  49.234  1.00  0.00     0.070 C 
HETATM   27  N   UNL     1      22.860  48.734  49.211  1.00  0.00    -0.278 N 
HETATM   28  C   UNL     1      23.500  47.451  49.017  1.00  0.00     0.179 C 
HETATM   29  N   UNL     1      23.634  49.827  49.312  1.00  0.00    -0.185 NA
HETATM   30  C   UNL     1      22.780  50.837  49.416  1.00  0.00     0.149 A 
ENDBRANCH  23  24
ENDBRANCH   1  23
TORSDOF 4
ENDMDL
MODEL 7
REMARK VINA RESULT:      -6.8      2.901      7.996
REMARK  4 active torsions:
REMARK  status: ('A' for Active; 'I' for Inactive)
REMARK    1  A    between atoms: C_7  and  C_8 
REMARK    2  A    between atoms: C_8  and  N_9 
REMARK    3  A    between atoms: N_15  and  C_17 
REMARK    4  A    between atoms: C_21  and  C_22 
ROOT
HETATM    1  N   UNL     1      16.910  51.263  45.272  1.00  0.00    -0.067 N 
HETATM    2  H   UNL     1      16.511  51.141  44.329  1.00  0.00     0.280 HD
HETATM    3  C   UNL     1      18.113  50.366  45.320  1.00  0.00     0.236 C 
HETATM    4  C   UNL     1      18.704  50.324  46.728  1.00  0.00     0.039 C 
HETATM    5  C   UNL     1      17.695  49.935  47.846  1.00  0.00    -0.013 C 
HETATM    6  C   UNL     1      17.333  48.428  47.808  1.00  0.00     0.245 C 
HETATM    7  N   UNL     1      18.497  47.568  48.242  1.00  0.00    -0.065 N 
HETATM    8  H   UNL     1      19.305  47.737  47.628  1.00  0.00     0.280 HD
HETATM    9  C   UNL     1      18.955  47.884  49.664  1.00  0.00     0.244 C 
HETATM   10  C   UNL     1      19.417  49.350  49.761  1.00  0.00     0.045 C 
HETATM   11  C   UNL     1      18.266  50.262  49.262  1.00  0.00     0.022 C 
HETATM   12  C   UNL     1      16.409  50.800  47.663  1.00  0.00     0.039 C 
HETATM   13  C   UNL     1      15.848  50.849  46.243  1.00  0.00     0.236 C 
ENDROOT
BRANCH   7  14
HETATM   14  C   UNL     1      18.168  46.108  48.120  1.00  0.00     0.188 A 
HETATM   15  C   UNL     1      18.652  45.405  46.883  1.00  0.00     0.035 A 
HETATM   16  C   UNL     1      19.313  45.140  48.206  1.00  0.00     0.035 A 
ENDBRANCH   7  14
BRANCH  10  17
HETATM   17  C   UNL     1      20.771  49.687  49.141  1.00  0.00    -0.052 A 
HETATM   18  C   UNL     1      21.279  50.993  49.035  1.00  0.00     0.007 A 
HETATM   19  C   UNL     1      22.532  51.236  48.460  1.00  0.00     0.001 A 
HETATM   20  C   UNL     1      23.291  50.186  47.956  1.00  0.00     0.000 A 
HETATM   21  C   UNL     1      22.787  48.892  48.002  1.00  0.00     0.001 A 
HETATM   22  C   UNL     1      21.537  48.648  48.577  1.00  0.00     0.007 A 
ENDBRANCH  10  17
BRANCH   1  23
HETATM   23  C   UNL     1      17.219  52.759  45.294  1.00  0.00     0.277 C 
BRANCH  23  24
HETATM   24  C   UNL     1      16.282  53.529  44.443  1.00  0.00     0.011 A 
HETATM   25  C   UNL     1      16.383  53.862  43.098  1.00  0.00     0.035 A 
HETATM   26  C   UNL     1      17.396  53.514  42.066  1.00  0.00     0.070 C 
HETATM   27  N   UNL     1      15.269  54.622  42.816  1.00  0.00    -0.278 N 
HETATM   28  C   UNL     1      14.870  55.217  41.559  1.00  0.00     0.179 C 
HETATM   29  N   UNL     1      14.484  54.809  43.890  1.00  0.00    -0.185 NA
HETATM   30  C   UNL     1      15.061  54.105  44.856  1.00  0.00     0.149 A 
ENDBRANCH  23  24
ENDBRANCH   1  23
TORSDOF 4
ENDMDL
MODEL 8
REMARK VINA RESULT:      -6.8      6.615     11.013
REMARK  4 active torsions:
REMARK  status: ('A' for Active; 'I' for Inactive)
REMARK    1  A    between atoms: C_7  and  C_8 
REMARK    2  A    between atoms: C_8  and  N_9 
REMARK    3  A    between atoms: N_15  and  C_17 
REMARK    4  A    between atoms: C_21  and  C_22 
ROOT
HETATM    1  N   UNL     1      22.411  45.837  48.861  1.00  0.00    -0.067 N 
HETATM    2  H   UNL     1      21.416  46.060  49.013  1.00  0.00     0.280 HD
HETATM    3  C   UNL     1      22.692  44.634  49.712  1.00  0.00     0.236 C 
HETATM    4  C   UNL     1      24.182  44.300  49.709  1.00  0.00     0.039 C 
HETATM    5  C   UNL     1      25.113  45.477  50.115  1.00  0.00    -0.013 C 
HETATM    6  C   UNL     1      25.048  45.778  51.635  1.00  0.00     0.245 C 
HETATM    7  N   UNL     1      25.700  44.682  52.444  1.00  0.00    -0.065 N 
HETATM    8  H   UNL     1      25.234  43.783  52.257  1.00  0.00     0.280 HD
HETATM    9  C   UNL     1      27.172  44.494  52.087  1.00  0.00     0.244 C 
HETATM   10  C   UNL     1      27.315  44.104  50.604  1.00  0.00     0.045 C 
HETATM   11  C   UNL     1      26.600  45.178  49.743  1.00  0.00     0.022 C 
HETATM   12  C   UNL     1      24.687  46.739  49.300  1.00  0.00     0.039 C 
HETATM   13  C   UNL     1      23.189  47.041  49.296  1.00  0.00     0.236 C 
ENDROOT
BRANCH   7  14
HETATM   14  C   UNL     1      25.555  44.936  53.917  1.00  0.00     0.188 A 
HETATM   15  C   UNL     1      25.348  43.735  54.796  1.00  0.00     0.035 A 
HETATM   16  C   UNL     1      26.666  44.455  54.805  1.00  0.00     0.035 A 
ENDBRANCH   7  14
BRANCH  10  17
HETATM   17  C   UNL     1      26.937  42.673  50.229  1.00  0.00    -0.052 A 
HETATM   18  C   UNL     1      26.615  41.677  51.167  1.00  0.00     0.007 A 
HETATM   19  C   UNL     1      26.270  40.385  50.758  1.00  0.00     0.001 A 
HETATM   20  C   UNL     1      26.266  40.050  49.409  1.00  0.00     0.000 A 
HETATM   21  C   UNL     1      26.631  41.002  48.466  1.00  0.00     0.001 A 
HETATM   22  C   UNL     1      26.974  42.294  48.873  1.00  0.00     0.007 A 
ENDBRANCH  10  17
BRANCH   1  23
HETATM   23  C   UNL     1      22.453  45.587  47.354  1.00  0.00     0.277 C 
BRANCH  23  24
HETATM   24  C   UNL     1      21.625  44.422  46.965  1.00  0.00     0.011 A 
HETATM   25  C   UNL     1      22.023  43.148  46.574  1.00  0.00     0.035 A 
HETATM   26  C   UNL     1      23.366  42.516  46.483  1.00  0.00     0.070 C 
HETATM   27  N   UNL     1      20.862  42.468  46.279  1.00  0.00    -0.278 N 
HETATM   28  C   UNL     1      20.699  41.101  45.837  1.00  0.00     0.179 C 
HETATM   29  N   UNL     1      19.764  43.226  46.435  1.00  0.00    -0.185 NA
HETATM   30  C   UNL     1      20.215  44.382  46.902  1.00  0.00     0.149 A 
ENDBRANCH  23  24
ENDBRANCH   1  23
TORSDOF 4
ENDMDL
MODEL 9
REMARK VINA RESULT:      -6.8      2.919      7.405
REMARK  4 active torsions:
REMARK  status: ('A' for Active; 'I' for Inactive)
REMARK    1  A    between atoms: C_7  and  C_8 
REMARK    2  A    between atoms: C_8  and  N_9 
REMARK    3  A    between atoms: N_15  and  C_17 
REMARK    4  A    between atoms: C_21  and  C_22 
ROOT
HETATM    1  N   UNL     1      18.283  46.625  45.458  1.00  0.00    -0.067 N 
HETATM    2  H   UNL     1      18.359  46.358  44.466  1.00  0.00     0.280 HD
HETATM    3  C   UNL     1      18.759  48.047  45.533  1.00  0.00     0.236 C 
HETATM    4  C   UNL     1      18.856  48.513  46.984  1.00  0.00     0.039 C 
HETATM    5  C   UNL     1      19.723  47.605  47.902  1.00  0.00    -0.013 C 
HETATM    6  C   UNL     1      21.239  47.755  47.611  1.00  0.00     0.245 C 
HETATM    7  N   UNL     1      21.758  49.100  48.065  1.00  0.00    -0.065 N 
HETATM    8  H   UNL     1      21.245  49.853  47.586  1.00  0.00     0.280 HD
HETATM    9  C   UNL     1      21.564  49.322  49.563  1.00  0.00     0.244 C 
HETATM   10  C   UNL     1      20.066  49.275  49.919  1.00  0.00     0.045 C 
HETATM   11  C   UNL     1      19.483  47.930  49.410  1.00  0.00     0.022 C 
HETATM   12  C   UNL     1      19.279  46.124  47.681  1.00  0.00     0.039 C 
HETATM   13  C   UNL     1      19.164  45.685  46.222  1.00  0.00     0.236 C 
ENDROOT
BRANCH   7  14
HETATM   14  C   UNL     1      23.205  49.273  47.702  1.00  0.00     0.188 A 
HETATM   15  C   UNL     1      23.738  50.677  47.692  1.00  0.00     0.035 A 
HETATM   16  C   UNL     1      24.132  49.731  48.790  1.00  0.00     0.035 A 
ENDBRANCH   7  14
BRANCH  10  17
HETATM   17  C   UNL     1      19.227  50.488  49.526  1.00  0.00    -0.052 A 
HETATM   18  C   UNL     1      19.718  51.569  48.775  1.00  0.00     0.007 A 
HETATM   19  C   UNL     1      18.895  52.651  48.443  1.00  0.00     0.001 A 
HETATM   20  C   UNL     1      17.574  52.690  48.876  1.00  0.00     0.000 A 
HETATM   21  C   UNL     1      17.081  51.659  49.665  1.00  0.00     0.001 A 
HETATM   22  C   UNL     1      17.901  50.578  49.995  1.00  0.00     0.007 A 
ENDBRANCH  10  17
BRANCH   1  23
HETATM   23  C   UNL     1      16.791  46.428  45.725  1.00  0.00     0.277 C 
BRANCH  23  24
HETATM   24  C   UNL     1      15.972  47.488  45.094  1.00  0.00     0.011 A 
HETATM   25  C   UNL     1      15.240  48.509  45.688  1.00  0.00     0.035 A 
HETATM   26  C   UNL     1      15.088  48.919  47.109  1.00  0.00     0.070 C 
HETATM   27  N   UNL     1      14.630  49.183  44.652  1.00  0.00    -0.278 N 
HETATM   28  C   UNL     1      13.763  50.339  44.708  1.00  0.00     0.179 C 
HETATM   29  N   UNL     1      14.908  48.649  43.452  1.00  0.00    -0.185 NA
HETATM   30  C   UNL     1      15.760  47.665  43.709  1.00  0.00     0.149 A 
ENDBRANCH  23  24
ENDBRANCH   1  23
TORSDOF 4
ENDMDL
MODEL 10
REMARK VINA RESULT:      -6.6     25.176     28.195
REMARK  4 active torsions:
REMARK  status: ('A' for Active; 'I' for Inactive)
REMARK    1  A    between atoms: C_7  and  C_8 
REMARK    2  A    between atoms: C_8  and  N_9 
REMARK    3  A    between atoms: N_15  and  C_17 
REMARK    4  A    between atoms: C_21  and  C_22 
ROOT
HETATM    1  N   UNL     1      38.740  47.835  67.539  1.00  0.00    -0.067 N 
HETATM    2  H   UNL     1      38.453  48.052  68.505  1.00  0.00     0.280 HD
HETATM    3  C   UNL     1      38.807  46.338  67.463  1.00  0.00     0.236 C 
HETATM    4  C   UNL     1      39.387  45.886  66.124  1.00  0.00     0.039 C 
HETATM    5  C   UNL     1      40.768  46.507  65.771  1.00  0.00    -0.013 C 
HETATM    6  C   UNL     1      41.916  45.905  66.623  1.00  0.00     0.245 C 
HETATM    7  N   UNL     1      42.203  44.474  66.232  1.00  0.00    -0.065 N 
HETATM    8  H   UNL     1      41.356  43.902  66.353  1.00  0.00     0.280 HD
HETATM    9  C   UNL     1      42.614  44.343  64.768  1.00  0.00     0.244 C 
HETATM   10  C   UNL     1      41.483  44.842  63.849  1.00  0.00     0.045 C 
HETATM   11  C   UNL     1      41.118  46.291  64.264  1.00  0.00     0.022 C 
HETATM   12  C   UNL     1      40.683  48.049  66.001  1.00  0.00     0.039 C 
HETATM   13  C   UNL     1      40.077  48.480  67.336  1.00  0.00     0.236 C 
ENDROOT
BRANCH   7  14
HETATM   14  C   UNL     1      43.253  43.870  67.119  1.00  0.00     0.188 A 
HETATM   15  C   UNL     1      42.926  42.549  67.755  1.00  0.00     0.035 A 
HETATM   16  C   UNL     1      43.920  42.616  66.631  1.00  0.00     0.035 A 
ENDBRANCH   7  14
BRANCH  10  17
HETATM   17  C   UNL     1      40.269  43.930  63.695  1.00  0.00    -0.052 A 
HETATM   18  C   UNL     1      40.249  42.581  64.087  1.00  0.00     0.007 A 
HETATM   19  C   UNL     1      39.101  41.798  63.924  1.00  0.00     0.001 A 
HETATM   20  C   UNL     1      37.959  42.336  63.342  1.00  0.00     0.000 A 
HETATM   21  C   UNL     1      37.971  43.652  62.897  1.00  0.00     0.001 A 
HETATM   22  C   UNL     1      39.116  44.434  63.061  1.00  0.00     0.007 A 
ENDBRANCH  10  17
BRANCH   1  23
HETATM   23  C   UNL     1      37.616  48.474  66.724  1.00  0.00     0.277 C 
BRANCH  23  24
HETATM   24  C   UNL     1      37.624  49.951  66.835  1.00  0.00     0.011 A 
HETATM   25  C   UNL     1      37.273  50.757  67.911  1.00  0.00     0.035 A 
HETATM   26  C   UNL     1      36.851  50.426  69.298  1.00  0.00     0.070 C 
HETATM   27  N   UNL     1      37.420  52.054  67.470  1.00  0.00    -0.278 N 
HETATM   28  C   UNL     1      37.199  53.288  68.191  1.00  0.00     0.179 C 
HETATM   29  N   UNL     1      37.816  52.124  66.188  1.00  0.00    -0.185 NA
HETATM   30  C   UNL     1      37.995  50.862  65.821  1.00  0.00     0.149 A 
ENDBRANCH  23  24
ENDBRANCH   1  23
TORSDOF 4
ENDMDL
