MODEL 1
REMARK VINA RESULT:      -8.4      0.000      0.000
REMARK  7 active torsions:
REMARK  status: ('A' for Active; 'I' for Inactive)
REMARK    1  A    between atoms: S_2  and  C_3 
REMARK    2  A    between atoms: C_6  and  C_7 
REMARK    3  A    between atoms: N_8  and  C_9 
REMARK    4  A    between atoms: C_9  and  C_10 
REMARK    5  A    between atoms: C_10  and  C_11 
REMARK    6  A    between atoms: C_24  and  C_25 
REMARK    7  A    between atoms: C_26  and  O_27 
ROOT
HETATM    1  C   UNL     1      24.627  44.744  51.782  1.00  0.00     0.159 A 
HETATM    2  N   UNL     1      25.307  45.474  52.876  1.00  0.00    -0.333 N 
HETATM    3  C   UNL     1      25.657  46.796  52.557  1.00  0.00     0.275 A 
HETATM    4  O   UNL     1      26.263  47.595  53.251  1.00  0.00    -0.266 OA
HETATM    5  C   UNL     1      25.091  46.998  51.240  1.00  0.00     0.155 A 
HETATM    6  C   UNL     1      24.463  45.832  50.786  1.00  0.00     0.034 A 
HETATM    7  N   UNL     1      24.968  48.024  50.405  1.00  0.00    -0.168 NA
HETATM    8  N   UNL     1      24.251  47.483  49.389  1.00  0.00    -0.276 N 
HETATM    9  H   UNL     1      24.025  48.069  48.591  1.00  0.00     0.189 HD
HETATM   10  C   UNL     1      23.841  46.177  49.611  1.00  0.00     0.074 A 
ENDROOT
BRANCH   1  11
HETATM   11  C   UNL     1      25.505  43.688  51.141  1.00  0.00    -0.031 A 
HETATM   12  C   UNL     1      25.046  42.364  51.050  1.00  0.00     0.011 A 
HETATM   13  C   UNL     1      25.816  41.379  50.420  1.00  0.00     0.019 A 
HETATM   14  C   UNL     1      27.058  41.695  49.864  1.00  0.00    -0.000 A 
HETATM   15  C   UNL     1      27.546  42.995  49.989  1.00  0.00     0.019 A 
HETATM   16  C   UNL     1      26.781  43.979  50.620  1.00  0.00     0.011 A 
BRANCH  14  17
HETATM   17  S   UNL     1      27.994  40.424  49.034  1.00  0.00    -0.134 SA
HETATM   18  C   UNL     1      27.062  38.958  49.563  1.00  0.00     0.095 C 
ENDBRANCH  14  17
ENDBRANCH   1  11
BRANCH   2  19
HETATM   19  C   UNL     1      25.554  44.868  54.174  1.00  0.00     0.132 C 
BRANCH  19  20
HETATM   20  C   UNL     1      27.037  44.914  54.563  1.00  0.00     0.058 C 
BRANCH  20  21
HETATM   21  C   UNL     1      27.831  43.751  54.021  1.00  0.00    -0.057 A 
HETATM   22  C   UNL     1      27.301  42.454  54.023  1.00  0.00     0.007 A 
HETATM   23  C   UNL     1      28.035  41.389  53.499  1.00  0.00     0.001 A 
HETATM   24  C   UNL     1      29.304  41.609  52.965  1.00  0.00     0.000 A 
HETATM   25  C   UNL     1      29.839  42.895  52.953  1.00  0.00     0.001 A 
HETATM   26  C   UNL     1      29.108  43.960  53.479  1.00  0.00     0.007 A 
ENDBRANCH  20  21
ENDBRANCH  19  20
ENDBRANCH   2  19
BRANCH  10  27
HETATM   27  C   UNL     1      22.941  45.476  48.703  1.00  0.00     0.026 A 
HETATM   28  C   UNL     1      21.666  45.977  48.396  1.00  0.00     0.078 A 
HETATM   29  C   UNL     1      20.836  45.337  47.479  1.00  0.00     0.037 A 
HETATM   30  C   UNL     1      21.258  44.156  46.873  1.00  0.00     0.003 A 
HETATM   31  C   UNL     1      22.512  43.630  47.177  1.00  0.00     0.001 A 
HETATM   32  C   UNL     1      23.352  44.291  48.079  1.00  0.00     0.016 A 
BRANCH  28  33
HETATM   33  O   UNL     1      21.161  47.107  48.984  1.00  0.00    -0.360 OA
HETATM   34  H   UNL     1      21.910  47.689  49.206  1.00  0.00     0.217 HD
ENDBRANCH  28  33
ENDBRANCH  10  27
TORSDOF 7
ENDMDL
MODEL 2
REMARK VINA RESULT:      -8.1      3.119      7.751
REMARK  7 active torsions:
REMARK  status: ('A' for Active; 'I' for Inactive)
REMARK    1  A    between atoms: S_2  and  C_3 
REMARK    2  A    between atoms: C_6  and  C_7 
REMARK    3  A    between atoms: N_8  and  C_9 
REMARK    4  A    between atoms: C_9  and  C_10 
REMARK    5  A    between atoms: C_10  and  C_11 
REMARK    6  A    between atoms: C_24  and  C_25 
REMARK    7  A    between atoms: C_26  and  O_27 
ROOT
HETATM    1  C   UNL     1      25.720  43.854  51.904  1.00  0.00     0.159 A 
HETATM    2  N   UNL     1      25.112  42.829  51.024  1.00  0.00    -0.333 N 
HETATM    3  C   UNL     1      25.941  41.726  50.765  1.00  0.00     0.275 A 
HETATM    4  O   UNL     1      25.708  40.772  50.041  1.00  0.00    -0.266 OA
HETATM    5  C   UNL     1      27.105  41.963  51.592  1.00  0.00     0.155 A 
HETATM    6  C   UNL     1      26.983  43.174  52.284  1.00  0.00     0.034 A 
HETATM    7  N   UNL     1      28.208  41.288  51.898  1.00  0.00    -0.168 NA
HETATM    8  N   UNL     1      28.804  42.106  52.801  1.00  0.00    -0.276 N 
HETATM    9  H   UNL     1      29.696  41.823  53.194  1.00  0.00     0.189 HD
HETATM   10  C   UNL     1      28.057  43.225  53.139  1.00  0.00     0.074 A 
ENDROOT
BRANCH   1  11
HETATM   11  C   UNL     1      26.104  45.118  51.161  1.00  0.00    -0.031 A 
HETATM   12  C   UNL     1      25.641  46.361  51.620  1.00  0.00     0.011 A 
HETATM   13  C   UNL     1      26.020  47.548  50.982  1.00  0.00     0.019 A 
HETATM   14  C   UNL     1      26.873  47.520  49.876  1.00  0.00    -0.000 A 
HETATM   15  C   UNL     1      27.302  46.289  49.382  1.00  0.00     0.019 A 
HETATM   16  C   UNL     1      26.922  45.102  50.015  1.00  0.00     0.011 A 
BRANCH  14  17
HETATM   17  S   UNL     1      27.367  49.053  49.112  1.00  0.00    -0.134 SA
HETATM   18  C   UNL     1      25.762  49.610  48.471  1.00  0.00     0.095 C 
ENDBRANCH  14  17
ENDBRANCH   1  11
BRANCH   2  19
HETATM   19  C   UNL     1      23.759  42.957  50.508  1.00  0.00     0.132 C 
BRANCH  19  20
HETATM   20  C   UNL     1      23.738  43.423  49.046  1.00  0.00     0.058 C 
BRANCH  20  21
HETATM   21  C   UNL     1      22.882  44.646  48.823  1.00  0.00    -0.057 A 
HETATM   22  C   UNL     1      21.500  44.531  48.631  1.00  0.00     0.007 A 
HETATM   23  C   UNL     1      20.713  45.670  48.448  1.00  0.00     0.001 A 
HETATM   24  C   UNL     1      21.300  46.935  48.459  1.00  0.00     0.000 A 
HETATM   25  C   UNL     1      22.674  47.061  48.654  1.00  0.00     0.001 A 
HETATM   26  C   UNL     1      23.461  45.923  48.835  1.00  0.00     0.007 A 
ENDBRANCH  20  21
ENDBRANCH  19  20
ENDBRANCH   2  19
BRANCH  10  27
HETATM   27  C   UNL     1      28.462  44.144  54.196  1.00  0.00     0.026 A 
HETATM   28  C   UNL     1      29.675  43.986  54.886  1.00  0.00     0.078 A 
HETATM   29  C   UNL     1      30.086  44.903  55.849  1.00  0.00     0.037 A 
HETATM   30  C   UNL     1      29.270  45.985  56.166  1.00  0.00     0.003 A 
HETATM   31  C   UNL     1      28.053  46.152  55.508  1.00  0.00     0.001 A 
HETATM   32  C   UNL     1      27.656  45.242  54.521  1.00  0.00     0.016 A 
BRANCH  28  33
HETATM   33  O   UNL     1      30.512  42.924  54.663  1.00  0.00    -0.360 OA
HETATM   34  H   UNL     1      30.411  42.652  53.734  1.00  0.00     0.217 HD
ENDBRANCH  28  33
ENDBRANCH  10  27
TORSDOF 7
ENDMDL
MODEL 3
REMARK VINA RESULT:      -8.0      3.399      5.230
REMARK  7 active torsions:
REMARK  status: ('A' for Active; 'I' for Inactive)
REMARK    1  A    between atoms: S_2  and  C_3 
REMARK    2  A    between atoms: C_6  and  C_7 
REMARK    3  A    between atoms: N_8  and  C_9 
REMARK    4  A    between atoms: C_9  and  C_10 
REMARK    5  A    between atoms: C_10  and  C_11 
REMARK    6  A    between atoms: C_24  and  C_25 
REMARK    7  A    between atoms: C_26  and  O_27 
ROOT
HETATM    1  C   UNL     1      24.155  47.807  49.803  1.00  0.00     0.159 A 
HETATM    2  N   UNL     1      25.603  47.512  49.900  1.00  0.00    -0.333 N 
HETATM    3  C   UNL     1      26.411  48.313  49.077  1.00  0.00     0.275 A 
HETATM    4  O   UNL     1      27.620  48.247  48.929  1.00  0.00    -0.266 OA
HETATM    5  C   UNL     1      25.484  49.257  48.490  1.00  0.00     0.155 A 
HETATM    6  C   UNL     1      24.177  49.000  48.922  1.00  0.00     0.034 A 
HETATM    7  N   UNL     1      25.582  50.327  47.710  1.00  0.00    -0.168 NA
HETATM    8  N   UNL     1      24.297  50.751  47.639  1.00  0.00    -0.276 N 
HETATM    9  H   UNL     1      24.087  51.570  47.076  1.00  0.00     0.189 HD
HETATM   10  C   UNL     1      23.414  50.032  48.430  1.00  0.00     0.074 A 
ENDROOT
BRANCH   1  11
HETATM   11  C   UNL     1      23.381  46.730  49.068  1.00  0.00    -0.031 A 
HETATM   12  C   UNL     1      22.119  47.027  48.529  1.00  0.00     0.011 A 
HETATM   13  C   UNL     1      21.404  46.066  47.805  1.00  0.00     0.019 A 
HETATM   14  C   UNL     1      21.934  44.790  47.600  1.00  0.00    -0.000 A 
HETATM   15  C   UNL     1      23.164  44.468  48.170  1.00  0.00     0.019 A 
HETATM   16  C   UNL     1      23.879  45.424  48.897  1.00  0.00     0.011 A 
BRANCH  14  17
HETATM   17  S   UNL     1      21.013  43.604  46.639  1.00  0.00    -0.134 SA
HETATM   18  C   UNL     1      19.366  44.366  46.702  1.00  0.00     0.095 C 
ENDBRANCH  14  17
ENDBRANCH   1  11
BRANCH   2  19
HETATM   19  C   UNL     1      26.127  46.498  50.800  1.00  0.00     0.132 C 
BRANCH  19  20
HETATM   20  C   UNL     1      25.501  46.584  52.198  1.00  0.00     0.058 C 
BRANCH  20  21
HETATM   21  C   UNL     1      26.499  46.376  53.311  1.00  0.00    -0.057 A 
HETATM   22  C   UNL     1      27.093  45.125  53.520  1.00  0.00     0.007 A 
HETATM   23  C   UNL     1      28.032  44.948  54.538  1.00  0.00     0.001 A 
HETATM   24  C   UNL     1      28.389  46.020  55.354  1.00  0.00     0.000 A 
HETATM   25  C   UNL     1      27.807  47.270  55.153  1.00  0.00     0.001 A 
HETATM   26  C   UNL     1      26.867  47.448  54.137  1.00  0.00     0.007 A 
ENDBRANCH  20  21
ENDBRANCH  19  20
ENDBRANCH   2  19
BRANCH  10  27
HETATM   27  C   UNL     1      22.019  50.423  48.600  1.00  0.00     0.026 A 
HETATM   28  C   UNL     1      21.517  50.841  49.844  1.00  0.00     0.078 A 
HETATM   29  C   UNL     1      20.202  51.275  49.986  1.00  0.00     0.037 A 
HETATM   30  C   UNL     1      19.349  51.267  48.886  1.00  0.00     0.003 A 
HETATM   31  C   UNL     1      19.820  50.839  47.646  1.00  0.00     0.001 A 
HETATM   32  C   UNL     1      21.150  50.429  47.502  1.00  0.00     0.016 A 
BRANCH  28  33
HETATM   33  O   UNL     1      22.280  50.835  50.982  1.00  0.00    -0.360 OA
HETATM   34  H   UNL     1      23.206  50.677  50.722  1.00  0.00     0.217 HD
ENDBRANCH  28  33
ENDBRANCH  10  27
TORSDOF 7
ENDMDL
MODEL 4
REMARK VINA RESULT:      -7.6      5.654      8.868
REMARK  7 active torsions:
REMARK  status: ('A' for Active; 'I' for Inactive)
REMARK    1  A    between atoms: S_2  and  C_3 
REMARK    2  A    between atoms: C_6  and  C_7 
REMARK    3  A    between atoms: N_8  and  C_9 
REMARK    4  A    between atoms: C_9  and  C_10 
REMARK    5  A    between atoms: C_10  and  C_11 
REMARK    6  A    between atoms: C_24  and  C_25 
REMARK    7  A    between atoms: C_26  and  O_27 
ROOT
HETATM    1  C   UNL     1      21.901  47.752  47.359  1.00  0.00     0.159 A 
HETATM    2  N   UNL     1      22.706  48.731  48.126  1.00  0.00    -0.333 N 
HETATM    3  C   UNL     1      23.429  48.175  49.194  1.00  0.00     0.275 A 
HETATM    4  O   UNL     1      24.125  48.758  50.007  1.00  0.00    -0.266 OA
HETATM    5  C   UNL     1      23.190  46.752  49.071  1.00  0.00     0.155 A 
HETATM    6  C   UNL     1      22.334  46.484  47.996  1.00  0.00     0.034 A 
HETATM    7  N   UNL     1      23.634  45.657  49.679  1.00  0.00    -0.168 NA
HETATM    8  N   UNL     1      23.029  44.671  48.973  1.00  0.00    -0.276 N 
HETATM    9  H   UNL     1      23.194  43.708  49.249  1.00  0.00     0.189 HD
HETATM   10  C   UNL     1      22.298  45.115  47.882  1.00  0.00     0.074 A 
ENDROOT
BRANCH   1  11
HETATM   11  C   UNL     1      20.413  47.887  47.609  1.00  0.00    -0.031 A 
HETATM   12  C   UNL     1      19.622  48.626  46.715  1.00  0.00     0.011 A 
HETATM   13  C   UNL     1      18.237  48.725  46.894  1.00  0.00     0.019 A 
HETATM   14  C   UNL     1      17.612  48.087  47.967  1.00  0.00    -0.000 A 
HETATM   15  C   UNL     1      18.392  47.390  48.889  1.00  0.00     0.019 A 
HETATM   16  C   UNL     1      19.774  47.291  48.714  1.00  0.00     0.011 A 
BRANCH  14  17
HETATM   17  S   UNL     1      15.841  48.202  48.143  1.00  0.00    -0.134 SA
HETATM   18  C   UNL     1      15.557  49.813  47.356  1.00  0.00     0.095 C 
ENDBRANCH  14  17
ENDBRANCH   1  11
BRANCH   2  19
HETATM   19  C   UNL     1      22.756  50.140  47.769  1.00  0.00     0.132 C 
BRANCH  19  20
HETATM   20  C   UNL     1      22.376  51.050  48.944  1.00  0.00     0.058 C 
BRANCH  20  21
HETATM   21  C   UNL     1      20.886  51.170  49.146  1.00  0.00    -0.057 A 
HETATM   22  C   UNL     1      20.246  50.506  50.200  1.00  0.00     0.007 A 
HETATM   23  C   UNL     1      18.870  50.641  50.392  1.00  0.00     0.001 A 
HETATM   24  C   UNL     1      18.120  51.446  49.536  1.00  0.00     0.000 A 
HETATM   25  C   UNL     1      18.747  52.116  48.487  1.00  0.00     0.001 A 
HETATM   26  C   UNL     1      20.122  51.979  48.292  1.00  0.00     0.007 A 
ENDBRANCH  20  21
ENDBRANCH  19  20
ENDBRANCH   2  19
BRANCH  10  27
HETATM   27  C   UNL     1      21.696  44.200  46.919  1.00  0.00     0.026 A 
HETATM   28  C   UNL     1      22.464  43.252  46.224  1.00  0.00     0.078 A 
HETATM   29  C   UNL     1      21.875  42.338  45.355  1.00  0.00     0.037 A 
HETATM   30  C   UNL     1      20.500  42.378  45.137  1.00  0.00     0.003 A 
HETATM   31  C   UNL     1      19.721  43.324  45.801  1.00  0.00     0.001 A 
HETATM   32  C   UNL     1      20.314  44.223  46.694  1.00  0.00     0.016 A 
BRANCH  28  33
HETATM   33  O   UNL     1      23.827  43.177  46.350  1.00  0.00    -0.360 OA
HETATM   34  H   UNL     1      24.222  43.764  45.681  1.00  0.00     0.217 HD
ENDBRANCH  28  33
ENDBRANCH  10  27
TORSDOF 7
ENDMDL
MODEL 5
REMARK VINA RESULT:      -7.1     17.974     21.406
REMARK  7 active torsions:
REMARK  status: ('A' for Active; 'I' for Inactive)
REMARK    1  A    between atoms: S_2  and  C_3 
REMARK    2  A    between atoms: C_6  and  C_7 
REMARK    3  A    between atoms: N_8  and  C_9 
REMARK    4  A    between atoms: C_9  and  C_10 
REMARK    5  A    between atoms: C_10  and  C_11 
REMARK    6  A    between atoms: C_24  and  C_25 
REMARK    7  A    between atoms: C_26  and  O_27 
ROOT
HETATM    1  C   UNL     1      39.971  44.969  64.256  1.00  0.00     0.159 A 
HETATM    2  N   UNL     1      38.589  44.903  63.728  1.00  0.00    -0.333 N 
HETATM    3  C   UNL     1      37.729  45.889  64.237  1.00  0.00     0.275 A 
HETATM    4  O   UNL     1      36.540  46.031  64.009  1.00  0.00    -0.266 OA
HETATM    5  C   UNL     1      38.593  46.718  65.051  1.00  0.00     0.155 A 
HETATM    6  C   UNL     1      39.902  46.220  65.051  1.00  0.00     0.034 A 
HETATM    7  N   UNL     1      38.460  47.852  65.730  1.00  0.00    -0.168 NA
HETATM    8  N   UNL     1      39.720  48.068  66.180  1.00  0.00    -0.276 N 
HETATM    9  H   UNL     1      39.895  48.887  66.754  1.00  0.00     0.189 HD
HETATM   10  C   UNL     1      40.655  47.153  65.721  1.00  0.00     0.074 A 
ENDROOT
BRANCH   1  11
HETATM   11  C   UNL     1      40.287  43.847  65.226  1.00  0.00    -0.031 A 
HETATM   12  C   UNL     1      41.277  42.907  64.901  1.00  0.00     0.011 A 
HETATM   13  C   UNL     1      41.623  41.889  65.799  1.00  0.00     0.019 A 
HETATM   14  C   UNL     1      40.991  41.792  67.041  1.00  0.00    -0.000 A 
HETATM   15  C   UNL     1      39.973  42.692  67.356  1.00  0.00     0.019 A 
HETATM   16  C   UNL     1      39.624  43.706  66.460  1.00  0.00     0.011 A 
BRANCH  14  17
HETATM   17  S   UNL     1      41.484  40.508  68.176  1.00  0.00    -0.134 SA
HETATM   18  C   UNL     1      41.998  39.231  66.993  1.00  0.00     0.095 C 
ENDBRANCH  14  17
ENDBRANCH   1  11
BRANCH   2  19
HETATM   19  C   UNL     1      38.184  43.914  62.742  1.00  0.00     0.132 C 
BRANCH  19  20
HETATM   20  C   UNL     1      37.362  42.778  63.364  1.00  0.00     0.058 C 
BRANCH  20  21
HETATM   21  C   UNL     1      38.160  41.517  63.586  1.00  0.00    -0.057 A 
HETATM   22  C   UNL     1      38.038  40.788  64.776  1.00  0.00     0.007 A 
HETATM   23  C   UNL     1      38.764  39.611  64.962  1.00  0.00     0.001 A 
HETATM   24  C   UNL     1      39.616  39.148  63.961  1.00  0.00     0.000 A 
HETATM   25  C   UNL     1      39.742  39.863  62.771  1.00  0.00     0.001 A 
HETATM   26  C   UNL     1      39.019  41.041  62.585  1.00  0.00     0.007 A 
ENDBRANCH  20  21
ENDBRANCH  19  20
ENDBRANCH   2  19
BRANCH  10  27
HETATM   27  C   UNL     1      42.084  47.300  65.976  1.00  0.00     0.026 A 
HETATM   28  C   UNL     1      42.565  47.820  67.188  1.00  0.00     0.078 A 
HETATM   29  C   UNL     1      43.930  47.899  67.452  1.00  0.00     0.037 A 
HETATM   30  C   UNL     1      44.846  47.487  66.486  1.00  0.00     0.003 A 
HETATM   31  C   UNL     1      44.390  46.986  65.268  1.00  0.00     0.001 A 
HETATM   32  C   UNL     1      43.017  46.884  65.019  1.00  0.00     0.016 A 
BRANCH  28  33
HETATM   33  O   UNL     1      41.731  48.287  68.170  1.00  0.00    -0.360 OA
HETATM   34  H   UNL     1      41.551  49.227  67.988  1.00  0.00     0.217 HD
ENDBRANCH  28  33
ENDBRANCH  10  27
TORSDOF 7
ENDMDL
MODEL 6
REMARK VINA RESULT:      -7.1     11.470     12.515
REMARK  7 active torsions:
REMARK  status: ('A' for Active; 'I' for Inactive)
REMARK    1  A    between atoms: S_2  and  C_3 
REMARK    2  A    between atoms: C_6  and  C_7 
REMARK    3  A    between atoms: N_8  and  C_9 
REMARK    4  A    between atoms: C_9  and  C_10 
REMARK    5  A    between atoms: C_10  and  C_11 
REMARK    6  A    between atoms: C_24  and  C_25 
REMARK    7  A    between atoms: C_26  and  O_27 
ROOT
HETATM    1  C   UNL     1      28.551  48.705  40.286  1.00  0.00     0.159 A 
HETATM    2  N   UNL     1      29.832  49.441  40.191  1.00  0.00    -0.333 N 
HETATM    3  C   UNL     1      29.830  50.486  39.253  1.00  0.00     0.275 A 
HETATM    4  O   UNL     1      30.760  51.213  38.945  1.00  0.00    -0.266 OA
HETATM    5  C   UNL     1      28.463  50.526  38.780  1.00  0.00     0.155 A 
HETATM    6  C   UNL     1      27.698  49.523  39.389  1.00  0.00     0.034 A 
HETATM    7  N   UNL     1      27.757  51.313  37.975  1.00  0.00    -0.168 NA
HETATM    8  N   UNL     1      26.514  50.782  38.070  1.00  0.00    -0.276 N 
HETATM    9  H   UNL     1      25.765  51.201  37.527  1.00  0.00     0.189 HD
HETATM   10  C   UNL     1      26.403  49.746  38.986  1.00  0.00     0.074 A 
ENDROOT
BRANCH   1  11
HETATM   11  C   UNL     1      28.621  47.316  39.682  1.00  0.00    -0.031 A 
HETATM   12  C   UNL     1      28.140  46.217  40.410  1.00  0.00     0.011 A 
HETATM   13  C   UNL     1      28.148  44.931  39.856  1.00  0.00     0.019 A 
HETATM   14  C   UNL     1      28.634  44.715  38.565  1.00  0.00    -0.000 A 
HETATM   15  C   UNL     1      29.159  45.791  37.850  1.00  0.00     0.019 A 
HETATM   16  C   UNL     1      29.154  47.075  38.401  1.00  0.00     0.011 A 
BRANCH  14  17
HETATM   17  S   UNL     1      28.594  43.071  37.878  1.00  0.00    -0.134 SA
HETATM   18  C   UNL     1      27.813  42.179  39.253  1.00  0.00     0.095 C 
ENDBRANCH  14  17
ENDBRANCH   1  11
BRANCH   2  19
HETATM   19  C   UNL     1      30.974  49.116  41.031  1.00  0.00     0.132 C 
BRANCH  19  20
HETATM   20  C   UNL     1      30.903  49.807  42.399  1.00  0.00     0.058 C 
BRANCH  20  21
HETATM   21  C   UNL     1      32.194  50.481  42.793  1.00  0.00    -0.057 A 
HETATM   22  C   UNL     1      33.354  50.319  42.026  1.00  0.00     0.007 A 
HETATM   23  C   UNL     1      34.538  50.966  42.387  1.00  0.00     0.001 A 
HETATM   24  C   UNL     1      34.573  51.784  43.515  1.00  0.00     0.000 A 
HETATM   25  C   UNL     1      33.423  51.956  44.283  1.00  0.00     0.001 A 
HETATM   26  C   UNL     1      32.240  51.308  43.925  1.00  0.00     0.007 A 
ENDBRANCH  20  21
ENDBRANCH  19  20
ENDBRANCH   2  19
BRANCH  10  27
HETATM   27  C   UNL     1      25.121  49.145  39.336  1.00  0.00     0.026 A 
HETATM   28  C   UNL     1      23.910  49.648  38.833  1.00  0.00     0.078 A 
HETATM   29  C   UNL     1      22.695  49.031  39.118  1.00  0.00     0.037 A 
HETATM   30  C   UNL     1      22.666  47.911  39.945  1.00  0.00     0.003 A 
HETATM   31  C   UNL     1      23.853  47.406  40.471  1.00  0.00     0.001 A 
HETATM   32  C   UNL     1      25.075  48.014  40.160  1.00  0.00     0.016 A 
BRANCH  28  33
HETATM   33  O   UNL     1      23.851  50.771  38.050  1.00  0.00    -0.360 OA
HETATM   34  H   UNL     1      22.917  50.933  37.829  1.00  0.00     0.217 HD
ENDBRANCH  28  33
ENDBRANCH  10  27
TORSDOF 7
ENDMDL
MODEL 7
REMARK VINA RESULT:      -6.9     18.321     20.533
REMARK  7 active torsions:
REMARK  status: ('A' for Active; 'I' for Inactive)
REMARK    1  A    between atoms: S_2  and  C_3 
REMARK    2  A    between atoms: C_6  and  C_7 
REMARK    3  A    between atoms: N_8  and  C_9 
REMARK    4  A    between atoms: C_9  and  C_10 
REMARK    5  A    between atoms: C_10  and  C_11 
REMARK    6  A    between atoms: C_24  and  C_25 
REMARK    7  A    between atoms: C_26  and  O_27 
ROOT
HETATM    1  C   UNL     1      38.310  45.923  64.410  1.00  0.00     0.159 A 
HETATM    2  N   UNL     1      37.912  44.594  63.890  1.00  0.00    -0.333 N 
HETATM    3  C   UNL     1      36.862  43.988  64.597  1.00  0.00     0.275 A 
HETATM    4  O   UNL     1      36.378  42.884  64.412  1.00  0.00    -0.266 OA
HETATM    5  C   UNL     1      36.462  44.994  65.557  1.00  0.00     0.155 A 
HETATM    6  C   UNL     1      37.267  46.135  65.445  1.00  0.00     0.034 A 
HETATM    7  N   UNL     1      35.491  45.121  66.455  1.00  0.00    -0.168 NA
HETATM    8  N   UNL     1      35.699  46.373  66.930  1.00  0.00    -0.276 N 
HETATM    9  H   UNL     1      35.084  46.722  67.659  1.00  0.00     0.189 HD
HETATM   10  C   UNL     1      36.711  47.068  66.286  1.00  0.00     0.074 A 
ENDROOT
BRANCH   1  11
HETATM   11  C   UNL     1      39.645  45.903  65.126  1.00  0.00    -0.031 A 
HETATM   12  C   UNL     1      40.701  46.695  64.650  1.00  0.00     0.011 A 
HETATM   13  C   UNL     1      41.930  46.732  65.321  1.00  0.00     0.019 A 
HETATM   14  C   UNL     1      42.128  45.983  66.482  1.00  0.00    -0.000 A 
HETATM   15  C   UNL     1      41.103  45.156  66.939  1.00  0.00     0.019 A 
HETATM   16  C   UNL     1      39.878  45.114  66.270  1.00  0.00     0.011 A 
BRANCH  14  17
HETATM   17  S   UNL     1      43.692  46.085  67.332  1.00  0.00    -0.134 SA
HETATM   18  C   UNL     1      44.383  47.561  66.534  1.00  0.00     0.095 C 
ENDBRANCH  14  17
ENDBRANCH   1  11
BRANCH   2  19
HETATM   19  C   UNL     1      38.547  43.999  62.725  1.00  0.00     0.132 C 
BRANCH  19  20
HETATM   20  C   UNL     1      39.903  43.365  63.064  1.00  0.00     0.058 C 
BRANCH  20  21
HETATM   21  C   UNL     1      39.786  41.961  63.605  1.00  0.00    -0.057 A 
HETATM   22  C   UNL     1      39.347  40.910  62.790  1.00  0.00     0.007 A 
HETATM   23  C   UNL     1      39.263  39.611  63.294  1.00  0.00     0.001 A 
HETATM   24  C   UNL     1      39.622  39.348  64.615  1.00  0.00     0.000 A 
HETATM   25  C   UNL     1      40.065  40.385  65.434  1.00  0.00     0.001 A 
HETATM   26  C   UNL     1      40.146  41.685  64.932  1.00  0.00     0.007 A 
ENDBRANCH  20  21
ENDBRANCH  19  20
ENDBRANCH   2  19
BRANCH  10  27
HETATM   27  C   UNL     1      36.988  48.474  66.555  1.00  0.00     0.026 A 
HETATM   28  C   UNL     1      36.761  49.041  67.820  1.00  0.00     0.078 A 
HETATM   29  C   UNL     1      37.088  50.367  68.089  1.00  0.00     0.037 A 
HETATM   30  C   UNL     1      37.619  51.167  67.080  1.00  0.00     0.003 A 
HETATM   31  C   UNL     1      37.834  50.631  65.812  1.00  0.00     0.001 A 
HETATM   32  C   UNL     1      37.529  49.290  65.554  1.00  0.00     0.016 A 
BRANCH  28  33
HETATM   33  O   UNL     1      36.201  48.333  68.851  1.00  0.00    -0.360 OA
HETATM   34  H   UNL     1      35.477  47.794  68.486  1.00  0.00     0.217 HD
ENDBRANCH  28  33
ENDBRANCH  10  27
TORSDOF 7
ENDMDL
MODEL 8
REMARK VINA RESULT:      -6.9     10.879     13.305
REMARK  7 active torsions:
REMARK  status: ('A' for Active; 'I' for Inactive)
REMARK    1  A    between atoms: S_2  and  C_3 
REMARK    2  A    between atoms: C_6  and  C_7 
REMARK    3  A    between atoms: N_8  and  C_9 
REMARK    4  A    between atoms: C_9  and  C_10 
REMARK    5  A    between atoms: C_10  and  C_11 
REMARK    6  A    between atoms: C_24  and  C_25 
REMARK    7  A    between atoms: C_26  and  O_27 
ROOT
HETATM    1  C   UNL     1      26.817  48.041  39.602  1.00  0.00     0.159 A 
HETATM    2  N   UNL     1      26.469  48.960  38.494  1.00  0.00    -0.333 N 
HETATM    3  C   UNL     1      26.252  48.323  37.261  1.00  0.00     0.275 A 
HETATM    4  O   UNL     1      26.002  48.843  36.187  1.00  0.00    -0.266 OA
HETATM    5  C   UNL     1      26.347  46.913  37.577  1.00  0.00     0.155 A 
HETATM    6  C   UNL     1      26.643  46.728  38.933  1.00  0.00     0.034 A 
HETATM    7  N   UNL     1      26.159  45.776  36.917  1.00  0.00    -0.168 NA
HETATM    8  N   UNL     1      26.353  44.846  37.884  1.00  0.00    -0.276 N 
HETATM    9  H   UNL     1      26.278  43.865  37.634  1.00  0.00     0.189 HD
HETATM   10  C   UNL     1      26.562  45.374  39.150  1.00  0.00     0.074 A 
ENDROOT
BRANCH   1  11
HETATM   11  C   UNL     1      28.273  48.137  40.014  1.00  0.00    -0.031 A 
HETATM   12  C   UNL     1      28.600  48.395  41.354  1.00  0.00     0.011 A 
HETATM   13  C   UNL     1      29.936  48.441  41.771  1.00  0.00     0.019 A 
HETATM   14  C   UNL     1      30.972  48.226  40.860  1.00  0.00    -0.000 A 
HETATM   15  C   UNL     1      30.662  48.016  39.517  1.00  0.00     0.019 A 
HETATM   16  C   UNL     1      29.330  47.973  39.098  1.00  0.00     0.011 A 
BRANCH  14  17
HETATM   17  S   UNL     1      32.660  48.253  41.433  1.00  0.00    -0.134 SA
HETATM   18  C   UNL     1      32.707  49.907  42.181  1.00  0.00     0.095 C 
ENDBRANCH  14  17
ENDBRANCH   1  11
BRANCH   2  19
HETATM   19  C   UNL     1      26.335  50.394  38.692  1.00  0.00     0.132 C 
BRANCH  19  20
HETATM   20  C   UNL     1      27.569  51.164  38.204  1.00  0.00     0.058 C 
BRANCH  20  21
HETATM   21  C   UNL     1      28.479  51.603  39.325  1.00  0.00    -0.057 A 
HETATM   22  C   UNL     1      29.858  51.739  39.121  1.00  0.00     0.007 A 
HETATM   23  C   UNL     1      30.688  52.167  40.158  1.00  0.00     0.001 A 
HETATM   24  C   UNL     1      30.149  52.468  41.408  1.00  0.00     0.000 A 
HETATM   25  C   UNL     1      28.778  52.340  41.621  1.00  0.00     0.001 A 
HETATM   26  C   UNL     1      27.947  51.910  40.586  1.00  0.00     0.007 A 
ENDBRANCH  20  21
ENDBRANCH  19  20
ENDBRANCH   2  19
BRANCH  10  27
HETATM   27  C   UNL     1      26.647  44.537  40.341  1.00  0.00     0.026 A 
HETATM   28  C   UNL     1      27.457  43.390  40.379  1.00  0.00     0.078 A 
HETATM   29  C   UNL     1      27.584  42.631  41.540  1.00  0.00     0.037 A 
HETATM   30  C   UNL     1      26.871  42.989  42.682  1.00  0.00     0.003 A 
HETATM   31  C   UNL     1      26.047  44.112  42.660  1.00  0.00     0.001 A 
HETATM   32  C   UNL     1      25.943  44.887  41.500  1.00  0.00     0.016 A 
BRANCH  28  33
HETATM   33  O   UNL     1      28.153  42.947  39.286  1.00  0.00    -0.360 OA
HETATM   34  H   UNL     1      28.260  43.697  38.674  1.00  0.00     0.217 HD
ENDBRANCH  28  33
ENDBRANCH  10  27
TORSDOF 7
ENDMDL
MODEL 9
REMARK VINA RESULT:      -6.8      8.201     11.469
REMARK  7 active torsions:
REMARK  status: ('A' for Active; 'I' for Inactive)
REMARK    1  A    between atoms: S_2  and  C_3 
REMARK    2  A    between atoms: C_6  and  C_7 
REMARK    3  A    between atoms: N_8  and  C_9 
REMARK    4  A    between atoms: C_9  and  C_10 
REMARK    5  A    between atoms: C_10  and  C_11 
REMARK    6  A    between atoms: C_24  and  C_25 
REMARK    7  A    between atoms: C_26  and  O_27 
ROOT
HETATM    1  C   UNL     1      18.156  49.632  47.473  1.00  0.00     0.159 A 
HETATM    2  N   UNL     1      18.198  48.324  48.167  1.00  0.00    -0.333 N 
HETATM    3  C   UNL     1      17.346  47.353  47.619  1.00  0.00     0.275 A 
HETATM    4  O   UNL     1      17.152  46.218  48.022  1.00  0.00    -0.266 OA
HETATM    5  C   UNL     1      16.794  47.995  46.445  1.00  0.00     0.155 A 
HETATM    6  C   UNL     1      17.275  49.305  46.325  1.00  0.00     0.034 A 
HETATM    7  N   UNL     1      16.011  47.626  45.438  1.00  0.00    -0.168 NA
HETATM    8  N   UNL     1      15.988  48.741  44.667  1.00  0.00    -0.276 N 
HETATM    9  H   UNL     1      15.433  48.730  43.816  1.00  0.00     0.189 HD
HETATM   10  C   UNL     1      16.812  49.762  45.115  1.00  0.00     0.074 A 
ENDROOT
BRANCH   1  11
HETATM   11  C   UNL     1      17.452  50.706  48.279  1.00  0.00    -0.031 A 
HETATM   12  C   UNL     1      18.203  51.726  48.882  1.00  0.00     0.011 A 
HETATM   13  C   UNL     1      17.574  52.757  49.591  1.00  0.00     0.019 A 
HETATM   14  C   UNL     1      16.183  52.793  49.709  1.00  0.00    -0.000 A 
HETATM   15  C   UNL     1      15.429  51.759  49.155  1.00  0.00     0.019 A 
HETATM   16  C   UNL     1      16.054  50.728  48.450  1.00  0.00     0.011 A 
BRANCH  14  17
HETATM   17  S   UNL     1      15.413  54.142  50.585  1.00  0.00    -0.134 SA
HETATM   18  C   UNL     1      13.700  53.541  50.634  1.00  0.00     0.095 C 
ENDBRANCH  14  17
ENDBRANCH   1  11
BRANCH   2  19
HETATM   19  C   UNL     1      19.078  48.077  49.297  1.00  0.00     0.132 C 
BRANCH  19  20
HETATM   20  C   UNL     1      20.507  47.733  48.856  1.00  0.00     0.058 C 
BRANCH  20  21
HETATM   21  C   UNL     1      21.412  48.939  48.777  1.00  0.00    -0.057 A 
HETATM   22  C   UNL     1      21.235  50.029  49.639  1.00  0.00     0.007 A 
HETATM   23  C   UNL     1      22.091  51.129  49.573  1.00  0.00     0.001 A 
HETATM   24  C   UNL     1      23.135  51.149  48.650  1.00  0.00     0.000 A 
HETATM   25  C   UNL     1      23.324  50.068  47.791  1.00  0.00     0.001 A 
HETATM   26  C   UNL     1      22.467  48.969  47.854  1.00  0.00     0.007 A 
ENDBRANCH  20  21
ENDBRANCH  19  20
ENDBRANCH   2  19
BRANCH  10  27
HETATM   27  C   UNL     1      17.034  50.982  44.347  1.00  0.00     0.026 A 
HETATM   28  C   UNL     1      17.564  50.947  43.046  1.00  0.00     0.078 A 
HETATM   29  C   UNL     1      17.714  52.108  42.293  1.00  0.00     0.037 A 
HETATM   30  C   UNL     1      17.366  53.339  42.844  1.00  0.00     0.003 A 
HETATM   31  C   UNL     1      16.856  53.399  44.140  1.00  0.00     0.001 A 
HETATM   32  C   UNL     1      16.683  52.227  44.883  1.00  0.00     0.016 A 
BRANCH  28  33
HETATM   33  O   UNL     1      17.972  49.781  42.451  1.00  0.00    -0.360 OA
HETATM   34  H   UNL     1      18.702  49.995  41.843  1.00  0.00     0.217 HD
ENDBRANCH  28  33
ENDBRANCH  10  27
TORSDOF 7
ENDMDL
MODEL 10
REMARK VINA RESULT:      -6.7     10.655     12.715
REMARK  7 active torsions:
REMARK  status: ('A' for Active; 'I' for Inactive)
REMARK    1  A    between atoms: S_2  and  C_3 
REMARK    2  A    between atoms: C_6  and  C_7 
REMARK    3  A    between atoms: N_8  and  C_9 
REMARK    4  A    between atoms: C_9  and  C_10 
REMARK    5  A    between atoms: C_10  and  C_11 
REMARK    6  A    between atoms: C_24  and  C_25 
REMARK    7  A    between atoms: C_26  and  O_27 
ROOT
HETATM    1  C   UNL     1      27.418  48.789  40.560  1.00  0.00     0.159 A 
HETATM    2  N   UNL     1      27.129  49.972  39.717  1.00  0.00    -0.333 N 
HETATM    3  C   UNL     1      26.739  49.663  38.404  1.00  0.00     0.275 A 
HETATM    4  O   UNL     1      26.492  50.441  37.498  1.00  0.00    -0.266 OA
HETATM    5  C   UNL     1      26.652  48.219  38.397  1.00  0.00     0.155 A 
HETATM    6  C   UNL     1      27.011  47.694  39.645  1.00  0.00     0.034 A 
HETATM    7  N   UNL     1      26.256  47.293  37.529  1.00  0.00    -0.168 NA
HETATM    8  N   UNL     1      26.381  46.152  38.249  1.00  0.00    -0.276 N 
HETATM    9  H   UNL     1      26.149  45.270  37.802  1.00  0.00     0.189 HD
HETATM   10  C   UNL     1      26.751  46.347  39.571  1.00  0.00     0.074 A 
ENDROOT
BRANCH   1  11
HETATM   11  C   UNL     1      28.897  48.606  40.836  1.00  0.00    -0.031 A 
HETATM   12  C   UNL     1      29.390  48.801  42.136  1.00  0.00     0.011 A 
HETATM   13  C   UNL     1      30.744  48.592  42.429  1.00  0.00     0.019 A 
HETATM   14  C   UNL     1      31.631  48.181  41.432  1.00  0.00    -0.000 A 
HETATM   15  C   UNL     1      31.163  48.030  40.128  1.00  0.00     0.019 A 
HETATM   16  C   UNL     1      29.814  48.241  39.832  1.00  0.00     0.011 A 
BRANCH  14  17
HETATM   17  S   UNL     1      33.340  47.886  41.849  1.00  0.00    -0.134 SA
HETATM   18  C   UNL     1      34.084  49.408  41.198  1.00  0.00     0.095 C 
ENDBRANCH  14  17
ENDBRANCH   1  11
BRANCH   2  19
HETATM   19  C   UNL     1      27.218  51.328  40.232  1.00  0.00     0.132 C 
BRANCH  19  20
HETATM   20  C   UNL     1      28.380  52.111  39.608  1.00  0.00     0.058 C 
BRANCH  20  21
HETATM   21  C   UNL     1      29.602  52.170  40.492  1.00  0.00    -0.057 A 
HETATM   22  C   UNL     1      29.487  52.444  41.861  1.00  0.00     0.007 A 
HETATM   23  C   UNL     1      30.620  52.474  42.675  1.00  0.00     0.001 A 
HETATM   24  C   UNL     1      31.879  52.226  42.130  1.00  0.00     0.000 A 
HETATM   25  C   UNL     1      32.005  51.947  40.771  1.00  0.00     0.001 A 
HETATM   26  C   UNL     1      30.873  51.920  39.956  1.00  0.00     0.007 A 
ENDBRANCH  20  21
ENDBRANCH  19  20
ENDBRANCH   2  19
BRANCH  10  27
HETATM   27  C   UNL     1      26.797  45.258  40.540  1.00  0.00     0.026 A 
HETATM   28  C   UNL     1      25.977  45.251  41.680  1.00  0.00     0.078 A 
HETATM   29  C   UNL     1      25.978  44.178  42.567  1.00  0.00     0.037 A 
HETATM   30  C   UNL     1      26.830  43.099  42.347  1.00  0.00     0.003 A 
HETATM   31  C   UNL     1      27.667  43.094  41.232  1.00  0.00     0.001 A 
HETATM   32  C   UNL     1      27.643  44.162  40.329  1.00  0.00     0.016 A 
BRANCH  28  33
HETATM   33  O   UNL     1      25.144  46.294  41.990  1.00  0.00    -0.360 OA
HETATM   34  H   UNL     1      25.106  46.887  41.219  1.00  0.00     0.217 HD
ENDBRANCH  28  33
ENDBRANCH  10  27
TORSDOF 7
ENDMDL
