MODEL 1
REMARK VINA RESULT:      -8.3      0.000      0.000
REMARK  5 active torsions:
REMARK  status: ('A' for Active; 'I' for Inactive)
REMARK    1  A    between atoms: C_2  and  C_3 
REMARK    2  A    between atoms: C_3  and  N_4 
REMARK       I    between atoms: N_4  and  C_5 
REMARK    3  A    between atoms: C_5  and  C_6 
REMARK    4  A    between atoms: C_10  and  N_11 
REMARK       I    between atoms: N_11  and  C_12 
REMARK       I    between atoms: C_12  and  N_13 
REMARK    5  A    between atoms: N_13  and  C_14 
ROOT
HETATM    1  C   UNL     1      27.438  43.551  52.700  1.00  0.00     0.053 A 
HETATM    2  C   UNL     1      26.228  44.010  53.233  1.00  0.00     0.051 A 
HETATM    3 CL   UNL     1      25.769  43.780  54.885  1.00  0.00    -0.083 Cl
HETATM    4  C   UNL     1      25.309  44.683  52.414  1.00  0.00     0.054 A 
HETATM    5  C   UNL     1      25.581  44.906  51.061  1.00  0.00     0.038 A 
HETATM    6  C   UNL     1      26.752  44.375  50.513  1.00  0.00     0.030 A 
HETATM    7  C   UNL     1      27.673  43.707  51.324  1.00  0.00     0.021 A 
ENDROOT
BRANCH   5   8
HETATM    8  N   UNL     1      24.757  45.669  50.206  1.00  0.00    -0.309 N 
HETATM    9  C   UNL     1      24.591  47.048  50.228  1.00  0.00     0.325 C 
HETATM   10  N   UNL     1      23.807  47.456  49.166  1.00  0.00    -0.305 N 
HETATM   11  O   UNL     1      25.094  47.795  51.055  1.00  0.00    -0.247 OA
HETATM   12  H   UNL     1      23.151  46.787  48.797  1.00  0.00     0.171 HD
HETATM   13  H   UNL     1      24.446  45.209  49.363  1.00  0.00     0.170 HD
BRANCH  10  14
HETATM   14  C   UNL     1      23.670  48.756  48.704  1.00  0.00     0.086 A 
HETATM   15  C   UNL     1      24.602  49.745  48.266  1.00  0.00     0.079 A 
HETATM   16  C   UNL     1      26.082  49.692  48.144  1.00  0.00     0.075 C 
HETATM   17  N   UNL     1      23.977  50.866  47.874  1.00  0.00    -0.177 NA
HETATM   18  N   UNL     1      22.681  50.599  48.045  1.00  0.00    -0.280 N 
HETATM   19  H   UNL     1      22.012  51.323  47.801  1.00  0.00     0.189 HD
HETATM   20  C   UNL     1      22.431  49.343  48.521  1.00  0.00     0.052 A 
HETATM   21  C   UNL     1      21.047  48.863  48.738  1.00  0.00     0.072 C 
ENDBRANCH  10  14
ENDBRANCH   5   8
BRANCH   1  22
HETATM   22  C   UNL     1      28.550  42.951  53.487  1.00  0.00     0.253 C 
HETATM   23  N   UNL     1      29.295  43.809  54.260  1.00  0.00    -0.357 N 
HETATM   24  H   UNL     1      29.038  44.788  54.302  1.00  0.00     0.162 HD
HETATM   25  O   UNL     1      28.818  41.761  53.351  1.00  0.00    -0.268 OA
BRANCH  23  26
HETATM   26  C   UNL     1      30.537  43.411  54.888  1.00  0.00     0.122 C 
BRANCH  26  27
HETATM   27  C   UNL     1      30.796  44.179  56.185  1.00  0.00     0.015 C 
HETATM   28  C   UNL     1      31.759  43.455  57.116  1.00  0.00     0.006 C 
ENDBRANCH  26  27
ENDBRANCH  23  26
ENDBRANCH   1  22
TORSDOF 5
ENDMDL
MODEL 2
REMARK VINA RESULT:      -8.2      3.107      9.340
REMARK  5 active torsions:
REMARK  status: ('A' for Active; 'I' for Inactive)
REMARK    1  A    between atoms: C_2  and  C_3 
REMARK    2  A    between atoms: C_3  and  N_4 
REMARK       I    between atoms: N_4  and  C_5 
REMARK    3  A    between atoms: C_5  and  C_6 
REMARK    4  A    between atoms: C_10  and  N_11 
REMARK       I    between atoms: N_11  and  C_12 
REMARK       I    between atoms: C_12  and  N_13 
REMARK    5  A    between atoms: N_13  and  C_14 
ROOT
HETATM    1  C   UNL     1      24.741  48.612  49.061  1.00  0.00     0.053 A 
HETATM    2  C   UNL     1      26.103  48.462  49.344  1.00  0.00     0.051 A 
HETATM    3 CL   UNL     1      27.305  49.613  48.872  1.00  0.00    -0.083 Cl
HETATM    4  C   UNL     1      26.557  47.327  50.033  1.00  0.00     0.054 A 
HETATM    5  C   UNL     1      25.666  46.332  50.445  1.00  0.00     0.038 A 
HETATM    6  C   UNL     1      24.320  46.444  50.089  1.00  0.00     0.030 A 
HETATM    7  C   UNL     1      23.860  47.574  49.406  1.00  0.00     0.021 A 
ENDROOT
BRANCH   5   8
HETATM    8  N   UNL     1      26.033  45.222  51.236  1.00  0.00    -0.309 N 
HETATM    9  C   UNL     1      26.497  43.995  50.778  1.00  0.00     0.325 C 
HETATM   10  N   UNL     1      26.876  43.196  51.840  1.00  0.00    -0.305 N 
HETATM   11  O   UNL     1      26.585  43.681  49.599  1.00  0.00    -0.247 OA
HETATM   12  H   UNL     1      26.423  43.365  52.724  1.00  0.00     0.171 HD
HETATM   13  H   UNL     1      26.197  45.409  52.214  1.00  0.00     0.170 HD
BRANCH  10  14
HETATM   14  C   UNL     1      27.641  42.043  51.763  1.00  0.00     0.086 A 
HETATM   15  C   UNL     1      27.432  40.767  51.159  1.00  0.00     0.079 A 
HETATM   16  C   UNL     1      26.287  40.246  50.370  1.00  0.00     0.075 C 
HETATM   17  N   UNL     1      28.496  39.966  51.328  1.00  0.00    -0.177 NA
HETATM   18  N   UNL     1      29.366  40.712  52.012  1.00  0.00    -0.280 N 
HETATM   19  H   UNL     1      30.262  40.298  52.249  1.00  0.00     0.189 HD
HETATM   20  C   UNL     1      28.920  41.974  52.286  1.00  0.00     0.052 A 
HETATM   21  C   UNL     1      29.767  42.952  53.006  1.00  0.00     0.072 C 
ENDBRANCH  10  14
ENDBRANCH   5   8
BRANCH   1  22
HETATM   22  C   UNL     1      24.116  49.824  48.464  1.00  0.00     0.253 C 
HETATM   23  N   UNL     1      23.006  50.326  49.102  1.00  0.00    -0.357 N 
HETATM   24  H   UNL     1      22.689  49.892  49.960  1.00  0.00     0.162 HD
HETATM   25  O   UNL     1      24.541  50.268  47.402  1.00  0.00    -0.268 OA
BRANCH  23  26
HETATM   26  C   UNL     1      22.166  51.348  48.513  1.00  0.00     0.122 C 
BRANCH  26  27
HETATM   27  C   UNL     1      20.716  50.886  48.372  1.00  0.00     0.015 C 
HETATM   28  C   UNL     1      19.713  51.990  48.678  1.00  0.00     0.006 C 
ENDBRANCH  26  27
ENDBRANCH  23  26
ENDBRANCH   1  22
TORSDOF 5
ENDMDL
MODEL 3
REMARK VINA RESULT:      -7.9      3.049      4.178
REMARK  5 active torsions:
REMARK  status: ('A' for Active; 'I' for Inactive)
REMARK    1  A    between atoms: C_2  and  C_3 
REMARK    2  A    between atoms: C_3  and  N_4 
REMARK       I    between atoms: N_4  and  C_5 
REMARK    3  A    between atoms: C_5  and  C_6 
REMARK    4  A    between atoms: C_10  and  N_11 
REMARK       I    between atoms: N_11  and  C_12 
REMARK       I    between atoms: C_12  and  N_13 
REMARK    5  A    between atoms: N_13  and  C_14 
ROOT
HETATM    1  C   UNL     1      27.848  45.993  55.296  1.00  0.00     0.053 A 
HETATM    2  C   UNL     1      26.990  46.976  54.789  1.00  0.00     0.051 A 
HETATM    3 CL   UNL     1      26.616  48.440  55.632  1.00  0.00    -0.083 Cl
HETATM    4  C   UNL     1      26.371  46.795  53.542  1.00  0.00     0.054 A 
HETATM    5  C   UNL     1      26.598  45.639  52.789  1.00  0.00     0.038 A 
HETATM    6  C   UNL     1      27.389  44.624  53.334  1.00  0.00     0.030 A 
HETATM    7  C   UNL     1      28.010  44.800  54.574  1.00  0.00     0.021 A 
ENDROOT
BRANCH   5   8
HETATM    8  N   UNL     1      26.101  45.438  51.484  1.00  0.00    -0.309 N 
HETATM    9  C   UNL     1      24.877  44.879  51.139  1.00  0.00     0.325 C 
HETATM   10  N   UNL     1      24.678  44.958  49.774  1.00  0.00    -0.305 N 
HETATM   11  O   UNL     1      24.077  44.412  51.938  1.00  0.00    -0.247 OA
HETATM   12  H   UNL     1      25.500  44.986  49.192  1.00  0.00     0.171 HD
HETATM   13  H   UNL     1      26.564  45.952  50.749  1.00  0.00     0.170 HD
BRANCH  10  14
HETATM   14  C   UNL     1      23.475  44.772  49.111  1.00  0.00     0.086 A 
HETATM   15  C   UNL     1      22.730  43.613  48.738  1.00  0.00     0.079 A 
HETATM   16  C   UNL     1      23.007  42.171  48.963  1.00  0.00     0.075 C 
HETATM   17  N   UNL     1      21.583  43.946  48.126  1.00  0.00    -0.177 NA
HETATM   18  N   UNL     1      21.587  45.281  48.118  1.00  0.00    -0.280 N 
HETATM   19  H   UNL     1      20.793  45.754  47.698  1.00  0.00     0.189 HD
HETATM   20  C   UNL     1      22.685  45.835  48.712  1.00  0.00     0.052 A 
HETATM   21  C   UNL     1      22.841  47.304  48.825  1.00  0.00     0.072 C 
ENDBRANCH  10  14
ENDBRANCH   5   8
BRANCH   1  22
HETATM   22  C   UNL     1      28.668  46.124  56.532  1.00  0.00     0.253 C 
HETATM   23  N   UNL     1      29.994  45.775  56.434  1.00  0.00    -0.357 N 
HETATM   24  H   UNL     1      30.367  45.492  55.535  1.00  0.00     0.162 HD
HETATM   25  O   UNL     1      28.130  46.439  57.588  1.00  0.00    -0.268 OA
BRANCH  23  26
HETATM   26  C   UNL     1      30.847  45.629  57.594  1.00  0.00     0.122 C 
BRANCH  26  27
HETATM   27  C   UNL     1      31.321  44.188  57.780  1.00  0.00     0.015 C 
HETATM   28  C   UNL     1      31.229  43.367  56.501  1.00  0.00     0.006 C 
ENDBRANCH  26  27
ENDBRANCH  23  26
ENDBRANCH   1  22
TORSDOF 5
ENDMDL
MODEL 4
REMARK VINA RESULT:      -7.9      5.841      7.958
REMARK  5 active torsions:
REMARK  status: ('A' for Active; 'I' for Inactive)
REMARK    1  A    between atoms: C_2  and  C_3 
REMARK    2  A    between atoms: C_3  and  N_4 
REMARK       I    between atoms: N_4  and  C_5 
REMARK    3  A    between atoms: C_5  and  C_6 
REMARK    4  A    between atoms: C_10  and  N_11 
REMARK       I    between atoms: N_11  and  C_12 
REMARK       I    between atoms: C_12  and  N_13 
REMARK    5  A    between atoms: N_13  and  C_14 
ROOT
HETATM    1  C   UNL     1      28.453  44.323  54.343  1.00  0.00     0.053 A 
HETATM    2  C   UNL     1      29.303  43.216  54.235  1.00  0.00     0.051 A 
HETATM    3 CL   UNL     1      30.847  43.123  55.010  1.00  0.00    -0.083 Cl
HETATM    4  C   UNL     1      28.924  42.113  53.455  1.00  0.00     0.054 A 
HETATM    5  C   UNL     1      27.702  42.097  52.777  1.00  0.00     0.038 A 
HETATM    6  C   UNL     1      26.893  43.236  52.821  1.00  0.00     0.030 A 
HETATM    7  C   UNL     1      27.263  44.338  53.598  1.00  0.00     0.021 A 
ENDROOT
BRANCH   5   8
HETATM    8  N   UNL     1      27.207  40.982  52.068  1.00  0.00    -0.309 N 
HETATM    9  C   UNL     1      27.547  40.605  50.775  1.00  0.00     0.325 C 
HETATM   10  N   UNL     1      26.962  39.393  50.457  1.00  0.00    -0.305 N 
HETATM   11  O   UNL     1      28.285  41.241  50.036  1.00  0.00    -0.247 OA
HETATM   12  H   UNL     1      26.109  39.157  50.937  1.00  0.00     0.171 HD
HETATM   13  H   UNL     1      26.751  40.271  52.621  1.00  0.00     0.170 HD
BRANCH  10  14
HETATM   14  C   UNL     1      27.301  38.578  49.388  1.00  0.00     0.086 A 
HETATM   15  C   UNL     1      26.752  38.396  48.082  1.00  0.00     0.079 A 
HETATM   16  C   UNL     1      25.605  39.061  47.414  1.00  0.00     0.075 C 
HETATM   17  N   UNL     1      27.457  37.497  47.378  1.00  0.00    -0.177 NA
HETATM   18  N   UNL     1      28.436  37.122  48.204  1.00  0.00    -0.280 N 
HETATM   19  H   UNL     1      29.104  36.437  47.867  1.00  0.00     0.189 HD
HETATM   20  C   UNL     1      28.408  37.750  49.417  1.00  0.00     0.052 A 
HETATM   21  C   UNL     1      29.438  37.483  50.447  1.00  0.00     0.072 C 
ENDBRANCH  10  14
ENDBRANCH   5   8
BRANCH   1  22
HETATM   22  C   UNL     1      28.672  45.489  55.242  1.00  0.00     0.253 C 
HETATM   23  N   UNL     1      29.044  45.212  56.537  1.00  0.00    -0.357 N 
HETATM   24  H   UNL     1      29.197  44.249  56.813  1.00  0.00     0.162 HD
HETATM   25  O   UNL     1      28.430  46.623  54.839  1.00  0.00    -0.268 OA
BRANCH  23  26
HETATM   26  C   UNL     1      29.065  46.222  57.574  1.00  0.00     0.122 C 
BRANCH  26  27
HETATM   27  C   UNL     1      30.384  46.222  58.347  1.00  0.00     0.015 C 
HETATM   28  C   UNL     1      31.103  44.881  58.287  1.00  0.00     0.006 C 
ENDBRANCH  26  27
ENDBRANCH  23  26
ENDBRANCH   1  22
TORSDOF 5
ENDMDL
MODEL 5
REMARK VINA RESULT:      -7.6      5.854      7.417
REMARK  5 active torsions:
REMARK  status: ('A' for Active; 'I' for Inactive)
REMARK    1  A    between atoms: C_2  and  C_3 
REMARK    2  A    between atoms: C_3  and  N_4 
REMARK       I    between atoms: N_4  and  C_5 
REMARK    3  A    between atoms: C_5  and  C_6 
REMARK    4  A    between atoms: C_10  and  N_11 
REMARK       I    between atoms: N_11  and  C_12 
REMARK       I    between atoms: C_12  and  N_13 
REMARK    5  A    between atoms: N_13  and  C_14 
ROOT
HETATM    1  C   UNL     1      28.566  43.959  54.142  1.00  0.00     0.053 A 
HETATM    2  C   UNL     1      27.796  44.168  52.992  1.00  0.00     0.051 A 
HETATM    3 CL   UNL     1      26.782  45.551  52.765  1.00  0.00    -0.083 Cl
HETATM    4  C   UNL     1      27.811  43.223  51.954  1.00  0.00     0.054 A 
HETATM    5  C   UNL     1      28.587  42.065  52.048  1.00  0.00     0.038 A 
HETATM    6  C   UNL     1      29.289  41.819  53.231  1.00  0.00     0.030 A 
HETATM    7  C   UNL     1      29.281  42.757  54.267  1.00  0.00     0.021 A 
ENDROOT
BRANCH   5   8
HETATM    8  N   UNL     1      28.738  41.129  51.002  1.00  0.00    -0.309 N 
HETATM    9  C   UNL     1      27.721  40.442  50.351  1.00  0.00     0.325 C 
HETATM   10  N   UNL     1      28.233  39.707  49.299  1.00  0.00    -0.305 N 
HETATM   11  O   UNL     1      26.537  40.506  50.650  1.00  0.00    -0.247 OA
HETATM   12  H   UNL     1      29.193  39.413  49.370  1.00  0.00     0.171 HD
HETATM   13  H   UNL     1      29.630  41.131  50.530  1.00  0.00     0.170 HD
BRANCH  10  14
HETATM   14  C   UNL     1      27.502  39.140  48.267  1.00  0.00     0.086 A 
HETATM   15  C   UNL     1      27.216  39.548  46.929  1.00  0.00     0.079 A 
HETATM   16  C   UNL     1      27.641  40.754  46.174  1.00  0.00     0.075 C 
HETATM   17  N   UNL     1      26.476  38.631  46.286  1.00  0.00    -0.177 NA
HETATM   18  N   UNL     1      26.301  37.658  47.183  1.00  0.00    -0.280 N 
HETATM   19  H   UNL     1      25.763  36.846  46.902  1.00  0.00     0.189 HD
HETATM   20  C   UNL     1      26.910  37.895  48.383  1.00  0.00     0.052 A 
HETATM   21  C   UNL     1      26.852  36.907  49.485  1.00  0.00     0.072 C 
ENDBRANCH  10  14
ENDBRANCH   5   8
BRANCH   1  22
HETATM   22  C   UNL     1      28.744  44.941  55.246  1.00  0.00     0.253 C 
HETATM   23  N   UNL     1      30.003  45.037  55.791  1.00  0.00    -0.357 N 
HETATM   24  H   UNL     1      30.756  44.483  55.400  1.00  0.00     0.162 HD
HETATM   25  O   UNL     1      27.772  45.547  55.684  1.00  0.00    -0.268 OA
BRANCH  23  26
HETATM   26  C   UNL     1      30.269  45.770  57.010  1.00  0.00     0.122 C 
BRANCH  26  27
HETATM   27  C   UNL     1      30.991  44.912  58.050  1.00  0.00     0.015 C 
HETATM   28  C   UNL     1      31.612  43.657  57.450  1.00  0.00     0.006 C 
ENDBRANCH  26  27
ENDBRANCH  23  26
ENDBRANCH   1  22
TORSDOF 5
ENDMDL
MODEL 6
REMARK VINA RESULT:      -7.5      3.222      9.210
REMARK  5 active torsions:
REMARK  status: ('A' for Active; 'I' for Inactive)
REMARK    1  A    between atoms: C_2  and  C_3 
REMARK    2  A    between atoms: C_3  and  N_4 
REMARK       I    between atoms: N_4  and  C_5 
REMARK    3  A    between atoms: C_5  and  C_6 
REMARK    4  A    between atoms: C_10  and  N_11 
REMARK       I    between atoms: N_11  and  C_12 
REMARK       I    between atoms: C_12  and  N_13 
REMARK    5  A    between atoms: N_13  and  C_14 
ROOT
HETATM    1  C   UNL     1      23.568  47.641  49.315  1.00  0.00     0.053 A 
HETATM    2  C   UNL     1      22.958  46.523  48.733  1.00  0.00     0.051 A 
HETATM    3 CL   UNL     1      21.796  46.632  47.456  1.00  0.00    -0.083 Cl
HETATM    4  C   UNL     1      23.269  45.234  49.191  1.00  0.00     0.054 A 
HETATM    5  C   UNL     1      24.186  45.042  50.229  1.00  0.00     0.038 A 
HETATM    6  C   UNL     1      24.730  46.161  50.862  1.00  0.00     0.030 A 
HETATM    7  C   UNL     1      24.427  47.449  50.409  1.00  0.00     0.021 A 
ENDROOT
BRANCH   5   8
HETATM    8  N   UNL     1      24.629  43.775  50.665  1.00  0.00    -0.309 N 
HETATM    9  C   UNL     1      25.914  43.260  50.545  1.00  0.00     0.325 C 
HETATM   10  N   UNL     1      26.009  42.044  51.196  1.00  0.00    -0.305 N 
HETATM   11  O   UNL     1      26.837  43.821  49.971  1.00  0.00    -0.247 OA
HETATM   12  H   UNL     1      25.162  41.506  51.286  1.00  0.00     0.171 HD
HETATM   13  H   UNL     1      24.031  43.298  51.324  1.00  0.00     0.170 HD
BRANCH  10  14
HETATM   14  C   UNL     1      27.182  41.387  51.534  1.00  0.00     0.086 A 
HETATM   15  C   UNL     1      28.063  41.468  52.654  1.00  0.00     0.079 A 
HETATM   16  C   UNL     1      27.995  42.305  53.879  1.00  0.00     0.075 C 
HETATM   17  N   UNL     1      29.073  40.591  52.545  1.00  0.00    -0.177 NA
HETATM   18  N   UNL     1      28.840  39.958  51.394  1.00  0.00    -0.280 N 
HETATM   19  H   UNL     1      29.491  39.234  51.111  1.00  0.00     0.189 HD
HETATM   20  C   UNL     1      27.709  40.377  50.750  1.00  0.00     0.052 A 
HETATM   21  C   UNL     1      27.276  39.761  49.475  1.00  0.00     0.072 C 
ENDBRANCH  10  14
ENDBRANCH   5   8
BRANCH   1  22
HETATM   22  C   UNL     1      23.431  49.043  48.833  1.00  0.00     0.253 C 
HETATM   23  N   UNL     1      22.629  49.876  49.576  1.00  0.00    -0.357 N 
HETATM   24  H   UNL     1      22.208  49.529  50.430  1.00  0.00     0.162 HD
HETATM   25  O   UNL     1      23.945  49.373  47.770  1.00  0.00    -0.268 OA
BRANCH  23  26
HETATM   26  C   UNL     1      22.220  51.183  49.107  1.00  0.00     0.122 C 
BRANCH  26  27
HETATM   27  C   UNL     1      20.784  51.180  48.581  1.00  0.00     0.015 C 
HETATM   28  C   UNL     1      19.748  51.240  49.695  1.00  0.00     0.006 C 
ENDBRANCH  26  27
ENDBRANCH  23  26
ENDBRANCH   1  22
TORSDOF 5
ENDMDL
MODEL 7
REMARK VINA RESULT:      -7.3      4.797      5.763
REMARK  5 active torsions:
REMARK  status: ('A' for Active; 'I' for Inactive)
REMARK    1  A    between atoms: C_2  and  C_3 
REMARK    2  A    between atoms: C_3  and  N_4 
REMARK       I    between atoms: N_4  and  C_5 
REMARK    3  A    between atoms: C_5  and  C_6 
REMARK    4  A    between atoms: C_10  and  N_11 
REMARK       I    between atoms: N_11  and  C_12 
REMARK       I    between atoms: C_12  and  N_13 
REMARK    5  A    between atoms: N_13  and  C_14 
ROOT
HETATM    1  C   UNL     1      27.747  45.002  54.613  1.00  0.00     0.053 A 
HETATM    2  C   UNL     1      26.744  45.576  53.823  1.00  0.00     0.051 A 
HETATM    3 CL   UNL     1      26.189  47.202  54.024  1.00  0.00    -0.083 Cl
HETATM    4  C   UNL     1      26.124  44.821  52.815  1.00  0.00     0.054 A 
HETATM    5  C   UNL     1      26.492  43.493  52.583  1.00  0.00     0.038 A 
HETATM    6  C   UNL     1      27.435  42.898  53.426  1.00  0.00     0.030 A 
HETATM    7  C   UNL     1      28.058  43.645  54.429  1.00  0.00     0.021 A 
ENDROOT
BRANCH   5   8
HETATM    8  N   UNL     1      25.994  42.711  51.519  1.00  0.00    -0.309 N 
HETATM    9  C   UNL     1      26.352  42.807  50.180  1.00  0.00     0.325 C 
HETATM   10  N   UNL     1      25.755  41.798  49.448  1.00  0.00    -0.305 N 
HETATM   11  O   UNL     1      27.113  43.648  49.723  1.00  0.00    -0.247 OA
HETATM   12  H   UNL     1      24.889  41.425  49.803  1.00  0.00     0.171 HD
HETATM   13  H   UNL     1      25.517  41.860  51.780  1.00  0.00     0.170 HD
BRANCH  10  14
HETATM   14  C   UNL     1      26.100  41.406  48.164  1.00  0.00     0.086 A 
HETATM   15  C   UNL     1      27.283  40.842  47.596  1.00  0.00     0.079 A 
HETATM   16  C   UNL     1      28.573  40.463  48.227  1.00  0.00     0.075 C 
HETATM   17  N   UNL     1      27.127  40.599  46.286  1.00  0.00    -0.177 NA
HETATM   18  N   UNL     1      25.876  40.985  46.023  1.00  0.00    -0.280 N 
HETATM   19  H   UNL     1      25.539  40.883  45.072  1.00  0.00     0.189 HD
HETATM   20  C   UNL     1      25.203  41.459  47.113  1.00  0.00     0.052 A 
HETATM   21  C   UNL     1      23.792  41.899  47.016  1.00  0.00     0.072 C 
ENDBRANCH  10  14
ENDBRANCH   5   8
BRANCH   1  22
HETATM   22  C   UNL     1      28.573  45.730  55.614  1.00  0.00     0.253 C 
HETATM   23  N   UNL     1      29.826  45.224  55.868  1.00  0.00    -0.357 N 
HETATM   24  H   UNL     1      30.152  44.421  55.344  1.00  0.00     0.162 HD
HETATM   25  O   UNL     1      28.090  46.674  56.232  1.00  0.00    -0.268 OA
BRANCH  23  26
HETATM   26  C   UNL     1      30.641  45.683  56.973  1.00  0.00     0.122 C 
BRANCH  26  27
HETATM   27  C   UNL     1      31.052  44.537  57.898  1.00  0.00     0.015 C 
HETATM   28  C   UNL     1      31.659  43.360  57.146  1.00  0.00     0.006 C 
ENDBRANCH  26  27
ENDBRANCH  23  26
ENDBRANCH   1  22
TORSDOF 5
ENDMDL
MODEL 8
REMARK VINA RESULT:      -7.1      2.067      2.656
REMARK  5 active torsions:
REMARK  status: ('A' for Active; 'I' for Inactive)
REMARK    1  A    between atoms: C_2  and  C_3 
REMARK    2  A    between atoms: C_3  and  N_4 
REMARK       I    between atoms: N_4  and  C_5 
REMARK    3  A    between atoms: C_5  and  C_6 
REMARK    4  A    between atoms: C_10  and  N_11 
REMARK       I    between atoms: N_11  and  C_12 
REMARK       I    between atoms: C_12  and  N_13 
REMARK    5  A    between atoms: N_13  and  C_14 
ROOT
HETATM    1  C   UNL     1      27.177  44.933  52.858  1.00  0.00     0.053 A 
HETATM    2  C   UNL     1      27.051  44.483  51.539  1.00  0.00     0.051 A 
HETATM    3 CL   UNL     1      27.668  42.962  50.991  1.00  0.00    -0.083 Cl
HETATM    4  C   UNL     1      26.410  45.283  50.581  1.00  0.00     0.054 A 
HETATM    5  C   UNL     1      25.890  46.535  50.922  1.00  0.00     0.038 A 
HETATM    6  C   UNL     1      26.089  47.017  52.218  1.00  0.00     0.030 A 
HETATM    7  C   UNL     1      26.724  46.224  53.178  1.00  0.00     0.021 A 
ENDROOT
BRANCH   5   8
HETATM    8  N   UNL     1      25.138  47.343  50.043  1.00  0.00    -0.309 N 
HETATM    9  C   UNL     1      23.907  47.032  49.478  1.00  0.00     0.325 C 
HETATM   10  N   UNL     1      23.414  48.112  48.771  1.00  0.00    -0.305 N 
HETATM   11  O   UNL     1      23.329  45.963  49.617  1.00  0.00    -0.247 OA
HETATM   12  H   UNL     1      24.088  48.761  48.398  1.00  0.00     0.171 HD
HETATM   13  H   UNL     1      25.398  48.317  50.004  1.00  0.00     0.170 HD
BRANCH  10  14
HETATM   14  C   UNL     1      22.111  48.272  48.326  1.00  0.00     0.086 A 
HETATM   15  C   UNL     1      21.276  47.520  47.445  1.00  0.00     0.079 A 
HETATM   16  C   UNL     1      21.541  46.262  46.701  1.00  0.00     0.075 C 
HETATM   17  N   UNL     1      20.054  48.064  47.347  1.00  0.00    -0.177 NA
HETATM   18  N   UNL     1      20.100  49.129  48.151  1.00  0.00    -0.280 N 
HETATM   19  H   UNL     1      19.263  49.696  48.234  1.00  0.00     0.189 HD
HETATM   20  C   UNL     1      21.300  49.295  48.782  1.00  0.00     0.052 A 
HETATM   21  C   UNL     1      21.520  50.403  49.739  1.00  0.00     0.072 C 
ENDBRANCH  10  14
ENDBRANCH   5   8
BRANCH   1  22
HETATM   22  C   UNL     1      27.707  44.129  53.993  1.00  0.00     0.253 C 
HETATM   23  N   UNL     1      29.050  44.253  54.264  1.00  0.00    -0.357 N 
HETATM   24  H   UNL     1      29.607  44.905  53.726  1.00  0.00     0.162 HD
HETATM   25  O   UNL     1      26.973  43.335  54.573  1.00  0.00    -0.268 OA
BRANCH  23  26
HETATM   26  C   UNL     1      29.744  43.368  55.176  1.00  0.00     0.122 C 
BRANCH  26  27
HETATM   27  C   UNL     1      30.804  44.105  55.995  1.00  0.00     0.015 C 
HETATM   28  C   UNL     1      31.565  43.184  56.939  1.00  0.00     0.006 C 
ENDBRANCH  26  27
ENDBRANCH  23  26
ENDBRANCH   1  22
TORSDOF 5
ENDMDL
MODEL 9
REMARK VINA RESULT:      -7.1      1.249      2.279
REMARK  5 active torsions:
REMARK  status: ('A' for Active; 'I' for Inactive)
REMARK    1  A    between atoms: C_2  and  C_3 
REMARK    2  A    between atoms: C_3  and  N_4 
REMARK       I    between atoms: N_4  and  C_5 
REMARK    3  A    between atoms: C_5  and  C_6 
REMARK    4  A    between atoms: C_10  and  N_11 
REMARK       I    between atoms: N_11  and  C_12 
REMARK       I    between atoms: C_12  and  N_13 
REMARK    5  A    between atoms: N_13  and  C_14 
ROOT
HETATM    1  C   UNL     1      27.527  43.971  52.667  1.00  0.00     0.053 A 
HETATM    2  C   UNL     1      27.337  43.406  51.400  1.00  0.00     0.051 A 
HETATM    3 CL   UNL     1      28.055  41.911  50.908  1.00  0.00    -0.083 Cl
HETATM    4  C   UNL     1      26.541  44.064  50.450  1.00  0.00     0.054 A 
HETATM    5  C   UNL     1      25.928  45.285  50.747  1.00  0.00     0.038 A 
HETATM    6  C   UNL     1      26.186  45.885  51.982  1.00  0.00     0.030 A 
HETATM    7  C   UNL     1      26.976  45.234  52.934  1.00  0.00     0.021 A 
ENDROOT
BRANCH   5   8
HETATM    8  N   UNL     1      25.028  45.946  49.885  1.00  0.00    -0.309 N 
HETATM    9  C   UNL     1      24.489  47.214  50.062  1.00  0.00     0.325 C 
HETATM   10  N   UNL     1      23.747  47.582  48.956  1.00  0.00    -0.305 N 
HETATM   11  O   UNL     1      24.673  47.916  51.047  1.00  0.00    -0.247 OA
HETATM   12  H   UNL     1      23.344  46.840  48.408  1.00  0.00     0.171 HD
HETATM   13  H   UNL     1      24.950  45.570  48.951  1.00  0.00     0.170 HD
BRANCH  10  14
HETATM   14  C   UNL     1      23.312  48.863  48.653  1.00  0.00     0.086 A 
HETATM   15  C   UNL     1      22.037  49.504  48.708  1.00  0.00     0.079 A 
HETATM   16  C   UNL     1      20.713  48.987  49.141  1.00  0.00     0.075 C 
HETATM   17  N   UNL     1      22.121  50.791  48.337  1.00  0.00    -0.177 NA
HETATM   18  N   UNL     1      23.414  50.973  48.064  1.00  0.00    -0.280 N 
HETATM   19  H   UNL     1      23.709  51.896  47.763  1.00  0.00     0.189 HD
HETATM   20  C   UNL     1      24.183  49.860  48.253  1.00  0.00     0.052 A 
HETATM   21  C   UNL     1      25.647  49.888  48.032  1.00  0.00     0.072 C 
ENDBRANCH  10  14
ENDBRANCH   5   8
BRANCH   1  22
HETATM   22  C   UNL     1      28.229  43.313  53.804  1.00  0.00     0.253 C 
HETATM   23  N   UNL     1      29.475  43.798  54.125  1.00  0.00    -0.357 N 
HETATM   24  H   UNL     1      29.842  44.596  53.621  1.00  0.00     0.162 HD
HETATM   25  O   UNL     1      27.730  42.328  54.339  1.00  0.00    -0.268 OA
BRANCH  23  26
HETATM   26  C   UNL     1      30.362  43.115  55.042  1.00  0.00     0.122 C 
BRANCH  26  27
HETATM   27  C   UNL     1      30.761  44.002  56.222  1.00  0.00     0.015 C 
HETATM   28  C   UNL     1      30.187  45.409  56.122  1.00  0.00     0.006 C 
ENDBRANCH  26  27
ENDBRANCH  23  26
ENDBRANCH   1  22
TORSDOF 5
ENDMDL
MODEL 10
REMARK VINA RESULT:      -7.1     11.829     12.843
REMARK  5 active torsions:
REMARK  status: ('A' for Active; 'I' for Inactive)
REMARK    1  A    between atoms: C_2  and  C_3 
REMARK    2  A    between atoms: C_3  and  N_4 
REMARK       I    between atoms: N_4  and  C_5 
REMARK    3  A    between atoms: C_5  and  C_6 
REMARK    4  A    between atoms: C_10  and  N_11 
REMARK       I    between atoms: N_11  and  C_12 
REMARK       I    between atoms: C_12  and  N_13 
REMARK    5  A    between atoms: N_13  and  C_14 
ROOT
HETATM    1  C   UNL     1      29.884  50.215  41.009  1.00  0.00     0.053 A 
HETATM    2  C   UNL     1      29.765  49.576  39.770  1.00  0.00     0.051 A 
HETATM    3 CL   UNL     1      30.992  48.554  39.105  1.00  0.00    -0.083 Cl
HETATM    4  C   UNL     1      28.611  49.759  38.992  1.00  0.00     0.054 A 
HETATM    5  C   UNL     1      27.568  50.577  39.435  1.00  0.00     0.038 A 
HETATM    6  C   UNL     1      27.725  51.279  40.633  1.00  0.00     0.030 A 
HETATM    7  C   UNL     1      28.870  51.098  41.414  1.00  0.00     0.021 A 
ENDROOT
BRANCH   5   8
HETATM    8  N   UNL     1      26.337  50.719  38.760  1.00  0.00    -0.309 N 
HETATM    9  C   UNL     1      25.229  49.888  38.871  1.00  0.00     0.325 C 
HETATM   10  N   UNL     1      24.163  50.407  38.162  1.00  0.00    -0.305 N 
HETATM   11  O   UNL     1      25.197  48.858  39.530  1.00  0.00    -0.247 OA
HETATM   12  H   UNL     1      24.381  51.001  37.378  1.00  0.00     0.171 HD
HETATM   13  H   UNL     1      26.159  51.623  38.346  1.00  0.00     0.170 HD
BRANCH  10  14
HETATM   14  C   UNL     1      22.838  50.016  38.275  1.00  0.00     0.086 A 
HETATM   15  C   UNL     1      21.772  50.403  39.142  1.00  0.00     0.079 A 
HETATM   16  C   UNL     1      21.733  51.403  40.240  1.00  0.00     0.075 C 
HETATM   17  N   UNL     1      20.637  49.754  38.841  1.00  0.00    -0.177 NA
HETATM   18  N   UNL     1      20.963  48.982  37.802  1.00  0.00    -0.280 N 
HETATM   19  H   UNL     1      20.237  48.396  37.401  1.00  0.00     0.189 HD
HETATM   20  C   UNL     1      22.263  49.109  37.403  1.00  0.00     0.052 A 
HETATM   21  C   UNL     1      22.791  48.354  36.243  1.00  0.00     0.072 C 
ENDBRANCH  10  14
ENDBRANCH   5   8
BRANCH   1  22
HETATM   22  C   UNL     1      30.986  49.997  41.986  1.00  0.00     0.253 C 
HETATM   23  N   UNL     1      32.035  50.884  41.943  1.00  0.00    -0.357 N 
HETATM   24  H   UNL     1      32.000  51.663  41.296  1.00  0.00     0.162 HD
HETATM   25  O   UNL     1      30.968  49.007  42.712  1.00  0.00    -0.268 OA
BRANCH  23  26
HETATM   26  C   UNL     1      33.270  50.663  42.665  1.00  0.00     0.122 C 
BRANCH  26  27
HETATM   27  C   UNL     1      33.563  51.787  43.659  1.00  0.00     0.015 C 
HETATM   28  C   UNL     1      32.506  51.898  44.750  1.00  0.00     0.006 C 
ENDBRANCH  26  27
ENDBRANCH  23  26
ENDBRANCH   1  22
TORSDOF 5
ENDMDL
