MODEL 1
REMARK VINA RESULT:      -8.0      0.000      0.000
REMARK  3 active torsions:
REMARK  status: ('A' for Active; 'I' for Inactive)
REMARK    1  A    between atoms: O_2  and  C_3 
REMARK    2  A    between atoms: C_7  and  C_8 
REMARK    3  A    between atoms: C_19  and  N_20 
ROOT
HETATM    1  C   UNL     1      26.091  43.281  51.858  1.00  0.00     0.244 A 
HETATM    2  N   UNL     1      27.304  42.904  52.548  1.00  0.00    -0.151 N 
HETATM    3  C   UNL     1      27.866  41.668  52.353  1.00  0.00     0.734 A 
HETATM    4  N   UNL     1      28.932  41.544  53.112  1.00  0.00    -0.060 NA
HETATM    5  C   UNL     1      29.032  42.708  53.833  1.00  0.00     0.103 A 
HETATM    6  C   UNL     1      28.005  43.588  53.504  1.00  0.00     0.083 A 
HETATM    7  C   UNL     1      29.978  43.080  54.799  1.00  0.00     0.034 A 
HETATM    8  C   UNL     1      29.858  44.334  55.408  1.00  0.00     0.002 A 
HETATM    9  C   UNL     1      28.818  45.199  55.063  1.00  0.00     0.002 A 
HETATM   10  C   UNL     1      27.864  44.846  54.101  1.00  0.00     0.033 A 
HETATM   11  N   UNL     1      27.353  40.757  51.497  1.00  0.00    -0.033 NA
HETATM   12  C   UNL     1      26.276  41.037  50.857  1.00  0.00     0.193 A 
HETATM   13  N   UNL     1      25.572  42.241  50.974  1.00  0.00    -0.339 N 
HETATM   14  H   UNL     1      24.701  42.377  50.487  1.00  0.00     0.164 HD
ENDROOT
BRANCH   1  15
HETATM   15  C   UNL     1      26.262  44.525  51.005  1.00  0.00    -0.014 A 
HETATM   16  C   UNL     1      25.211  45.436  50.822  1.00  0.00     0.033 A 
HETATM   17  C   UNL     1      25.401  46.605  50.072  1.00  0.00     0.044 A 
HETATM   18  C   UNL     1      26.646  46.896  49.496  1.00  0.00     0.085 A 
HETATM   19 BR   UNL     1      23.919  47.779  49.886  1.00  0.00    -0.048 Br
HETATM   20  C   UNL     1      27.694  45.988  49.676  1.00  0.00     0.039 A 
HETATM   21  C   UNL     1      27.507  44.820  50.426  1.00  0.00     0.014 A 
BRANCH  18  22
HETATM   22  O   UNL     1      26.744  48.064  48.791  1.00  0.00    -0.355 OA
HETATM   23  C   UNL     1      27.737  49.002  49.185  1.00  0.00     0.210 C 
ENDBRANCH  18  22
ENDBRANCH   1  15
BRANCH  12  24
HETATM   24  N   UNL     1      25.694  40.182  49.992  1.00  0.00    -0.272 NA
HETATM   25  H   UNL     1      26.392  39.750  49.389  1.00  0.00     0.127 HD
HETATM   26  H   UNL     1      24.930  40.552  49.441  1.00  0.00     0.127 HD
ENDBRANCH  12  24
TORSDOF 3
ENDMDL
MODEL 2
REMARK VINA RESULT:      -8.0      2.209      2.863
REMARK  3 active torsions:
REMARK  status: ('A' for Active; 'I' for Inactive)
REMARK    1  A    between atoms: O_2  and  C_3 
REMARK    2  A    between atoms: C_7  and  C_8 
REMARK    3  A    between atoms: C_19  and  N_20 
ROOT
HETATM    1  C   UNL     1      25.336  44.810  50.681  1.00  0.00     0.244 A 
HETATM    2  N   UNL     1      26.435  44.671  51.609  1.00  0.00    -0.151 N 
HETATM    3  C   UNL     1      27.443  43.771  51.371  1.00  0.00     0.734 A 
HETATM    4  N   UNL     1      28.301  43.797  52.366  1.00  0.00    -0.060 NA
HETATM    5  C   UNL     1      27.813  44.703  53.275  1.00  0.00     0.103 A 
HETATM    6  C   UNL     1      26.623  45.267  52.827  1.00  0.00     0.083 A 
HETATM    7  C   UNL     1      28.337  45.091  54.516  1.00  0.00     0.034 A 
HETATM    8  C   UNL     1      27.639  46.038  55.273  1.00  0.00     0.002 A 
HETATM    9  C   UNL     1      26.445  46.589  54.803  1.00  0.00     0.002 A 
HETATM   10  C   UNL     1      25.907  46.215  53.566  1.00  0.00     0.033 A 
HETATM   11  N   UNL     1      27.489  43.000  50.262  1.00  0.00    -0.033 NA
HETATM   12  C   UNL     1      26.539  43.082  49.403  1.00  0.00     0.193 A 
HETATM   13  N   UNL     1      25.431  43.927  49.522  1.00  0.00    -0.339 N 
HETATM   14  H   UNL     1      24.690  43.903  48.841  1.00  0.00     0.164 HD
ENDROOT
BRANCH   1  15
HETATM   15  C   UNL     1      25.202  46.221  50.138  1.00  0.00    -0.014 A 
HETATM   16  C   UNL     1      26.329  47.026  49.906  1.00  0.00     0.033 A 
HETATM   17  C   UNL     1      26.191  48.308  49.357  1.00  0.00     0.044 A 
HETATM   18  C   UNL     1      24.927  48.813  49.018  1.00  0.00     0.085 A 
HETATM   19 BR   UNL     1      27.775  49.317  49.076  1.00  0.00    -0.048 Br
HETATM   20  C   UNL     1      23.804  48.014  49.249  1.00  0.00     0.039 A 
HETATM   21  C   UNL     1      23.939  46.731  49.797  1.00  0.00     0.014 A 
BRANCH  18  22
HETATM   22  O   UNL     1      24.888  50.069  48.477  1.00  0.00    -0.355 OA
HETATM   23  C   UNL     1      23.645  50.542  47.974  1.00  0.00     0.210 C 
ENDBRANCH  18  22
ENDBRANCH   1  15
BRANCH  12  24
HETATM   24  N   UNL     1      26.505  42.343  48.276  1.00  0.00    -0.272 NA
HETATM   25  H   UNL     1      27.427  41.964  48.065  1.00  0.00     0.127 HD
HETATM   26  H   UNL     1      26.110  42.790  47.458  1.00  0.00     0.127 HD
ENDBRANCH  12  24
TORSDOF 3
ENDMDL
MODEL 3
REMARK VINA RESULT:      -8.0      3.246      6.058
REMARK  3 active torsions:
REMARK  status: ('A' for Active; 'I' for Inactive)
REMARK    1  A    between atoms: O_2  and  C_3 
REMARK    2  A    between atoms: C_7  and  C_8 
REMARK    3  A    between atoms: C_19  and  N_20 
ROOT
HETATM    1  C   UNL     1      25.840  44.714  50.196  1.00  0.00     0.244 A 
HETATM    2  N   UNL     1      25.347  46.019  49.818  1.00  0.00    -0.151 N 
HETATM    3  C   UNL     1      24.006  46.230  49.617  1.00  0.00     0.734 A 
HETATM    4  N   UNL     1      23.808  47.475  49.245  1.00  0.00    -0.060 NA
HETATM    5  C   UNL     1      25.047  48.061  49.171  1.00  0.00     0.103 A 
HETATM    6  C   UNL     1      26.046  47.157  49.519  1.00  0.00     0.083 A 
HETATM    7  C   UNL     1      25.395  49.368  48.804  1.00  0.00     0.034 A 
HETATM    8  C   UNL     1      26.748  49.726  48.797  1.00  0.00     0.002 A 
HETATM    9  C   UNL     1      27.733  48.801  49.148  1.00  0.00     0.002 A 
HETATM   10  C   UNL     1      27.405  47.491  49.518  1.00  0.00     0.033 A 
HETATM   11  N   UNL     1      23.078  45.263  49.789  1.00  0.00    -0.033 NA
HETATM   12  C   UNL     1      23.459  44.083  50.124  1.00  0.00     0.193 A 
HETATM   13  N   UNL     1      24.790  43.708  50.333  1.00  0.00    -0.339 N 
HETATM   14  H   UNL     1      25.028  42.751  50.539  1.00  0.00     0.164 HD
ENDROOT
BRANCH   1  15
HETATM   15  C   UNL     1      26.596  44.730  51.511  1.00  0.00    -0.014 A 
HETATM   16  C   UNL     1      27.731  43.929  51.713  1.00  0.00     0.033 A 
HETATM   17  C   UNL     1      28.447  43.994  52.916  1.00  0.00     0.044 A 
HETATM   18  C   UNL     1      28.052  44.864  53.943  1.00  0.00     0.085 A 
HETATM   19 BR   UNL     1      29.972  42.875  53.090  1.00  0.00    -0.048 Br
HETATM   20  C   UNL     1      26.921  45.661  53.744  1.00  0.00     0.039 A 
HETATM   21  C   UNL     1      26.205  45.600  52.542  1.00  0.00     0.014 A 
BRANCH  18  22
HETATM   22  O   UNL     1      28.816  44.869  55.077  1.00  0.00    -0.355 OA
HETATM   23  C   UNL     1      28.857  46.062  55.850  1.00  0.00     0.210 C 
ENDBRANCH  18  22
ENDBRANCH   1  15
BRANCH  12  24
HETATM   24  N   UNL     1      22.600  43.061  50.307  1.00  0.00    -0.272 NA
HETATM   25  H   UNL     1      21.791  43.362  50.847  1.00  0.00     0.127 HD
HETATM   26  H   UNL     1      22.990  42.212  50.696  1.00  0.00     0.127 HD
ENDBRANCH  12  24
TORSDOF 3
ENDMDL
MODEL 4
REMARK VINA RESULT:      -7.9      6.662      9.507
REMARK  3 active torsions:
REMARK  status: ('A' for Active; 'I' for Inactive)
REMARK    1  A    between atoms: O_2  and  C_3 
REMARK    2  A    between atoms: C_7  and  C_8 
REMARK    3  A    between atoms: C_19  and  N_20 
ROOT
HETATM    1  C   UNL     1      20.823  48.135  47.499  1.00  0.00     0.244 A 
HETATM    2  N   UNL     1      19.743  48.678  48.291  1.00  0.00    -0.151 N 
HETATM    3  C   UNL     1      18.800  47.853  48.849  1.00  0.00     0.734 A 
HETATM    4  N   UNL     1      17.904  48.575  49.485  1.00  0.00    -0.060 NA
HETATM    5  C   UNL     1      18.261  49.888  49.299  1.00  0.00     0.103 A 
HETATM    6  C   UNL     1      19.419  49.986  48.536  1.00  0.00     0.083 A 
HETATM    7  C   UNL     1      17.631  51.055  49.753  1.00  0.00     0.034 A 
HETATM    8  C   UNL     1      18.190  52.293  49.418  1.00  0.00     0.002 A 
HETATM    9  C   UNL     1      19.354  52.367  48.649  1.00  0.00     0.002 A 
HETATM   10  C   UNL     1      19.997  51.212  48.187  1.00  0.00     0.033 A 
HETATM   11  N   UNL     1      18.838  46.508  48.726  1.00  0.00    -0.033 NA
HETATM   12  C   UNL     1      19.776  45.970  48.033  1.00  0.00     0.193 A 
HETATM   13  N   UNL     1      20.788  46.681  47.379  1.00  0.00    -0.339 N 
HETATM   14  H   UNL     1      21.462  46.203  46.803  1.00  0.00     0.164 HD
ENDROOT
BRANCH   1  15
HETATM   15  C   UNL     1      22.192  48.489  48.052  1.00  0.00    -0.014 A 
HETATM   16  C   UNL     1      22.840  47.664  48.984  1.00  0.00     0.033 A 
HETATM   17  C   UNL     1      24.124  47.979  49.446  1.00  0.00     0.044 A 
HETATM   18  C   UNL     1      24.796  49.120  48.983  1.00  0.00     0.085 A 
HETATM   19 BR   UNL     1      24.920  46.797  50.703  1.00  0.00    -0.048 Br
HETATM   20  C   UNL     1      24.152  49.943  48.056  1.00  0.00     0.039 A 
HETATM   21  C   UNL     1      22.868  49.630  47.591  1.00  0.00     0.014 A 
BRANCH  18  22
HETATM   22  O   UNL     1      26.051  49.343  49.479  1.00  0.00    -0.355 OA
HETATM   23  C   UNL     1      27.054  49.801  48.582  1.00  0.00     0.210 C 
ENDBRANCH  18  22
ENDBRANCH   1  15
BRANCH  12  24
HETATM   24  N   UNL     1      19.881  44.638  47.853  1.00  0.00    -0.272 NA
HETATM   25  H   UNL     1      19.187  44.309  47.184  1.00  0.00     0.127 HD
HETATM   26  H   UNL     1      19.865  44.070  48.691  1.00  0.00     0.127 HD
ENDBRANCH  12  24
TORSDOF 3
ENDMDL
MODEL 5
REMARK VINA RESULT:      -7.8      3.328      5.679
REMARK  3 active torsions:
REMARK  status: ('A' for Active; 'I' for Inactive)
REMARK    1  A    between atoms: O_2  and  C_3 
REMARK    2  A    between atoms: C_7  and  C_8 
REMARK    3  A    between atoms: C_19  and  N_20 
ROOT
HETATM    1  C   UNL     1      28.751  43.278  52.140  1.00  0.00     0.244 A 
HETATM    2  N   UNL     1      27.372  43.316  51.711  1.00  0.00    -0.151 N 
HETATM    3  C   UNL     1      26.707  42.160  51.388  1.00  0.00     0.734 A 
HETATM    4  N   UNL     1      25.487  42.450  50.991  1.00  0.00    -0.060 NA
HETATM    5  C   UNL     1      25.383  43.819  51.026  1.00  0.00     0.103 A 
HETATM    6  C   UNL     1      26.568  44.397  51.469  1.00  0.00     0.083 A 
HETATM    7  C   UNL     1      24.299  44.639  50.684  1.00  0.00     0.034 A 
HETATM    8  C   UNL     1      24.445  46.026  50.797  1.00  0.00     0.002 A 
HETATM    9  C   UNL     1      25.645  46.584  51.242  1.00  0.00     0.002 A 
HETATM   10  C   UNL     1      26.738  45.781  51.589  1.00  0.00     0.033 A 
HETATM   11  N   UNL     1      27.274  40.938  51.481  1.00  0.00    -0.033 NA
HETATM   12  C   UNL     1      28.499  40.843  51.857  1.00  0.00     0.193 A 
HETATM   13  N   UNL     1      29.313  41.931  52.189  1.00  0.00    -0.339 N 
HETATM   14  H   UNL     1      30.284  41.794  52.422  1.00  0.00     0.164 HD
ENDROOT
BRANCH   1  15
HETATM   15  C   UNL     1      28.953  43.879  53.519  1.00  0.00    -0.014 A 
HETATM   16  C   UNL     1      29.970  43.424  54.374  1.00  0.00     0.033 A 
HETATM   17  C   UNL     1      30.175  44.023  55.623  1.00  0.00     0.044 A 
HETATM   18  C   UNL     1      29.377  45.096  56.047  1.00  0.00     0.085 A 
HETATM   19 BR   UNL     1      31.580  43.341  56.704  1.00  0.00    -0.048 Br
HETATM   20  C   UNL     1      28.363  45.549  55.198  1.00  0.00     0.039 A 
HETATM   21  C   UNL     1      28.157  44.952  53.947  1.00  0.00     0.014 A 
BRANCH  18  22
HETATM   22  O   UNL     1      29.655  45.627  57.276  1.00  0.00    -0.355 OA
HETATM   23  C   UNL     1      28.624  46.343  57.945  1.00  0.00     0.210 C 
ENDBRANCH  18  22
ENDBRANCH   1  15
BRANCH  12  24
HETATM   24  N   UNL     1      29.142  39.664  51.968  1.00  0.00    -0.272 NA
HETATM   25  H   UNL     1      28.618  39.022  52.560  1.00  0.00     0.127 HD
HETATM   26  H   UNL     1      30.110  39.707  52.261  1.00  0.00     0.127 HD
ENDBRANCH  12  24
TORSDOF 3
ENDMDL
MODEL 6
REMARK VINA RESULT:      -7.7      1.670      2.164
REMARK  3 active torsions:
REMARK  status: ('A' for Active; 'I' for Inactive)
REMARK    1  A    between atoms: O_2  and  C_3 
REMARK    2  A    between atoms: C_7  and  C_8 
REMARK    3  A    between atoms: C_19  and  N_20 
ROOT
HETATM    1  C   UNL     1      26.853  43.239  53.409  1.00  0.00     0.244 A 
HETATM    2  N   UNL     1      28.179  43.450  53.943  1.00  0.00    -0.151 N 
HETATM    3  C   UNL     1      29.216  42.624  53.590  1.00  0.00     0.734 A 
HETATM    4  N   UNL     1      30.306  42.989  54.229  1.00  0.00    -0.060 NA
HETATM    5  C   UNL     1      29.951  44.044  55.032  1.00  0.00     0.103 A 
HETATM    6  C   UNL     1      28.603  44.353  54.881  1.00  0.00     0.083 A 
HETATM    7  C   UNL     1      30.734  44.785  55.929  1.00  0.00     0.034 A 
HETATM    8  C   UNL     1      30.130  45.820  56.650  1.00  0.00     0.002 A 
HETATM    9  C   UNL     1      28.774  46.111  56.483  1.00  0.00     0.002 A 
HETATM   10  C   UNL     1      27.977  45.383  55.592  1.00  0.00     0.033 A 
HETATM   11  N   UNL     1      29.075  41.605  52.715  1.00  0.00    -0.033 NA
HETATM   12  C   UNL     1      27.919  41.370  52.209  1.00  0.00     0.193 A 
HETATM   13  N   UNL     1      26.763  42.103  52.496  1.00  0.00    -0.339 N 
HETATM   14  H   UNL     1      25.873  41.833  52.109  1.00  0.00     0.164 HD
ENDROOT
BRANCH   1  15
HETATM   15  C   UNL     1      26.326  44.444  52.652  1.00  0.00    -0.014 A 
HETATM   16  C   UNL     1      25.441  44.299  51.571  1.00  0.00     0.033 A 
HETATM   17  C   UNL     1      24.925  45.424  50.915  1.00  0.00     0.044 A 
HETATM   18  C   UNL     1      25.272  46.720  51.325  1.00  0.00     0.085 A 
HETATM   19 BR   UNL     1      23.731  45.125  49.468  1.00  0.00    -0.048 Br
HETATM   20  C   UNL     1      26.154  46.866  52.400  1.00  0.00     0.039 A 
HETATM   21  C   UNL     1      26.671  45.742  53.059  1.00  0.00     0.014 A 
BRANCH  18  22
HETATM   22  O   UNL     1      24.712  47.759  50.634  1.00  0.00    -0.355 OA
HETATM   23  C   UNL     1      25.452  48.323  49.559  1.00  0.00     0.210 C 
ENDBRANCH  18  22
ENDBRANCH   1  15
BRANCH  12  24
HETATM   24  N   UNL     1      27.691  40.368  51.336  1.00  0.00    -0.272 NA
HETATM   25  H   UNL     1      28.033  39.483  51.707  1.00  0.00     0.127 HD
HETATM   26  H   UNL     1      28.027  40.511  50.392  1.00  0.00     0.127 HD
ENDBRANCH  12  24
TORSDOF 3
ENDMDL
MODEL 7
REMARK VINA RESULT:      -7.7      3.527      5.261
REMARK  3 active torsions:
REMARK  status: ('A' for Active; 'I' for Inactive)
REMARK    1  A    between atoms: O_2  and  C_3 
REMARK    2  A    between atoms: C_7  and  C_8 
REMARK    3  A    between atoms: C_19  and  N_20 
ROOT
HETATM    1  C   UNL     1      26.926  43.920  50.339  1.00  0.00     0.244 A 
HETATM    2  N   UNL     1      27.170  44.143  51.745  1.00  0.00    -0.151 N 
HETATM    3  C   UNL     1      26.314  44.913  52.491  1.00  0.00     0.734 A 
HETATM    4  N   UNL     1      26.763  45.003  53.723  1.00  0.00    -0.060 NA
HETATM    5  C   UNL     1      27.947  44.308  53.757  1.00  0.00     0.103 A 
HETATM    6  C   UNL     1      28.238  43.760  52.512  1.00  0.00     0.083 A 
HETATM    7  C   UNL     1      28.835  44.111  54.824  1.00  0.00     0.034 A 
HETATM    8  C   UNL     1      29.996  43.364  54.601  1.00  0.00     0.002 A 
HETATM    9  C   UNL     1      30.268  42.824  53.342  1.00  0.00     0.002 A 
HETATM   10  C   UNL     1      29.393  43.010  52.265  1.00  0.00     0.033 A 
HETATM   11  N   UNL     1      25.195  45.471  51.979  1.00  0.00    -0.033 NA
HETATM   12  C   UNL     1      24.928  45.306  50.734  1.00  0.00     0.193 A 
HETATM   13  N   UNL     1      25.720  44.575  49.841  1.00  0.00    -0.339 N 
HETATM   14  H   UNL     1      25.485  44.531  48.863  1.00  0.00     0.164 HD
ENDROOT
BRANCH   1  15
HETATM   15  C   UNL     1      26.790  42.448  49.993  1.00  0.00    -0.014 A 
HETATM   16  C   UNL     1      27.268  41.935  48.777  1.00  0.00     0.033 A 
HETATM   17  C   UNL     1      27.179  40.566  48.495  1.00  0.00     0.044 A 
HETATM   18  C   UNL     1      26.621  39.674  49.422  1.00  0.00     0.085 A 
HETATM   19 BR   UNL     1      27.859  39.968  46.824  1.00  0.00    -0.048 Br
HETATM   20  C   UNL     1      26.143  40.183  50.633  1.00  0.00     0.039 A 
HETATM   21  C   UNL     1      26.232  41.552  50.918  1.00  0.00     0.014 A 
BRANCH  18  22
HETATM   22  O   UNL     1      26.585  38.354  49.068  1.00  0.00    -0.355 OA
HETATM   23  C   UNL     1      27.588  37.493  49.593  1.00  0.00     0.210 C 
ENDBRANCH  18  22
ENDBRANCH   1  15
BRANCH  12  24
HETATM   24  N   UNL     1      23.838  45.835  50.142  1.00  0.00    -0.272 NA
HETATM   25  H   UNL     1      23.175  46.168  50.840  1.00  0.00     0.127 HD
HETATM   26  H   UNL     1      23.371  45.251  49.460  1.00  0.00     0.127 HD
ENDBRANCH  12  24
TORSDOF 3
ENDMDL
MODEL 8
REMARK VINA RESULT:      -7.6      3.444      6.037
REMARK  3 active torsions:
REMARK  status: ('A' for Active; 'I' for Inactive)
REMARK    1  A    between atoms: O_2  and  C_3 
REMARK    2  A    between atoms: C_7  and  C_8 
REMARK    3  A    between atoms: C_19  and  N_20 
ROOT
HETATM    1  C   UNL     1      26.730  44.205  53.081  1.00  0.00     0.244 A 
HETATM    2  N   UNL     1      26.924  43.731  51.730  1.00  0.00    -0.151 N 
HETATM    3  C   UNL     1      26.610  44.525  50.656  1.00  0.00     0.734 A 
HETATM    4  N   UNL     1      26.835  43.866  49.541  1.00  0.00    -0.060 NA
HETATM    5  C   UNL     1      27.265  42.615  49.908  1.00  0.00     0.103 A 
HETATM    6  C   UNL     1      27.321  42.495  51.293  1.00  0.00     0.083 A 
HETATM    7  C   UNL     1      27.619  41.523  49.105  1.00  0.00     0.034 A 
HETATM    8  C   UNL     1      28.020  40.335  49.726  1.00  0.00     0.002 A 
HETATM    9  C   UNL     1      28.068  40.237  51.118  1.00  0.00     0.002 A 
HETATM   10  C   UNL     1      27.718  41.318  51.937  1.00  0.00     0.033 A 
HETATM   11  N   UNL     1      26.143  45.786  50.790  1.00  0.00    -0.033 NA
HETATM   12  C   UNL     1      25.950  46.260  51.967  1.00  0.00     0.193 A 
HETATM   13  N   UNL     1      26.193  45.561  53.154  1.00  0.00    -0.339 N 
HETATM   14  H   UNL     1      25.967  45.970  54.047  1.00  0.00     0.164 HD
ENDROOT
BRANCH   1  15
HETATM   15  C   UNL     1      28.012  44.205  53.893  1.00  0.00    -0.014 A 
HETATM   16  C   UNL     1      28.151  45.002  55.041  1.00  0.00     0.033 A 
HETATM   17  C   UNL     1      29.322  44.952  55.808  1.00  0.00     0.044 A 
HETATM   18  C   UNL     1      30.379  44.101  55.454  1.00  0.00     0.085 A 
HETATM   19 BR   UNL     1      29.411  46.064  57.346  1.00  0.00    -0.048 Br
HETATM   20  C   UNL     1      30.243  43.308  54.311  1.00  0.00     0.039 A 
HETATM   21  C   UNL     1      29.072  43.355  53.543  1.00  0.00     0.014 A 
BRANCH  18  22
HETATM   22  O   UNL     1      31.479  44.109  56.266  1.00  0.00    -0.355 OA
HETATM   23  C   UNL     1      31.687  42.993  57.122  1.00  0.00     0.210 C 
ENDBRANCH  18  22
ENDBRANCH   1  15
BRANCH  12  24
HETATM   24  N   UNL     1      25.478  47.504  52.188  1.00  0.00    -0.272 NA
HETATM   25  H   UNL     1      25.891  47.901  53.030  1.00  0.00     0.127 HD
HETATM   26  H   UNL     1      24.471  47.604  52.204  1.00  0.00     0.127 HD
ENDBRANCH  12  24
TORSDOF 3
ENDMDL
MODEL 9
REMARK VINA RESULT:      -7.6      3.985      5.686
REMARK  3 active torsions:
REMARK  status: ('A' for Active; 'I' for Inactive)
REMARK    1  A    between atoms: O_2  and  C_3 
REMARK    2  A    between atoms: C_7  and  C_8 
REMARK    3  A    between atoms: C_19  and  N_20 
ROOT
HETATM    1  C   UNL     1      28.352  46.116  54.252  1.00  0.00     0.244 A 
HETATM    2  N   UNL     1      28.731  45.977  55.639  1.00  0.00    -0.151 N 
HETATM    3  C   UNL     1      28.067  46.670  56.619  1.00  0.00     0.734 A 
HETATM    4  N   UNL     1      28.613  46.413  57.787  1.00  0.00    -0.060 NA
HETATM    5  C   UNL     1      29.670  45.571  57.545  1.00  0.00     0.103 A 
HETATM    6  C   UNL     1      29.777  45.284  56.187  1.00  0.00     0.083 A 
HETATM    7  C   UNL     1      30.590  45.014  58.443  1.00  0.00     0.034 A 
HETATM    8  C   UNL     1      31.598  44.182  57.943  1.00  0.00     0.002 A 
HETATM    9  C   UNL     1      31.687  43.910  56.576  1.00  0.00     0.002 A 
HETATM   10  C   UNL     1      30.776  44.457  55.664  1.00  0.00     0.033 A 
HETATM   11  N   UNL     1      27.017  47.480  56.360  1.00  0.00    -0.033 NA
HETATM   12  C   UNL     1      26.636  47.641  55.145  1.00  0.00     0.193 A 
HETATM   13  N   UNL     1      27.233  47.029  54.038  1.00  0.00    -0.339 N 
HETATM   14  H   UNL     1      26.923  47.242  53.104  1.00  0.00     0.164 HD
ENDROOT
BRANCH   1  15
HETATM   15  C   UNL     1      27.957  44.795  53.616  1.00  0.00    -0.014 A 
HETATM   16  C   UNL     1      27.525  44.725  52.282  1.00  0.00     0.033 A 
HETATM   17  C   UNL     1      27.212  43.492  51.696  1.00  0.00     0.044 A 
HETATM   18  C   UNL     1      27.331  42.298  52.423  1.00  0.00     0.085 A 
HETATM   19 BR   UNL     1      26.642  43.501  49.884  1.00  0.00    -0.048 Br
HETATM   20  C   UNL     1      27.760  42.366  53.752  1.00  0.00     0.039 A 
HETATM   21  C   UNL     1      28.075  43.598  54.340  1.00  0.00     0.014 A 
BRANCH  18  22
HETATM   22  O   UNL     1      27.016  41.140  51.768  1.00  0.00    -0.355 OA
HETATM   23  C   UNL     1      28.077  40.383  51.200  1.00  0.00     0.210 C 
ENDBRANCH  18  22
ENDBRANCH   1  15
BRANCH  12  24
HETATM   24  N   UNL     1      25.604  48.438  54.800  1.00  0.00    -0.272 NA
HETATM   25  H   UNL     1      25.101  48.051  54.004  1.00  0.00     0.127 HD
HETATM   26  H   UNL     1      25.824  49.413  54.641  1.00  0.00     0.127 HD
ENDBRANCH  12  24
TORSDOF 3
ENDMDL
MODEL 10
REMARK VINA RESULT:      -7.6      8.148      9.994
REMARK  3 active torsions:
REMARK  status: ('A' for Active; 'I' for Inactive)
REMARK    1  A    between atoms: O_2  and  C_3 
REMARK    2  A    between atoms: C_7  and  C_8 
REMARK    3  A    between atoms: C_19  and  N_20 
ROOT
HETATM    1  C   UNL     1      19.375  48.199  49.332  1.00  0.00     0.244 A 
HETATM    2  N   UNL     1      20.721  48.220  48.808  1.00  0.00    -0.151 N 
HETATM    3  C   UNL     1      21.263  47.103  48.224  1.00  0.00     0.734 A 
HETATM    4  N   UNL     1      22.502  47.353  47.863  1.00  0.00    -0.060 NA
HETATM    5  C   UNL     1      22.769  48.641  48.256  1.00  0.00     0.103 A 
HETATM    6  C   UNL     1      21.660  49.214  48.870  1.00  0.00     0.083 A 
HETATM    7  C   UNL     1      23.950  49.386  48.126  1.00  0.00     0.034 A 
HETATM    8  C   UNL     1      23.977  50.693  48.624  1.00  0.00     0.002 A 
HETATM    9  C   UNL     1      22.851  51.247  49.238  1.00  0.00     0.002 A 
HETATM   10  C   UNL     1      21.664  50.519  49.376  1.00  0.00     0.033 A 
HETATM   11  N   UNL     1      20.577  45.949  48.073  1.00  0.00    -0.033 NA
HETATM   12  C   UNL     1      19.376  45.872  48.521  1.00  0.00     0.193 A 
HETATM   13  N   UNL     1      18.701  46.914  49.167  1.00  0.00    -0.339 N 
HETATM   14  H   UNL     1      17.779  46.772  49.546  1.00  0.00     0.164 HD
ENDROOT
BRANCH   1  15
HETATM   15  C   UNL     1      18.478  49.241  48.690  1.00  0.00    -0.014 A 
HETATM   16  C   UNL     1      17.946  50.307  49.433  1.00  0.00     0.033 A 
HETATM   17  C   UNL     1      17.161  51.289  48.814  1.00  0.00     0.044 A 
HETATM   18  C   UNL     1      16.894  51.235  47.438  1.00  0.00     0.085 A 
HETATM   19 BR   UNL     1      16.493  52.694  49.903  1.00  0.00    -0.048 Br
HETATM   20  C   UNL     1      17.421  50.173  46.697  1.00  0.00     0.039 A 
HETATM   21  C   UNL     1      18.208  49.191  47.313  1.00  0.00     0.014 A 
BRANCH  18  22
HETATM   22  O   UNL     1      16.129  52.241  46.916  1.00  0.00    -0.355 OA
HETATM   23  C   UNL     1      16.104  52.399  45.503  1.00  0.00     0.210 C 
ENDBRANCH  18  22
ENDBRANCH   1  15
BRANCH  12  24
HETATM   24  N   UNL     1      18.626  44.756  48.419  1.00  0.00    -0.272 NA
HETATM   25  H   UNL     1      17.740  44.959  47.959  1.00  0.00     0.127 HD
HETATM   26  H   UNL     1      18.471  44.241  49.277  1.00  0.00     0.127 HD
ENDBRANCH  12  24
TORSDOF 3
ENDMDL
