MODEL 1
REMARK VINA RESULT:      -8.4      0.000      0.000
REMARK  3 active torsions:
REMARK  status: ('A' for Active; 'I' for Inactive)
REMARK    1  A    between atoms: C_9  and  C_10 
REMARK    2  A    between atoms: C_16  and  C_17 
REMARK       I    between atoms: C_17  and  N_18 
REMARK    3  A    between atoms: N_18  and  C_19 
ROOT
HETATM    1  C   UNL     1      25.131  46.801  51.783  1.00  0.00     0.070 C 
HETATM    2  C   UNL     1      24.686  45.524  51.117  1.00  0.00     0.037 A 
HETATM    3  N   UNL     1      23.809  45.674  50.048  1.00  0.00    -0.191 N 
HETATM    4  C   UNL     1      23.193  44.632  49.453  1.00  0.00     0.735 A 
HETATM    5  N   UNL     1      23.510  43.359  49.836  1.00  0.00    -0.091 N 
HETATM    6  N   UNL     1      22.694  42.478  49.231  1.00  0.00     0.012 NA
HETATM    7  N   UNL     1      21.946  43.219  48.420  1.00  0.00     0.033 NA
HETATM    8  N   UNL     1      22.243  44.563  48.552  1.00  0.00     0.030 NA
HETATM    9  C   UNL     1      24.475  43.020  50.872  1.00  0.00     0.216 A 
HETATM   10  C   UNL     1      25.039  44.278  51.524  1.00  0.00     0.063 A 
HETATM   11  H   UNL     1      23.518  46.618  49.804  1.00  0.00     0.184 HD
ENDROOT
BRANCH  10  12
HETATM   12  C   UNL     1      25.937  43.994  52.672  1.00  0.00     0.256 C 
HETATM   13  N   UNL     1      27.269  43.981  52.329  1.00  0.00    -0.323 N 
HETATM   14  H   UNL     1      27.485  44.098  51.346  1.00  0.00     0.169 HD
HETATM   15  O   UNL     1      25.433  43.764  53.764  1.00  0.00    -0.267 OA
BRANCH  13  16
HETATM   16  C   UNL     1      28.374  43.805  53.187  1.00  0.00     0.035 A 
HETATM   17  C   UNL     1      28.576  44.538  54.358  1.00  0.00     0.029 A 
HETATM   18  C   UNL     1      29.709  44.312  55.147  1.00  0.00     0.002 A 
HETATM   19  C   UNL     1      30.652  43.360  54.768  1.00  0.00     0.000 A 
HETATM   20  C   UNL     1      30.460  42.625  53.602  1.00  0.00     0.002 A 
HETATM   21  C   UNL     1      29.323  42.843  52.818  1.00  0.00     0.029 A 
ENDBRANCH  13  16
ENDBRANCH  10  12
BRANCH   9  22
HETATM   22  C   UNL     1      25.560  42.136  50.267  1.00  0.00     0.064 A 
HETATM   23  N   UNL     1      26.352  42.666  49.293  1.00  0.00    -0.263 NA
HETATM   24  C   UNL     1      27.288  41.858  48.746  1.00  0.00     0.117 A 
HETATM   25  C   UNL     1      27.485  40.541  49.120  1.00  0.00     0.019 A 
HETATM   26  C   UNL     1      26.673  40.012  50.114  1.00  0.00     0.003 A 
HETATM   27  C   UNL     1      25.697  40.814  50.697  1.00  0.00     0.030 A 
ENDBRANCH   9  22
TORSDOF 3
ENDMDL
MODEL 2
REMARK VINA RESULT:      -8.1      4.446      8.272
REMARK  3 active torsions:
REMARK  status: ('A' for Active; 'I' for Inactive)
REMARK    1  A    between atoms: C_9  and  C_10 
REMARK    2  A    between atoms: C_16  and  C_17 
REMARK       I    between atoms: C_17  and  N_18 
REMARK    3  A    between atoms: N_18  and  C_19 
ROOT
HETATM    1  C   UNL     1      22.132  44.720  47.906  1.00  0.00     0.070 C 
HETATM    2  C   UNL     1      23.159  45.294  48.849  1.00  0.00     0.037 A 
HETATM    3  N   UNL     1      23.989  44.368  49.473  1.00  0.00    -0.191 N 
HETATM    4  C   UNL     1      24.845  44.700  50.461  1.00  0.00     0.735 A 
HETATM    5  N   UNL     1      24.991  46.014  50.807  1.00  0.00    -0.091 N 
HETATM    6  N   UNL     1      25.774  46.121  51.895  1.00  0.00     0.012 NA
HETATM    7  N   UNL     1      26.166  44.876  52.146  1.00  0.00     0.033 NA
HETATM    8  N   UNL     1      25.592  43.980  51.264  1.00  0.00     0.030 NA
HETATM    9  C   UNL     1      24.270  47.120  50.192  1.00  0.00     0.216 A 
HETATM   10  C   UNL     1      23.276  46.610  49.153  1.00  0.00     0.063 A 
HETATM   11  H   UNL     1      23.838  43.383  49.268  1.00  0.00     0.184 HD
ENDROOT
BRANCH  10  12
HETATM   12  C   UNL     1      22.425  47.683  48.580  1.00  0.00     0.256 C 
HETATM   13  N   UNL     1      21.744  48.405  49.532  1.00  0.00    -0.323 N 
HETATM   14  H   UNL     1      21.841  48.093  50.491  1.00  0.00     0.169 HD
HETATM   15  O   UNL     1      22.373  47.798  47.362  1.00  0.00    -0.267 OA
BRANCH  13  16
HETATM   16  C   UNL     1      20.907  49.520  49.328  1.00  0.00     0.035 A 
HETATM   17  C   UNL     1      21.297  50.671  48.641  1.00  0.00     0.029 A 
HETATM   18  C   UNL     1      20.409  51.743  48.495  1.00  0.00     0.002 A 
HETATM   19  C   UNL     1      19.130  51.676  49.041  1.00  0.00     0.000 A 
HETATM   20  C   UNL     1      18.732  50.534  49.729  1.00  0.00     0.002 A 
HETATM   21  C   UNL     1      19.615  49.459  49.867  1.00  0.00     0.029 A 
ENDBRANCH  13  16
ENDBRANCH  10  12
BRANCH   9  22
HETATM   22  C   UNL     1      25.278  48.103  49.609  1.00  0.00     0.064 A 
HETATM   23  N   UNL     1      24.808  49.266  49.078  1.00  0.00    -0.263 NA
HETATM   24  C   UNL     1      25.714  50.112  48.538  1.00  0.00     0.117 A 
HETATM   25  C   UNL     1      27.075  49.865  48.499  1.00  0.00     0.019 A 
HETATM   26  C   UNL     1      27.542  48.677  49.044  1.00  0.00     0.003 A 
HETATM   27  C   UNL     1      26.637  47.781  49.606  1.00  0.00     0.030 A 
ENDBRANCH   9  22
TORSDOF 3
ENDMDL
MODEL 3
REMARK VINA RESULT:      -7.7      3.100      7.640
REMARK  3 active torsions:
REMARK  status: ('A' for Active; 'I' for Inactive)
REMARK    1  A    between atoms: C_9  and  C_10 
REMARK    2  A    between atoms: C_16  and  C_17 
REMARK       I    between atoms: C_17  and  N_18 
REMARK    3  A    between atoms: N_18  and  C_19 
ROOT
HETATM    1  C   UNL     1      25.371  42.780  50.854  1.00  0.00     0.070 C 
HETATM    2  C   UNL     1      25.388  44.221  51.295  1.00  0.00     0.037 A 
HETATM    3  N   UNL     1      26.061  44.481  52.485  1.00  0.00    -0.191 N 
HETATM    4  C   UNL     1      26.031  45.682  53.097  1.00  0.00     0.735 A 
HETATM    5  N   UNL     1      25.401  46.730  52.486  1.00  0.00    -0.091 N 
HETATM    6  N   UNL     1      25.359  47.790  53.312  1.00  0.00     0.012 NA
HETATM    7  N   UNL     1      26.041  47.402  54.386  1.00  0.00     0.033 NA
HETATM    8  N   UNL     1      26.461  46.090  54.267  1.00  0.00     0.030 NA
HETATM    9  C   UNL     1      24.728  46.656  51.197  1.00  0.00     0.216 A 
HETATM   10  C   UNL     1      24.759  45.234  50.647  1.00  0.00     0.063 A 
HETATM   11  H   UNL     1      26.474  43.692  52.977  1.00  0.00     0.184 HD
ENDROOT
BRANCH  10  12
HETATM   12  C   UNL     1      23.981  45.072  49.393  1.00  0.00     0.256 C 
HETATM   13  N   UNL     1      22.734  45.648  49.448  1.00  0.00    -0.323 N 
HETATM   14  H   UNL     1      22.460  46.051  50.336  1.00  0.00     0.169 HD
HETATM   15  O   UNL     1      24.481  44.432  48.476  1.00  0.00    -0.267 OA
BRANCH  13  16
HETATM   16  C   UNL     1      21.778  45.727  48.414  1.00  0.00     0.035 A 
HETATM   17  C   UNL     1      22.005  46.359  47.190  1.00  0.00     0.029 A 
HETATM   18  C   UNL     1      20.997  46.407  46.221  1.00  0.00     0.002 A 
HETATM   19  C   UNL     1      19.753  45.831  46.471  1.00  0.00     0.000 A 
HETATM   20  C   UNL     1      19.518  45.199  47.688  1.00  0.00     0.002 A 
HETATM   21  C   UNL     1      20.527  45.142  48.653  1.00  0.00     0.029 A 
ENDBRANCH  13  16
ENDBRANCH  10  12
BRANCH   9  22
HETATM   22  C   UNL     1      25.364  47.666  50.249  1.00  0.00     0.064 A 
HETATM   23  N   UNL     1      24.552  48.566  49.629  1.00  0.00    -0.263 NA
HETATM   24  C   UNL     1      25.130  49.435  48.768  1.00  0.00     0.117 A 
HETATM   25  C   UNL     1      26.485  49.460  48.490  1.00  0.00     0.019 A 
HETATM   26  C   UNL     1      27.304  48.539  49.130  1.00  0.00     0.003 A 
HETATM   27  C   UNL     1      26.741  47.628  50.019  1.00  0.00     0.030 A 
ENDBRANCH   9  22
TORSDOF 3
ENDMDL
MODEL 4
REMARK VINA RESULT:      -7.6      5.433      8.029
REMARK  3 active torsions:
REMARK  status: ('A' for Active; 'I' for Inactive)
REMARK    1  A    between atoms: C_9  and  C_10 
REMARK    2  A    between atoms: C_16  and  C_17 
REMARK       I    between atoms: C_17  and  N_18 
REMARK    3  A    between atoms: N_18  and  C_19 
ROOT
HETATM    1  C   UNL     1      23.126  51.143  48.100  1.00  0.00     0.070 C 
HETATM    2  C   UNL     1      21.778  50.628  48.538  1.00  0.00     0.037 A 
HETATM    3  N   UNL     1      20.816  51.600  48.796  1.00  0.00    -0.191 N 
HETATM    4  C   UNL     1      19.619  51.317  49.350  1.00  0.00     0.735 A 
HETATM    5  N   UNL     1      19.278  50.013  49.580  1.00  0.00    -0.091 N 
HETATM    6  N   UNL     1      18.120  49.952  50.259  1.00  0.00     0.012 NA
HETATM    7  N   UNL     1      17.724  51.217  50.358  1.00  0.00     0.033 NA
HETATM    8  N   UNL     1      18.651  52.078  49.800  1.00  0.00     0.030 NA
HETATM    9  C   UNL     1      20.128  48.869  49.283  1.00  0.00     0.216 A 
HETATM   10  C   UNL     1      21.481  49.321  48.742  1.00  0.00     0.063 A 
HETATM   11  H   UNL     1      21.087  52.574  48.690  1.00  0.00     0.184 HD
ENDROOT
BRANCH  10  12
HETATM   12  C   UNL     1      22.434  48.201  48.536  1.00  0.00     0.256 C 
HETATM   13  N   UNL     1      23.206  47.933  49.642  1.00  0.00    -0.323 N 
HETATM   14  H   UNL     1      23.091  48.554  50.435  1.00  0.00     0.169 HD
HETATM   15  O   UNL     1      22.478  47.667  47.435  1.00  0.00    -0.267 OA
BRANCH  13  16
HETATM   16  C   UNL     1      24.156  46.903  49.797  1.00  0.00     0.035 A 
HETATM   17  C   UNL     1      23.844  45.543  49.755  1.00  0.00     0.029 A 
HETATM   18  C   UNL     1      24.845  44.582  49.933  1.00  0.00     0.002 A 
HETATM   19  C   UNL     1      26.162  44.972  50.165  1.00  0.00     0.000 A 
HETATM   20  C   UNL     1      26.482  46.326  50.210  1.00  0.00     0.002 A 
HETATM   21  C   UNL     1      25.484  47.287  50.022  1.00  0.00     0.029 A 
ENDBRANCH  13  16
ENDBRANCH  10  12
BRANCH   9  22
HETATM   22  C   UNL     1      19.391  47.943  48.323  1.00  0.00     0.064 A 
HETATM   23  N   UNL     1      19.135  46.668  48.728  1.00  0.00    -0.263 NA
HETATM   24  C   UNL     1      18.508  45.852  47.851  1.00  0.00     0.117 A 
HETATM   25  C   UNL     1      18.112  46.238  46.583  1.00  0.00     0.019 A 
HETATM   26  C   UNL     1      18.376  47.541  46.182  1.00  0.00     0.003 A 
HETATM   27  C   UNL     1      19.024  48.407  47.058  1.00  0.00     0.030 A 
ENDBRANCH   9  22
TORSDOF 3
ENDMDL
MODEL 5
REMARK VINA RESULT:      -7.4     12.437     14.623
REMARK  3 active torsions:
REMARK  status: ('A' for Active; 'I' for Inactive)
REMARK    1  A    between atoms: C_9  and  C_10 
REMARK    2  A    between atoms: C_16  and  C_17 
REMARK       I    between atoms: C_17  and  N_18 
REMARK    3  A    between atoms: N_18  and  C_19 
ROOT
HETATM    1  C   UNL     1      32.090  47.294  40.661  1.00  0.00     0.070 C 
HETATM    2  C   UNL     1      32.129  48.663  41.290  1.00  0.00     0.037 A 
HETATM    3  N   UNL     1      33.399  49.183  41.524  1.00  0.00    -0.191 N 
HETATM    4  C   UNL     1      33.608  50.317  42.224  1.00  0.00     0.735 A 
HETATM    5  N   UNL     1      32.536  51.054  42.642  1.00  0.00    -0.091 N 
HETATM    6  N   UNL     1      32.947  52.058  43.436  1.00  0.00     0.012 NA
HETATM    7  N   UNL     1      34.273  51.972  43.422  1.00  0.00     0.033 NA
HETATM    8  N   UNL     1      34.699  50.889  42.675  1.00  0.00     0.030 NA
HETATM    9  C   UNL     1      31.143  50.704  42.402  1.00  0.00     0.216 A 
HETATM   10  C   UNL     1      31.036  49.366  41.677  1.00  0.00     0.063 A 
HETATM   11  H   UNL     1      34.199  48.607  41.275  1.00  0.00     0.184 HD
ENDROOT
BRANCH  10  12
HETATM   12  C   UNL     1      29.636  48.898  41.513  1.00  0.00     0.256 C 
HETATM   13  N   UNL     1      29.124  49.146  40.260  1.00  0.00    -0.323 N 
HETATM   14  H   UNL     1      29.715  49.666  39.624  1.00  0.00     0.169 HD
HETATM   15  O   UNL     1      29.073  48.393  42.476  1.00  0.00    -0.267 OA
BRANCH  13  16
HETATM   16  C   UNL     1      27.858  48.776  39.763  1.00  0.00     0.035 A 
HETATM   17  C   UNL     1      27.504  47.467  39.429  1.00  0.00     0.029 A 
HETATM   18  C   UNL     1      26.229  47.185  38.926  1.00  0.00     0.002 A 
HETATM   19  C   UNL     1      25.302  48.209  38.744  1.00  0.00     0.000 A 
HETATM   20  C   UNL     1      25.646  49.517  39.072  1.00  0.00     0.002 A 
HETATM   21  C   UNL     1      26.916  49.798  39.585  1.00  0.00     0.029 A 
ENDBRANCH  13  16
ENDBRANCH  10  12
BRANCH   9  22
HETATM   22  C   UNL     1      30.473  51.840  41.638  1.00  0.00     0.064 A 
HETATM   23  N   UNL     1      29.121  51.973  41.736  1.00  0.00    -0.263 NA
HETATM   24  C   UNL     1      28.541  52.968  41.027  1.00  0.00     0.117 A 
HETATM   25  C   UNL     1      29.239  53.850  40.221  1.00  0.00     0.019 A 
HETATM   26  C   UNL     1      30.617  53.707  40.130  1.00  0.00     0.003 A 
HETATM   27  C   UNL     1      31.246  52.691  40.843  1.00  0.00     0.030 A 
ENDBRANCH   9  22
TORSDOF 3
ENDMDL
MODEL 6
REMARK VINA RESULT:      -7.4     11.478     13.412
REMARK  3 active torsions:
REMARK  status: ('A' for Active; 'I' for Inactive)
REMARK    1  A    between atoms: C_9  and  C_10 
REMARK    2  A    between atoms: C_16  and  C_17 
REMARK       I    between atoms: C_17  and  N_18 
REMARK    3  A    between atoms: N_18  and  C_19 
ROOT
HETATM    1  C   UNL     1      24.954  49.065  39.178  1.00  0.00     0.070 C 
HETATM    2  C   UNL     1      26.400  49.431  38.961  1.00  0.00     0.037 A 
HETATM    3  N   UNL     1      26.649  50.775  38.698  1.00  0.00    -0.191 N 
HETATM    4  C   UNL     1      27.860  51.236  38.322  1.00  0.00     0.735 A 
HETATM    5  N   UNL     1      28.923  50.378  38.291  1.00  0.00    -0.091 N 
HETATM    6  N   UNL     1      29.996  50.990  37.760  1.00  0.00     0.012 NA
HETATM    7  N   UNL     1      29.596  52.241  37.554  1.00  0.00     0.033 NA
HETATM    8  N   UNL     1      28.267  52.407  37.896  1.00  0.00     0.030 NA
HETATM    9  C   UNL     1      28.858  48.962  38.626  1.00  0.00     0.216 A 
HETATM   10  C   UNL     1      27.427  48.545  38.952  1.00  0.00     0.063 A 
HETATM   11  H   UNL     1      25.851  51.404  38.654  1.00  0.00     0.184 HD
ENDROOT
BRANCH  10  12
HETATM   12  C   UNL     1      27.278  47.086  39.183  1.00  0.00     0.256 C 
HETATM   13  N   UNL     1      27.236  46.747  40.515  1.00  0.00    -0.323 N 
HETATM   14  H   UNL     1      27.374  47.501  41.178  1.00  0.00     0.169 HD
HETATM   15  O   UNL     1      27.250  46.342  38.210  1.00  0.00    -0.267 OA
BRANCH  13  16
HETATM   16  C   UNL     1      27.041  45.466  41.069  1.00  0.00     0.035 A 
HETATM   17  C   UNL     1      27.695  44.317  40.622  1.00  0.00     0.029 A 
HETATM   18  C   UNL     1      27.434  43.077  41.217  1.00  0.00     0.002 A 
HETATM   19  C   UNL     1      26.511  42.976  42.255  1.00  0.00     0.000 A 
HETATM   20  C   UNL     1      25.853  44.116  42.707  1.00  0.00     0.002 A 
HETATM   21  C   UNL     1      26.121  45.356  42.120  1.00  0.00     0.029 A 
ENDBRANCH  13  16
ENDBRANCH  10  12
BRANCH   9  22
HETATM   22  C   UNL     1      29.826  48.680  39.768  1.00  0.00     0.064 A 
HETATM   23  N   UNL     1      29.515  49.153  41.007  1.00  0.00    -0.263 NA
HETATM   24  C   UNL     1      30.402  48.920  42.002  1.00  0.00     0.117 A 
HETATM   25  C   UNL     1      31.589  48.231  41.832  1.00  0.00     0.019 A 
HETATM   26  C   UNL     1      31.895  47.752  40.565  1.00  0.00     0.003 A 
HETATM   27  C   UNL     1      31.007  47.977  39.518  1.00  0.00     0.030 A 
ENDBRANCH   9  22
TORSDOF 3
ENDMDL
MODEL 7
REMARK VINA RESULT:      -7.0     13.103     15.078
REMARK  3 active torsions:
REMARK  status: ('A' for Active; 'I' for Inactive)
REMARK    1  A    between atoms: C_9  and  C_10 
REMARK    2  A    between atoms: C_16  and  C_17 
REMARK       I    between atoms: C_17  and  N_18 
REMARK    3  A    between atoms: N_18  and  C_19 
ROOT
HETATM    1  C   UNL     1      28.502  53.468  40.798  1.00  0.00     0.070 C 
HETATM    2  C   UNL     1      29.652  52.709  40.188  1.00  0.00     0.037 A 
HETATM    3  N   UNL     1      30.919  53.226  40.442  1.00  0.00    -0.191 N 
HETATM    4  C   UNL     1      32.033  52.763  39.839  1.00  0.00     0.735 A 
HETATM    5  N   UNL     1      31.948  51.674  39.018  1.00  0.00    -0.091 N 
HETATM    6  N   UNL     1      33.128  51.461  38.410  1.00  0.00     0.012 NA
HETATM    7  N   UNL     1      33.943  52.370  38.935  1.00  0.00     0.033 NA
HETATM    8  N   UNL     1      33.273  53.192  39.823  1.00  0.00     0.030 NA
HETATM    9  C   UNL     1      30.718  50.956  38.716  1.00  0.00     0.216 A 
HETATM   10  C   UNL     1      29.521  51.622  39.388  1.00  0.00     0.063 A 
HETATM   11  H   UNL     1      30.981  54.075  40.998  1.00  0.00     0.184 HD
ENDROOT
BRANCH  10  12
HETATM   12  C   UNL     1      28.222  51.004  39.018  1.00  0.00     0.256 C 
HETATM   13  N   UNL     1      27.799  50.049  39.912  1.00  0.00    -0.323 N 
HETATM   14  H   UNL     1      28.433  49.827  40.671  1.00  0.00     0.169 HD
HETATM   15  O   UNL     1      27.687  51.354  37.974  1.00  0.00    -0.267 OA
BRANCH  13  16
HETATM   16  C   UNL     1      26.590  49.325  39.887  1.00  0.00     0.035 A 
HETATM   17  C   UNL     1      25.481  49.687  39.120  1.00  0.00     0.029 A 
HETATM   18  C   UNL     1      24.310  48.922  39.164  1.00  0.00     0.002 A 
HETATM   19  C   UNL     1      24.236  47.795  39.980  1.00  0.00     0.000 A 
HETATM   20  C   UNL     1      25.336  47.427  40.749  1.00  0.00     0.002 A 
HETATM   21  C   UNL     1      26.509  48.186  40.698  1.00  0.00     0.029 A 
ENDBRANCH  13  16
ENDBRANCH  10  12
BRANCH   9  22
HETATM   22  C   UNL     1      30.885  49.497  39.127  1.00  0.00     0.064 A 
HETATM   23  N   UNL     1      30.254  48.545  38.386  1.00  0.00    -0.263 NA
HETATM   24  C   UNL     1      30.389  47.259  38.783  1.00  0.00     0.117 A 
HETATM   25  C   UNL     1      31.127  46.864  39.885  1.00  0.00     0.019 A 
HETATM   26  C   UNL     1      31.767  47.844  40.631  1.00  0.00     0.003 A 
HETATM   27  C   UNL     1      31.647  49.178  40.253  1.00  0.00     0.030 A 
ENDBRANCH   9  22
TORSDOF 3
ENDMDL
MODEL 8
REMARK VINA RESULT:      -7.0     11.664     12.922
REMARK  3 active torsions:
REMARK  status: ('A' for Active; 'I' for Inactive)
REMARK    1  A    between atoms: C_9  and  C_10 
REMARK    2  A    between atoms: C_16  and  C_17 
REMARK       I    between atoms: C_17  and  N_18 
REMARK    3  A    between atoms: N_18  and  C_19 
ROOT
HETATM    1  C   UNL     1      28.086  51.932  38.419  1.00  0.00     0.070 C 
HETATM    2  C   UNL     1      27.224  50.746  38.768  1.00  0.00     0.037 A 
HETATM    3  N   UNL     1      26.029  50.639  38.062  1.00  0.00    -0.191 N 
HETATM    4  C   UNL     1      25.076  49.735  38.367  1.00  0.00     0.735 A 
HETATM    5  N   UNL     1      25.320  48.806  39.340  1.00  0.00    -0.091 N 
HETATM    6  N   UNL     1      24.207  48.095  39.589  1.00  0.00     0.012 NA
HETATM    7  N   UNL     1      23.322  48.540  38.702  1.00  0.00     0.033 NA
HETATM    8  N   UNL     1      23.849  49.564  37.937  1.00  0.00     0.030 NA
HETATM    9  C   UNL     1      26.552  48.716  40.111  1.00  0.00     0.216 A 
HETATM   10  C   UNL     1      27.513  49.840  39.735  1.00  0.00     0.063 A 
HETATM   11  H   UNL     1      25.814  51.366  37.384  1.00  0.00     0.184 HD
ENDROOT
BRANCH  10  12
HETATM   12  C   UNL     1      28.737  49.871  40.575  1.00  0.00     0.256 C 
HETATM   13  N   UNL     1      29.841  49.342  39.948  1.00  0.00    -0.323 N 
HETATM   14  H   UNL     1      29.690  48.938  39.031  1.00  0.00     0.169 HD
HETATM   15  O   UNL     1      28.650  50.307  41.716  1.00  0.00    -0.267 OA
BRANCH  13  16
HETATM   16  C   UNL     1      31.160  49.279  40.441  1.00  0.00     0.035 A 
HETATM   17  C   UNL     1      32.024  50.374  40.498  1.00  0.00     0.029 A 
HETATM   18  C   UNL     1      33.326  50.223  40.989  1.00  0.00     0.002 A 
HETATM   19  C   UNL     1      33.776  48.977  41.417  1.00  0.00     0.000 A 
HETATM   20  C   UNL     1      32.923  47.879  41.363  1.00  0.00     0.002 A 
HETATM   21  C   UNL     1      31.619  48.031  40.882  1.00  0.00     0.029 A 
ENDBRANCH  13  16
ENDBRANCH  10  12
BRANCH   9  22
HETATM   22  C   UNL     1      27.159  47.333  39.911  1.00  0.00     0.064 A 
HETATM   23  N   UNL     1      27.785  47.070  38.730  1.00  0.00    -0.263 NA
HETATM   24  C   UNL     1      28.291  45.827  38.559  1.00  0.00     0.117 A 
HETATM   25  C   UNL     1      28.211  44.823  39.507  1.00  0.00     0.019 A 
HETATM   26  C   UNL     1      27.572  45.103  40.707  1.00  0.00     0.003 A 
HETATM   27  C   UNL     1      27.036  46.370  40.916  1.00  0.00     0.030 A 
ENDBRANCH   9  22
TORSDOF 3
ENDMDL
MODEL 9
REMARK VINA RESULT:      -7.0      1.998      5.207
REMARK  3 active torsions:
REMARK  status: ('A' for Active; 'I' for Inactive)
REMARK    1  A    between atoms: C_9  and  C_10 
REMARK    2  A    between atoms: C_16  and  C_17 
REMARK       I    between atoms: C_17  and  N_18 
REMARK    3  A    between atoms: N_18  and  C_19 
ROOT
HETATM    1  C   UNL     1      23.169  42.154  49.051  1.00  0.00     0.070 C 
HETATM    2  C   UNL     1      24.155  43.191  49.524  1.00  0.00     0.037 A 
HETATM    3  N   UNL     1      23.698  44.505  49.522  1.00  0.00    -0.191 N 
HETATM    4  C   UNL     1      24.502  45.562  49.759  1.00  0.00     0.735 A 
HETATM    5  N   UNL     1      25.803  45.346  50.119  1.00  0.00    -0.091 N 
HETATM    6  N   UNL     1      26.467  46.514  50.171  1.00  0.00     0.012 NA
HETATM    7  N   UNL     1      25.540  47.435  49.927  1.00  0.00     0.033 NA
HETATM    8  N   UNL     1      24.313  46.856  49.664  1.00  0.00     0.030 NA
HETATM    9  C   UNL     1      26.419  44.035  50.260  1.00  0.00     0.216 A 
HETATM   10  C   UNL     1      25.436  42.929  49.886  1.00  0.00     0.063 A 
HETATM   11  H   UNL     1      22.751  44.676  49.191  1.00  0.00     0.184 HD
ENDROOT
BRANCH  10  12
HETATM   12  C   UNL     1      26.046  41.575  49.893  1.00  0.00     0.256 C 
HETATM   13  N   UNL     1      26.792  41.309  48.768  1.00  0.00    -0.323 N 
HETATM   14  H   UNL     1      26.791  42.019  48.046  1.00  0.00     0.169 HD
HETATM   15  O   UNL     1      25.807  40.833  50.837  1.00  0.00    -0.267 OA
BRANCH  13  16
HETATM   16  C   UNL     1      27.546  40.150  48.493  1.00  0.00     0.035 A 
HETATM   17  C   UNL     1      28.662  39.753  49.232  1.00  0.00     0.029 A 
HETATM   18  C   UNL     1      29.367  38.595  48.883  1.00  0.00     0.002 A 
HETATM   19  C   UNL     1      28.966  37.831  47.790  1.00  0.00     0.000 A 
HETATM   20  C   UNL     1      27.855  38.219  47.047  1.00  0.00     0.002 A 
HETATM   21  C   UNL     1      27.145  39.370  47.401  1.00  0.00     0.029 A 
ENDBRANCH  13  16
ENDBRANCH  10  12
BRANCH   9  22
HETATM   22  C   UNL     1      26.953  43.890  51.680  1.00  0.00     0.064 A 
HETATM   23  N   UNL     1      26.067  43.973  52.711  1.00  0.00    -0.263 NA
HETATM   24  C   UNL     1      26.564  43.873  53.966  1.00  0.00     0.117 A 
HETATM   25  C   UNL     1      27.904  43.689  54.253  1.00  0.00     0.019 A 
HETATM   26  C   UNL     1      28.798  43.605  53.194  1.00  0.00     0.003 A 
HETATM   27  C   UNL     1      28.321  43.707  51.890  1.00  0.00     0.030 A 
ENDBRANCH   9  22
TORSDOF 3
ENDMDL
MODEL 10
REMARK VINA RESULT:      -7.0     13.793     15.280
REMARK  3 active torsions:
REMARK  status: ('A' for Active; 'I' for Inactive)
REMARK    1  A    between atoms: C_9  and  C_10 
REMARK    2  A    between atoms: C_16  and  C_17 
REMARK       I    between atoms: C_17  and  N_18 
REMARK    3  A    between atoms: N_18  and  C_19 
ROOT
HETATM    1  C   UNL     1      33.286  47.718  41.637  1.00  0.00     0.070 C 
HETATM    2  C   UNL     1      32.115  48.164  40.799  1.00  0.00     0.037 A 
HETATM    3  N   UNL     1      31.184  47.176  40.489  1.00  0.00    -0.191 N 
HETATM    4  C   UNL     1      30.172  47.370  39.618  1.00  0.00     0.735 A 
HETATM    5  N   UNL     1      29.975  48.613  39.086  1.00  0.00    -0.091 N 
HETATM    6  N   UNL     1      29.018  48.566  38.144  1.00  0.00     0.012 NA
HETATM    7  N   UNL     1      28.581  47.311  38.176  1.00  0.00     0.033 NA
HETATM    8  N   UNL     1      29.295  46.553  39.086  1.00  0.00     0.030 NA
HETATM    9  C   UNL     1      30.798  49.780  39.374  1.00  0.00     0.216 A 
HETATM   10  C   UNL     1      31.953  49.415  40.301  1.00  0.00     0.063 A 
HETATM   11  H   UNL     1      31.363  46.235  40.829  1.00  0.00     0.184 HD
ENDROOT
BRANCH  10  12
HETATM   12  C   UNL     1      32.896  50.538  40.534  1.00  0.00     0.256 C 
HETATM   13  N   UNL     1      33.643  50.860  39.424  1.00  0.00    -0.323 N 
HETATM   14  H   UNL     1      33.521  50.270  38.610  1.00  0.00     0.169 HD
HETATM   15  O   UNL     1      32.954  51.029  41.654  1.00  0.00    -0.267 OA
BRANCH  13  16
HETATM   16  C   UNL     1      34.576  51.908  39.292  1.00  0.00     0.035 A 
HETATM   17  C   UNL     1      34.233  53.261  39.292  1.00  0.00     0.029 A 
HETATM   18  C   UNL     1      35.221  54.242  39.140  1.00  0.00     0.002 A 
HETATM   19  C   UNL     1      36.555  53.876  38.979  1.00  0.00     0.000 A 
HETATM   20  C   UNL     1      36.907  52.530  38.977  1.00  0.00     0.002 A 
HETATM   21  C   UNL     1      35.922  51.551  39.138  1.00  0.00     0.029 A 
ENDBRANCH  13  16
ENDBRANCH  10  12
BRANCH   9  22
HETATM   22  C   UNL     1      29.911  50.879  39.946  1.00  0.00     0.064 A 
HETATM   23  N   UNL     1      29.178  50.600  41.059  1.00  0.00    -0.263 NA
HETATM   24  C   UNL     1      28.373  51.578  41.534  1.00  0.00     0.117 A 
HETATM   25  C   UNL     1      28.259  52.832  40.960  1.00  0.00     0.019 A 
HETATM   26  C   UNL     1      29.013  53.106  39.827  1.00  0.00     0.003 A 
HETATM   27  C   UNL     1      29.849  52.121  39.309  1.00  0.00     0.030 A 
ENDBRANCH   9  22
TORSDOF 3
ENDMDL
