MODEL 1
REMARK VINA RESULT:      -8.2      0.000      0.000
REMARK  9 active torsions:
REMARK  status: ('A' for Active; 'I' for Inactive)
REMARK    1  A    between atoms: C_2  and  O_3 
REMARK    2  A    between atoms: O_3  and  C_4 
REMARK    3  A    between atoms: C_7  and  N_8 
REMARK       I    between atoms: N_8  and  C_9 
REMARK    4  A    between atoms: C_9  and  C_10 
REMARK    5  A    between atoms: C_11  and  N_12 
REMARK       I    between atoms: N_12  and  C_13 
REMARK    6  A    between atoms: C_13  and  C_14 
REMARK    7  A    between atoms: C_14  and  N_15 
REMARK    8  A    between atoms: N_15  and  C_18 
REMARK    9  A    between atoms: C_18  and  C_19 
ROOT
HETATM    1  C   UNL     1      23.911  48.412  49.022  1.00  0.00     0.073 A 
HETATM    2  C   UNL     1      23.899  47.082  49.464  1.00  0.00     0.093 A 
HETATM    3  S   UNL     1      25.437  46.509  49.941  1.00  0.00    -0.075 SA
HETATM    4  C   UNL     1      26.135  47.964  49.533  1.00  0.00    -0.008 A 
HETATM    5  C   UNL     1      25.257  48.894  49.045  1.00  0.00    -0.026 A 
HETATM    6  C   UNL     1      25.990  50.139  48.677  1.00  0.00     0.041 C 
HETATM    7  C   UNL     1      27.480  49.679  48.688  1.00  0.00     0.010 C 
HETATM    8  C   UNL     1      27.546  48.415  49.590  1.00  0.00     0.047 C 
ENDROOT
BRANCH   2   9
HETATM    9  N   UNL     1      22.779  46.259  49.509  1.00  0.00    -0.319 N 
HETATM   10  C   UNL     1      22.139  45.671  48.445  1.00  0.00     0.248 C 
HETATM   11  O   UNL     1      22.453  45.668  47.255  1.00  0.00    -0.271 OA
HETATM   12  H   UNL     1      22.457  46.084  50.464  1.00  0.00     0.169 HD
BRANCH  10  13
HETATM   13  C   UNL     1      20.875  44.902  48.829  1.00  0.00     0.335 C 
BRANCH  13  14
HETATM   14  N   UNL     1      19.747  45.882  49.030  1.00  0.00    -0.059 N 
HETATM   15  H   UNL     1      19.445  45.755  50.016  1.00  0.00     0.278 HD
HETATM   16  H   UNL     1      20.113  46.842  49.031  1.00  0.00     0.278 HD
BRANCH  14  17
HETATM   17  C   UNL     1      18.549  45.768  48.153  1.00  0.00     0.215 C 
HETATM   18  C   UNL     1      18.780  44.702  47.083  1.00  0.00     0.045 C 
BRANCH  17  19
HETATM   19  C   UNL     1      18.217  47.125  47.571  1.00  0.00    -0.028 A 
HETATM   20  C   UNL     1      16.911  47.644  47.600  1.00  0.00     0.009 A 
HETATM   21  C   UNL     1      16.623  48.882  47.023  1.00  0.00     0.001 A 
HETATM   22  C   UNL     1      17.632  49.617  46.408  1.00  0.00     0.000 A 
HETATM   23  C   UNL     1      18.930  49.117  46.367  1.00  0.00     0.001 A 
HETATM   24  C   UNL     1      19.223  47.877  46.939  1.00  0.00     0.009 A 
ENDBRANCH  17  19
ENDBRANCH  14  17
ENDBRANCH  13  14
ENDBRANCH  10  13
ENDBRANCH   2   9
BRANCH   1  25
HETATM   25  C   UNL     1      22.664  49.094  48.623  1.00  0.00     0.259 C 
HETATM   26  N   UNL     1      21.919  49.595  49.670  1.00  0.00    -0.323 N 
HETATM   27  H   UNL     1      22.273  49.428  50.600  1.00  0.00     0.169 HD
HETATM   28  O   UNL     1      22.345  49.124  47.435  1.00  0.00    -0.267 OA
BRANCH  26  29
HETATM   29  C   UNL     1      20.655  50.217  49.624  1.00  0.00     0.035 A 
HETATM   30  C   UNL     1      20.403  51.453  49.028  1.00  0.00     0.032 A 
HETATM   31  C   UNL     1      19.099  51.971  48.985  1.00  0.00     0.039 A 
HETATM   32  C   UNL     1      18.038  51.257  49.537  1.00  0.00     0.068 A 
HETATM   33  C   UNL     1      18.293  50.042  50.169  1.00  0.00     0.039 A 
HETATM   34  C   UNL     1      19.589  49.522  50.209  1.00  0.00     0.032 A 
BRANCH  32  35
HETATM   35  O   UNL     1      16.727  51.640  49.539  1.00  0.00    -0.352 OA
BRANCH  35  36
HETATM   36  C   UNL     1      16.446  52.963  49.992  1.00  0.00     0.171 C 
HETATM   37  C   UNL     1      14.969  53.034  50.336  1.00  0.00     0.034 C 
ENDBRANCH  35  36
ENDBRANCH  32  35
ENDBRANCH  26  29
ENDBRANCH   1  25
TORSDOF 9
ENDMDL
MODEL 2
REMARK VINA RESULT:      -8.2      6.651     10.828
REMARK  9 active torsions:
REMARK  status: ('A' for Active; 'I' for Inactive)
REMARK    1  A    between atoms: C_2  and  O_3 
REMARK    2  A    between atoms: O_3  and  C_4 
REMARK    3  A    between atoms: C_7  and  N_8 
REMARK       I    between atoms: N_8  and  C_9 
REMARK    4  A    between atoms: C_9  and  C_10 
REMARK    5  A    between atoms: C_11  and  N_12 
REMARK       I    between atoms: N_12  and  C_13 
REMARK    6  A    between atoms: C_13  and  C_14 
REMARK    7  A    between atoms: C_14  and  N_15 
REMARK    8  A    between atoms: N_15  and  C_18 
REMARK    9  A    between atoms: C_18  and  C_19 
ROOT
HETATM    1  C   UNL     1      29.197  44.217  54.360  1.00  0.00     0.073 A 
HETATM    2  C   UNL     1      28.295  45.268  54.578  1.00  0.00     0.093 A 
HETATM    3  S   UNL     1      28.590  46.132  56.024  1.00  0.00    -0.075 SA
HETATM    4  C   UNL     1      29.856  45.120  56.400  1.00  0.00    -0.008 A 
HETATM    5  C   UNL     1      30.088  44.137  55.476  1.00  0.00    -0.026 A 
HETATM    6  C   UNL     1      31.214  43.270  55.929  1.00  0.00     0.041 C 
HETATM    7  C   UNL     1      31.378  43.672  57.426  1.00  0.00     0.010 C 
HETATM    8  C   UNL     1      30.761  45.091  57.574  1.00  0.00     0.047 C 
ENDROOT
BRANCH   2   9
HETATM    9  N   UNL     1      27.235  45.603  53.743  1.00  0.00    -0.319 N 
HETATM   10  C   UNL     1      25.987  45.029  53.716  1.00  0.00     0.248 C 
HETATM   11  O   UNL     1      25.510  44.172  54.459  1.00  0.00    -0.271 OA
HETATM   12  H   UNL     1      27.454  46.388  53.123  1.00  0.00     0.169 HD
BRANCH  10  13
HETATM   13  C   UNL     1      25.080  45.566  52.609  1.00  0.00     0.335 C 
BRANCH  13  14
HETATM   14  N   UNL     1      25.856  46.557  51.777  1.00  0.00    -0.059 N 
HETATM   15  H   UNL     1      25.417  47.478  51.967  1.00  0.00     0.278 HD
HETATM   16  H   UNL     1      26.800  46.676  52.164  1.00  0.00     0.278 HD
BRANCH  14  17
HETATM   17  C   UNL     1      25.904  46.355  50.303  1.00  0.00     0.215 C 
HETATM   18  C   UNL     1      26.965  45.312  49.950  1.00  0.00     0.045 C 
BRANCH  17  19
HETATM   19  C   UNL     1      26.136  47.684  49.617  1.00  0.00    -0.028 A 
HETATM   20  C   UNL     1      27.427  48.217  49.451  1.00  0.00     0.009 A 
HETATM   21  C   UNL     1      27.611  49.462  48.848  1.00  0.00     0.001 A 
HETATM   22  C   UNL     1      26.513  50.193  48.405  1.00  0.00     0.000 A 
HETATM   23  C   UNL     1      25.228  49.682  48.565  1.00  0.00     0.001 A 
HETATM   24  C   UNL     1      25.038  48.439  49.170  1.00  0.00     0.009 A 
ENDBRANCH  17  19
ENDBRANCH  14  17
ENDBRANCH  13  14
ENDBRANCH  10  13
ENDBRANCH   2   9
BRANCH   1  25
HETATM   25  C   UNL     1      29.131  43.397  53.135  1.00  0.00     0.259 C 
HETATM   26  N   UNL     1      27.971  42.666  52.992  1.00  0.00    -0.323 N 
HETATM   27  H   UNL     1      27.295  42.734  53.737  1.00  0.00     0.169 HD
HETATM   28  O   UNL     1      30.097  43.368  52.374  1.00  0.00    -0.267 OA
BRANCH  26  29
HETATM   29  C   UNL     1      27.644  41.734  51.986  1.00  0.00     0.035 A 
HETATM   30  C   UNL     1      26.480  41.773  51.218  1.00  0.00     0.032 A 
HETATM   31  C   UNL     1      26.264  40.831  50.201  1.00  0.00     0.039 A 
HETATM   32  C   UNL     1      27.210  39.841  49.944  1.00  0.00     0.068 A 
HETATM   33  C   UNL     1      28.354  39.774  50.736  1.00  0.00     0.039 A 
HETATM   34  C   UNL     1      28.574  40.715  51.746  1.00  0.00     0.032 A 
BRANCH  32  35
HETATM   35  O   UNL     1      27.128  38.884  48.973  1.00  0.00    -0.352 OA
BRANCH  35  36
HETATM   36  C   UNL     1      27.578  37.576  49.321  1.00  0.00     0.171 C 
HETATM   37  C   UNL     1      26.706  36.572  48.589  1.00  0.00     0.034 C 
ENDBRANCH  35  36
ENDBRANCH  32  35
ENDBRANCH  26  29
ENDBRANCH   1  25
TORSDOF 9
ENDMDL
MODEL 3
REMARK VINA RESULT:      -8.2      6.695     10.589
REMARK  9 active torsions:
REMARK  status: ('A' for Active; 'I' for Inactive)
REMARK    1  A    between atoms: C_2  and  O_3 
REMARK    2  A    between atoms: O_3  and  C_4 
REMARK    3  A    between atoms: C_7  and  N_8 
REMARK       I    between atoms: N_8  and  C_9 
REMARK    4  A    between atoms: C_9  and  C_10 
REMARK    5  A    between atoms: C_11  and  N_12 
REMARK       I    between atoms: N_12  and  C_13 
REMARK    6  A    between atoms: C_13  and  C_14 
REMARK    7  A    between atoms: C_14  and  N_15 
REMARK    8  A    between atoms: N_15  and  C_18 
REMARK    9  A    between atoms: C_18  and  C_19 
ROOT
HETATM    1  C   UNL     1      27.919  40.927  50.076  1.00  0.00     0.073 A 
HETATM    2  C   UNL     1      27.346  41.604  48.991  1.00  0.00     0.093 A 
HETATM    3  S   UNL     1      27.429  40.732  47.523  1.00  0.00    -0.075 SA
HETATM    4  C   UNL     1      28.251  39.495  48.274  1.00  0.00    -0.008 A 
HETATM    5  C   UNL     1      28.475  39.695  49.610  1.00  0.00    -0.026 A 
HETATM    6  C   UNL     1      29.246  38.549  50.171  1.00  0.00     0.041 C 
HETATM    7  C   UNL     1      29.751  37.813  48.893  1.00  0.00     0.010 C 
HETATM    8  C   UNL     1      28.796  38.224  47.739  1.00  0.00     0.047 C 
ENDROOT
BRANCH   2   9
HETATM    9  N   UNL     1      26.774  42.870  49.045  1.00  0.00    -0.319 N 
HETATM   10  C   UNL     1      25.494  43.186  49.433  1.00  0.00     0.248 C 
HETATM   11  O   UNL     1      24.617  42.452  49.889  1.00  0.00    -0.271 OA
HETATM   12  H   UNL     1      27.430  43.611  48.785  1.00  0.00     0.169 HD
BRANCH  10  13
HETATM   13  C   UNL     1      25.148  44.667  49.286  1.00  0.00     0.335 C 
BRANCH  13  14
HETATM   14  N   UNL     1      26.366  45.491  49.622  1.00  0.00    -0.059 N 
HETATM   15  H   UNL     1      27.019  44.836  50.095  1.00  0.00     0.278 HD
HETATM   16  H   UNL     1      26.876  45.730  48.763  1.00  0.00     0.278 HD
BRANCH  14  17
HETATM   17  C   UNL     1      26.191  46.688  50.491  1.00  0.00     0.215 C 
HETATM   18  C   UNL     1      25.095  46.431  51.524  1.00  0.00     0.045 C 
BRANCH  17  19
HETATM   19  C   UNL     1      25.915  47.902  49.630  1.00  0.00    -0.028 A 
HETATM   20  C   UNL     1      26.955  48.689  49.105  1.00  0.00     0.009 A 
HETATM   21  C   UNL     1      26.674  49.824  48.344  1.00  0.00     0.001 A 
HETATM   22  C   UNL     1      25.354  50.193  48.099  1.00  0.00     0.000 A 
HETATM   23  C   UNL     1      24.312  49.427  48.615  1.00  0.00     0.001 A 
HETATM   24  C   UNL     1      24.588  48.291  49.379  1.00  0.00     0.009 A 
ENDBRANCH  17  19
ENDBRANCH  14  17
ENDBRANCH  13  14
ENDBRANCH  10  13
ENDBRANCH   2   9
BRANCH   1  25
HETATM   25  C   UNL     1      27.890  41.502  51.436  1.00  0.00     0.259 C 
HETATM   26  N   UNL     1      28.906  42.393  51.707  1.00  0.00    -0.323 N 
HETATM   27  H   UNL     1      29.583  42.548  50.976  1.00  0.00     0.169 HD
HETATM   28  O   UNL     1      27.031  41.126  52.233  1.00  0.00    -0.267 OA
BRANCH  26  29
HETATM   29  C   UNL     1      29.199  43.040  52.925  1.00  0.00     0.035 A 
HETATM   30  C   UNL     1      30.302  42.753  53.728  1.00  0.00     0.032 A 
HETATM   31  C   UNL     1      30.541  43.485  54.901  1.00  0.00     0.039 A 
HETATM   32  C   UNL     1      29.678  44.511  55.280  1.00  0.00     0.068 A 
HETATM   33  C   UNL     1      28.552  44.773  54.502  1.00  0.00     0.039 A 
HETATM   34  C   UNL     1      28.315  44.048  53.332  1.00  0.00     0.032 A 
BRANCH  32  35
HETATM   35  O   UNL     1      29.812  45.309  56.381  1.00  0.00    -0.352 OA
BRANCH  35  36
HETATM   36  C   UNL     1      30.729  44.871  57.382  1.00  0.00     0.171 C 
HETATM   37  C   UNL     1      30.634  45.832  58.554  1.00  0.00     0.034 C 
ENDBRANCH  35  36
ENDBRANCH  32  35
ENDBRANCH  26  29
ENDBRANCH   1  25
TORSDOF 9
ENDMDL
MODEL 4
REMARK VINA RESULT:      -8.2      5.617      9.544
REMARK  9 active torsions:
REMARK  status: ('A' for Active; 'I' for Inactive)
REMARK    1  A    between atoms: C_2  and  O_3 
REMARK    2  A    between atoms: O_3  and  C_4 
REMARK    3  A    between atoms: C_7  and  N_8 
REMARK       I    between atoms: N_8  and  C_9 
REMARK    4  A    between atoms: C_9  and  C_10 
REMARK    5  A    between atoms: C_11  and  N_12 
REMARK       I    between atoms: N_12  and  C_13 
REMARK    6  A    between atoms: C_13  and  C_14 
REMARK    7  A    between atoms: C_14  and  N_15 
REMARK    8  A    between atoms: N_15  and  C_18 
REMARK    9  A    between atoms: C_18  and  C_19 
ROOT
HETATM    1  C   UNL     1      26.732  42.203  49.752  1.00  0.00     0.073 A 
HETATM    2  C   UNL     1      25.603  42.366  48.937  1.00  0.00     0.093 A 
HETATM    3  S   UNL     1      25.135  40.935  48.127  1.00  0.00    -0.075 SA
HETATM    4  C   UNL     1      26.419  40.109  48.790  1.00  0.00    -0.008 A 
HETATM    5  C   UNL     1      27.209  40.862  49.616  1.00  0.00    -0.026 A 
HETATM    6  C   UNL     1      28.344  40.037  50.122  1.00  0.00     0.041 C 
HETATM    7  C   UNL     1      28.305  38.787  49.190  1.00  0.00     0.010 C 
HETATM    8  C   UNL     1      26.861  38.704  48.622  1.00  0.00     0.047 C 
ENDROOT
BRANCH   2   9
HETATM    9  N   UNL     1      24.910  43.557  48.752  1.00  0.00    -0.319 N 
HETATM   10  C   UNL     1      23.902  44.060  49.538  1.00  0.00     0.248 C 
HETATM   11  O   UNL     1      23.454  43.626  50.599  1.00  0.00    -0.271 OA
HETATM   12  H   UNL     1      25.250  44.090  47.947  1.00  0.00     0.169 HD
BRANCH  10  13
HETATM   13  C   UNL     1      23.284  45.352  49.004  1.00  0.00     0.335 C 
BRANCH  13  14
HETATM   14  N   UNL     1      23.608  46.479  49.951  1.00  0.00    -0.059 N 
HETATM   15  H   UNL     1      22.968  46.351  50.759  1.00  0.00     0.278 HD
HETATM   16  H   UNL     1      24.532  46.328  50.373  1.00  0.00     0.278 HD
BRANCH  14  17
HETATM   17  C   UNL     1      23.467  47.877  49.458  1.00  0.00     0.215 C 
HETATM   18  C   UNL     1      22.608  47.905  48.195  1.00  0.00     0.045 C 
BRANCH  17  19
HETATM   19  C   UNL     1      24.840  48.480  49.250  1.00  0.00    -0.028 A 
HETATM   20  C   UNL     1      25.036  49.614  48.442  1.00  0.00     0.009 A 
HETATM   21  C   UNL     1      26.316  50.130  48.236  1.00  0.00     0.001 A 
HETATM   22  C   UNL     1      27.418  49.521  48.829  1.00  0.00     0.000 A 
HETATM   23  C   UNL     1      27.243  48.396  49.629  1.00  0.00     0.001 A 
HETATM   24  C   UNL     1      25.964  47.874  49.836  1.00  0.00     0.009 A 
ENDBRANCH  17  19
ENDBRANCH  14  17
ENDBRANCH  13  14
ENDBRANCH  10  13
ENDBRANCH   2   9
BRANCH   1  25
HETATM   25  C   UNL     1      27.248  43.317  50.572  1.00  0.00     0.259 C 
HETATM   26  N   UNL     1      27.329  43.050  51.922  1.00  0.00    -0.323 N 
HETATM   27  H   UNL     1      27.007  42.144  52.227  1.00  0.00     0.169 HD
HETATM   28  O   UNL     1      27.510  44.392  50.035  1.00  0.00    -0.267 OA
BRANCH  26  29
HETATM   29  C   UNL     1      27.698  43.924  52.965  1.00  0.00     0.035 A 
HETATM   30  C   UNL     1      26.962  45.042  53.357  1.00  0.00     0.032 A 
HETATM   31  C   UNL     1      27.381  45.827  54.442  1.00  0.00     0.039 A 
HETATM   32  C   UNL     1      28.540  45.500  55.144  1.00  0.00     0.068 A 
HETATM   33  C   UNL     1      29.298  44.409  54.728  1.00  0.00     0.039 A 
HETATM   34  C   UNL     1      28.881  43.623  53.651  1.00  0.00     0.032 A 
BRANCH  32  35
HETATM   35  O   UNL     1      29.039  46.168  56.226  1.00  0.00    -0.352 OA
BRANCH  35  36
HETATM   36  C   UNL     1      30.320  45.756  56.699  1.00  0.00     0.171 C 
HETATM   37  C   UNL     1      30.318  45.870  58.212  1.00  0.00     0.034 C 
ENDBRANCH  35  36
ENDBRANCH  32  35
ENDBRANCH  26  29
ENDBRANCH   1  25
TORSDOF 9
ENDMDL
MODEL 5
REMARK VINA RESULT:      -8.2      5.334      9.674
REMARK  9 active torsions:
REMARK  status: ('A' for Active; 'I' for Inactive)
REMARK    1  A    between atoms: C_2  and  O_3 
REMARK    2  A    between atoms: O_3  and  C_4 
REMARK    3  A    between atoms: C_7  and  N_8 
REMARK       I    between atoms: N_8  and  C_9 
REMARK    4  A    between atoms: C_9  and  C_10 
REMARK    5  A    between atoms: C_11  and  N_12 
REMARK       I    between atoms: N_12  and  C_13 
REMARK    6  A    between atoms: C_13  and  C_14 
REMARK    7  A    between atoms: C_14  and  N_15 
REMARK    8  A    between atoms: N_15  and  C_18 
REMARK    9  A    between atoms: C_18  and  C_19 
ROOT
HETATM    1  C   UNL     1      24.234  46.983  49.816  1.00  0.00     0.073 A 
HETATM    2  C   UNL     1      23.823  45.759  49.270  1.00  0.00     0.093 A 
HETATM    3  S   UNL     1      22.526  45.907  48.166  1.00  0.00    -0.075 SA
HETATM    4  C   UNL     1      22.458  47.549  48.426  1.00  0.00    -0.008 A 
HETATM    5  C   UNL     1      23.382  48.018  49.319  1.00  0.00    -0.026 A 
HETATM    6  C   UNL     1      23.208  49.488  49.504  1.00  0.00     0.041 C 
HETATM    7  C   UNL     1      21.814  49.755  48.857  1.00  0.00     0.010 C 
HETATM    8  C   UNL     1      21.554  48.584  47.868  1.00  0.00     0.047 C 
ENDROOT
BRANCH   2   9
HETATM    9  N   UNL     1      24.367  44.518  49.578  1.00  0.00    -0.319 N 
HETATM   10  C   UNL     1      23.774  43.506  50.295  1.00  0.00     0.248 C 
HETATM   11  O   UNL     1      22.629  43.439  50.741  1.00  0.00    -0.271 OA
HETATM   12  H   UNL     1      25.300  44.386  49.178  1.00  0.00     0.169 HD
BRANCH  10  13
HETATM   13  C   UNL     1      24.684  42.303  50.540  1.00  0.00     0.335 C 
BRANCH  13  14
HETATM   14  N   UNL     1      25.773  42.699  51.504  1.00  0.00    -0.059 N 
HETATM   15  H   UNL     1      25.529  43.660  51.815  1.00  0.00     0.278 HD
HETATM   16  H   UNL     1      25.687  42.156  52.372  1.00  0.00     0.278 HD
BRANCH  14  17
HETATM   17  C   UNL     1      27.180  42.707  51.015  1.00  0.00     0.215 C 
HETATM   18  C   UNL     1      27.392  41.578  50.007  1.00  0.00     0.045 C 
BRANCH  17  19
HETATM   19  C   UNL     1      28.126  42.629  52.194  1.00  0.00    -0.028 A 
HETATM   20  C   UNL     1      27.757  42.006  53.399  1.00  0.00     0.009 A 
HETATM   21  C   UNL     1      28.634  41.979  54.485  1.00  0.00     0.001 A 
HETATM   22  C   UNL     1      29.888  42.574  54.384  1.00  0.00     0.000 A 
HETATM   23  C   UNL     1      30.268  43.198  53.200  1.00  0.00     0.001 A 
HETATM   24  C   UNL     1      29.393  43.230  52.112  1.00  0.00     0.009 A 
ENDBRANCH  17  19
ENDBRANCH  14  17
ENDBRANCH  13  14
ENDBRANCH  10  13
ENDBRANCH   2   9
BRANCH   1  25
HETATM   25  C   UNL     1      25.378  47.057  50.746  1.00  0.00     0.259 C 
HETATM   26  N   UNL     1      25.087  46.704  52.047  1.00  0.00    -0.323 N 
HETATM   27  H   UNL     1      24.131  46.458  52.249  1.00  0.00     0.169 HD
HETATM   28  O   UNL     1      26.463  47.468  50.338  1.00  0.00    -0.267 OA
BRANCH  26  29
HETATM   29  C   UNL     1      25.933  46.750  53.174  1.00  0.00     0.035 A 
HETATM   30  C   UNL     1      25.949  47.786  54.108  1.00  0.00     0.032 A 
HETATM   31  C   UNL     1      26.791  47.722  55.229  1.00  0.00     0.039 A 
HETATM   32  C   UNL     1      27.623  46.621  55.425  1.00  0.00     0.068 A 
HETATM   33  C   UNL     1      27.639  45.605  54.472  1.00  0.00     0.039 A 
HETATM   34  C   UNL     1      26.799  45.665  53.357  1.00  0.00     0.032 A 
BRANCH  32  35
HETATM   35  O   UNL     1      28.467  46.430  56.481  1.00  0.00    -0.352 OA
BRANCH  35  36
HETATM   36  C   UNL     1      29.765  45.920  56.182  1.00  0.00     0.171 C 
HETATM   37  C   UNL     1      30.389  45.439  57.479  1.00  0.00     0.034 C 
ENDBRANCH  35  36
ENDBRANCH  32  35
ENDBRANCH  26  29
ENDBRANCH   1  25
TORSDOF 9
ENDMDL
MODEL 6
REMARK VINA RESULT:      -8.1      5.762      9.825
REMARK  9 active torsions:
REMARK  status: ('A' for Active; 'I' for Inactive)
REMARK    1  A    between atoms: C_2  and  O_3 
REMARK    2  A    between atoms: O_3  and  C_4 
REMARK    3  A    between atoms: C_7  and  N_8 
REMARK       I    between atoms: N_8  and  C_9 
REMARK    4  A    between atoms: C_9  and  C_10 
REMARK    5  A    between atoms: C_11  and  N_12 
REMARK       I    between atoms: N_12  and  C_13 
REMARK    6  A    between atoms: C_13  and  C_14 
REMARK    7  A    between atoms: C_14  and  N_15 
REMARK    8  A    between atoms: N_15  and  C_18 
REMARK    9  A    between atoms: C_18  and  C_19 
ROOT
HETATM    1  C   UNL     1      25.090  42.255  49.915  1.00  0.00     0.073 A 
HETATM    2  C   UNL     1      26.055  41.961  50.889  1.00  0.00     0.093 A 
HETATM    3  S   UNL     1      27.024  40.607  50.501  1.00  0.00    -0.075 SA
HETATM    4  C   UNL     1      26.168  40.365  49.094  1.00  0.00    -0.008 A 
HETATM    5  C   UNL     1      25.163  41.270  48.882  1.00  0.00    -0.026 A 
HETATM    6  C   UNL     1      24.441  40.938  47.620  1.00  0.00     0.041 C 
HETATM    7  C   UNL     1      24.941  39.496  47.303  1.00  0.00     0.010 C 
HETATM    8  C   UNL     1      26.297  39.326  48.045  1.00  0.00     0.047 C 
ENDROOT
BRANCH   2   9
HETATM    9  N   UNL     1      26.234  42.656  52.079  1.00  0.00    -0.319 N 
HETATM   10  C   UNL     1      26.705  43.938  52.229  1.00  0.00     0.248 C 
HETATM   11  O   UNL     1      26.987  44.767  51.364  1.00  0.00    -0.271 OA
HETATM   12  H   UNL     1      25.938  42.118  52.898  1.00  0.00     0.169 HD
BRANCH  10  13
HETATM   13  C   UNL     1      26.872  44.373  53.684  1.00  0.00     0.335 C 
BRANCH  13  14
HETATM   14  N   UNL     1      27.937  43.523  54.330  1.00  0.00    -0.059 N 
HETATM   15  H   UNL     1      27.747  43.573  55.350  1.00  0.00     0.278 HD
HETATM   16  H   UNL     1      27.769  42.532  54.121  1.00  0.00     0.278 HD
BRANCH  14  17
HETATM   17  C   UNL     1      29.363  43.884  54.100  1.00  0.00     0.215 C 
HETATM   18  C   UNL     1      30.053  42.800  53.272  1.00  0.00     0.045 C 
BRANCH  17  19
HETATM   19  C   UNL     1      30.044  44.130  55.430  1.00  0.00    -0.028 A 
HETATM   20  C   UNL     1      30.973  43.221  55.965  1.00  0.00     0.009 A 
HETATM   21  C   UNL     1      31.560  43.453  57.210  1.00  0.00     0.001 A 
HETATM   22  C   UNL     1      31.226  44.592  57.939  1.00  0.00     0.000 A 
HETATM   23  C   UNL     1      30.306  45.500  57.425  1.00  0.00     0.001 A 
HETATM   24  C   UNL     1      29.714  45.272  56.181  1.00  0.00     0.009 A 
ENDBRANCH  17  19
ENDBRANCH  14  17
ENDBRANCH  13  14
ENDBRANCH  10  13
ENDBRANCH   2   9
BRANCH   1  25
HETATM   25  C   UNL     1      24.199  43.424  50.053  1.00  0.00     0.259 C 
HETATM   26  N   UNL     1      24.530  44.499  49.255  1.00  0.00    -0.323 N 
HETATM   27  H   UNL     1      25.353  44.402  48.680  1.00  0.00     0.169 HD
HETATM   28  O   UNL     1      23.287  43.396  50.879  1.00  0.00    -0.267 OA
BRANCH  26  29
HETATM   29  C   UNL     1      23.933  45.775  49.217  1.00  0.00     0.035 A 
HETATM   30  C   UNL     1      24.427  46.899  49.880  1.00  0.00     0.032 A 
HETATM   31  C   UNL     1      23.793  48.144  49.742  1.00  0.00     0.039 A 
HETATM   32  C   UNL     1      22.660  48.274  48.942  1.00  0.00     0.068 A 
HETATM   33  C   UNL     1      22.141  47.145  48.313  1.00  0.00     0.039 A 
HETATM   34  C   UNL     1      22.773  45.906  48.444  1.00  0.00     0.032 A 
BRANCH  32  35
HETATM   35  O   UNL     1      21.969  49.429  48.710  1.00  0.00    -0.352 OA
BRANCH  35  36
HETATM   36  C   UNL     1      22.151  50.485  49.651  1.00  0.00     0.171 C 
HETATM   37  C   UNL     1      20.779  51.004  50.040  1.00  0.00     0.034 C 
ENDBRANCH  35  36
ENDBRANCH  32  35
ENDBRANCH  26  29
ENDBRANCH   1  25
TORSDOF 9
ENDMDL
MODEL 7
REMARK VINA RESULT:      -8.0      5.345      9.273
REMARK  9 active torsions:
REMARK  status: ('A' for Active; 'I' for Inactive)
REMARK    1  A    between atoms: C_2  and  O_3 
REMARK    2  A    between atoms: O_3  and  C_4 
REMARK    3  A    between atoms: C_7  and  N_8 
REMARK       I    between atoms: N_8  and  C_9 
REMARK    4  A    between atoms: C_9  and  C_10 
REMARK    5  A    between atoms: C_11  and  N_12 
REMARK       I    between atoms: N_12  and  C_13 
REMARK    6  A    between atoms: C_13  and  C_14 
REMARK    7  A    between atoms: C_14  and  N_15 
REMARK    8  A    between atoms: N_15  and  C_18 
REMARK    9  A    between atoms: C_18  and  C_19 
ROOT
HETATM    1  C   UNL     1      26.803  45.262  52.530  1.00  0.00     0.073 A 
HETATM    2  C   UNL     1      25.846  46.282  52.446  1.00  0.00     0.093 A 
HETATM    3  S   UNL     1      25.915  47.391  53.746  1.00  0.00    -0.075 SA
HETATM    4  C   UNL     1      27.153  46.528  54.449  1.00  0.00    -0.008 A 
HETATM    5  C   UNL     1      27.539  45.419  53.745  1.00  0.00    -0.026 A 
HETATM    6  C   UNL     1      28.622  44.704  54.481  1.00  0.00     0.041 C 
HETATM    7  C   UNL     1      28.571  45.360  55.894  1.00  0.00     0.010 C 
HETATM    8  C   UNL     1      27.893  46.747  55.714  1.00  0.00     0.047 C 
ENDROOT
BRANCH   2   9
HETATM    9  N   UNL     1      24.896  46.413  51.438  1.00  0.00    -0.319 N 
HETATM   10  C   UNL     1      24.878  47.348  50.432  1.00  0.00     0.248 C 
HETATM   11  O   UNL     1      25.717  48.204  50.152  1.00  0.00    -0.271 OA
HETATM   12  H   UNL     1      24.173  45.690  51.482  1.00  0.00     0.169 HD
BRANCH  10  13
HETATM   13  C   UNL     1      23.639  47.277  49.541  1.00  0.00     0.335 C 
BRANCH  13  14
HETATM   14  N   UNL     1      22.824  48.532  49.733  1.00  0.00    -0.059 N 
HETATM   15  H   UNL     1      22.006  48.244  50.303  1.00  0.00     0.278 HD
HETATM   16  H   UNL     1      23.317  49.177  50.362  1.00  0.00     0.278 HD
BRANCH  14  17
HETATM   17  C   UNL     1      22.326  49.242  48.522  1.00  0.00     0.215 C 
HETATM   18  C   UNL     1      23.441  50.097  47.919  1.00  0.00     0.045 C 
BRANCH  17  19
HETATM   19  C   UNL     1      21.095  50.048  48.879  1.00  0.00    -0.028 A 
HETATM   20  C   UNL     1      20.846  51.310  48.311  1.00  0.00     0.009 A 
HETATM   21  C   UNL     1      19.722  52.049  48.683  1.00  0.00     0.001 A 
HETATM   22  C   UNL     1      18.834  51.542  49.628  1.00  0.00     0.000 A 
HETATM   23  C   UNL     1      19.067  50.295  50.202  1.00  0.00     0.001 A 
HETATM   24  C   UNL     1      20.191  49.553  49.835  1.00  0.00     0.009 A 
ENDBRANCH  17  19
ENDBRANCH  14  17
ENDBRANCH  13  14
ENDBRANCH  10  13
ENDBRANCH   2   9
BRANCH   1  25
HETATM   25  C   UNL     1      26.929  44.245  51.467  1.00  0.00     0.259 C 
HETATM   26  N   UNL     1      26.887  42.940  51.909  1.00  0.00    -0.323 N 
HETATM   27  H   UNL     1      26.804  42.799  52.904  1.00  0.00     0.169 HD
HETATM   28  O   UNL     1      27.115  44.605  50.305  1.00  0.00    -0.267 OA
BRANCH  26  29
HETATM   29  C   UNL     1      27.062  41.758  51.160  1.00  0.00     0.035 A 
HETATM   30  C   UNL     1      28.246  41.022  51.110  1.00  0.00     0.032 A 
HETATM   31  C   UNL     1      28.313  39.827  50.377  1.00  0.00     0.039 A 
HETATM   32  C   UNL     1      27.195  39.359  49.689  1.00  0.00     0.068 A 
HETATM   33  C   UNL     1      26.024  40.113  49.704  1.00  0.00     0.039 A 
HETATM   34  C   UNL     1      25.955  41.301  50.436  1.00  0.00     0.032 A 
BRANCH  32  35
HETATM   35  O   UNL     1      27.125  38.205  48.961  1.00  0.00    -0.352 OA
BRANCH  35  36
HETATM   36  C   UNL     1      28.316  37.795  48.291  1.00  0.00     0.171 C 
HETATM   37  C   UNL     1      28.274  38.355  46.881  1.00  0.00     0.034 C 
ENDBRANCH  35  36
ENDBRANCH  32  35
ENDBRANCH  26  29
ENDBRANCH   1  25
TORSDOF 9
ENDMDL
MODEL 8
REMARK VINA RESULT:      -7.8      5.079      9.012
REMARK  9 active torsions:
REMARK  status: ('A' for Active; 'I' for Inactive)
REMARK    1  A    between atoms: C_2  and  O_3 
REMARK    2  A    between atoms: O_3  and  C_4 
REMARK    3  A    between atoms: C_7  and  N_8 
REMARK       I    between atoms: N_8  and  C_9 
REMARK    4  A    between atoms: C_9  and  C_10 
REMARK    5  A    between atoms: C_11  and  N_12 
REMARK       I    between atoms: N_12  and  C_13 
REMARK    6  A    between atoms: C_13  and  C_14 
REMARK    7  A    between atoms: C_14  and  N_15 
REMARK    8  A    between atoms: N_15  and  C_18 
REMARK    9  A    between atoms: C_18  and  C_19 
ROOT
HETATM    1  C   UNL     1      24.978  43.322  50.349  1.00  0.00     0.073 A 
HETATM    2  C   UNL     1      24.244  44.160  49.497  1.00  0.00     0.093 A 
HETATM    3  S   UNL     1      23.723  43.388  48.064  1.00  0.00    -0.075 SA
HETATM    4  C   UNL     1      24.485  41.979  48.515  1.00  0.00    -0.008 A 
HETATM    5  C   UNL     1      25.129  42.047  49.721  1.00  0.00    -0.026 A 
HETATM    6  C   UNL     1      25.806  40.749  50.008  1.00  0.00     0.041 C 
HETATM    7  C   UNL     1      25.761  40.023  48.629  1.00  0.00     0.010 C 
HETATM    8  C   UNL     1      24.599  40.672  47.825  1.00  0.00     0.047 C 
ENDROOT
BRANCH   2   9
HETATM    9  N   UNL     1      23.960  45.500  49.737  1.00  0.00    -0.319 N 
HETATM   10  C   UNL     1      24.835  46.558  49.676  1.00  0.00     0.248 C 
HETATM   11  O   UNL     1      26.014  46.570  49.322  1.00  0.00    -0.271 OA
HETATM   12  H   UNL     1      22.972  45.662  49.948  1.00  0.00     0.169 HD
BRANCH  10  13
HETATM   13  C   UNL     1      24.223  47.895  50.091  1.00  0.00     0.335 C 
BRANCH  13  14
HETATM   14  N   UNL     1      22.792  47.947  49.619  1.00  0.00    -0.059 N 
HETATM   15  H   UNL     1      22.557  46.972  49.347  1.00  0.00     0.278 HD
HETATM   16  H   UNL     1      22.166  48.111  50.417  1.00  0.00     0.278 HD
BRANCH  14  17
HETATM   17  C   UNL     1      22.456  48.847  48.482  1.00  0.00     0.215 C 
HETATM   18  C   UNL     1      23.675  49.683  48.096  1.00  0.00     0.045 C 
BRANCH  17  19
HETATM   19  C   UNL     1      21.254  49.693  48.843  1.00  0.00    -0.028 A 
HETATM   20  C   UNL     1      20.146  49.153  49.520  1.00  0.00     0.009 A 
HETATM   21  C   UNL     1      19.033  49.945  49.810  1.00  0.00     0.001 A 
HETATM   22  C   UNL     1      19.009  51.283  49.427  1.00  0.00     0.000 A 
HETATM   23  C   UNL     1      20.096  51.832  48.754  1.00  0.00     0.001 A 
HETATM   24  C   UNL     1      21.210  51.044  48.459  1.00  0.00     0.009 A 
ENDBRANCH  17  19
ENDBRANCH  14  17
ENDBRANCH  13  14
ENDBRANCH  10  13
ENDBRANCH   2   9
BRANCH   1  25
HETATM   25  C   UNL     1      25.462  43.801  51.658  1.00  0.00     0.259 C 
HETATM   26  N   UNL     1      26.832  43.908  51.763  1.00  0.00    -0.323 N 
HETATM   27  H   UNL     1      27.373  43.628  50.959  1.00  0.00     0.169 HD
HETATM   28  O   UNL     1      24.653  44.012  52.562  1.00  0.00    -0.267 OA
BRANCH  26  29
HETATM   29  C   UNL     1      27.597  44.252  52.896  1.00  0.00     0.035 A 
HETATM   30  C   UNL     1      27.408  45.405  53.658  1.00  0.00     0.032 A 
HETATM   31  C   UNL     1      28.186  45.640  54.802  1.00  0.00     0.039 A 
HETATM   32  C   UNL     1      29.159  44.722  55.193  1.00  0.00     0.068 A 
HETATM   33  C   UNL     1      29.378  43.591  54.411  1.00  0.00     0.039 A 
HETATM   34  C   UNL     1      28.602  43.353  53.274  1.00  0.00     0.032 A 
BRANCH  32  35
HETATM   35  O   UNL     1      29.962  44.824  56.294  1.00  0.00    -0.352 OA
BRANCH  35  36
HETATM   36  C   UNL     1      31.303  44.358  56.155  1.00  0.00     0.171 C 
HETATM   37  C   UNL     1      31.620  43.482  57.354  1.00  0.00     0.034 C 
ENDBRANCH  35  36
ENDBRANCH  32  35
ENDBRANCH  26  29
ENDBRANCH   1  25
TORSDOF 9
ENDMDL
MODEL 9
REMARK VINA RESULT:      -7.6      1.755      2.270
REMARK  9 active torsions:
REMARK  status: ('A' for Active; 'I' for Inactive)
REMARK    1  A    between atoms: C_2  and  O_3 
REMARK    2  A    between atoms: O_3  and  C_4 
REMARK    3  A    between atoms: C_7  and  N_8 
REMARK       I    between atoms: N_8  and  C_9 
REMARK    4  A    between atoms: C_9  and  C_10 
REMARK    5  A    between atoms: C_11  and  N_12 
REMARK       I    between atoms: N_12  and  C_13 
REMARK    6  A    between atoms: C_13  and  C_14 
REMARK    7  A    between atoms: C_14  and  N_15 
REMARK    8  A    between atoms: N_15  and  C_18 
REMARK    9  A    between atoms: C_18  and  C_19 
ROOT
HETATM    1  C   UNL     1      22.763  47.036  48.756  1.00  0.00     0.073 A 
HETATM    2  C   UNL     1      22.234  45.881  48.162  1.00  0.00     0.093 A 
HETATM    3  S   UNL     1      23.054  44.449  48.610  1.00  0.00    -0.075 SA
HETATM    4  C   UNL     1      24.126  45.321  49.537  1.00  0.00    -0.008 A 
HETATM    5  C   UNL     1      23.903  46.672  49.538  1.00  0.00    -0.026 A 
HETATM    6  C   UNL     1      24.939  47.356  50.365  1.00  0.00     0.041 C 
HETATM    7  C   UNL     1      26.015  46.244  50.560  1.00  0.00     0.010 C 
HETATM    8  C   UNL     1      25.291  44.886  50.343  1.00  0.00     0.047 C 
ENDROOT
BRANCH   2   9
HETATM    9  N   UNL     1      21.166  45.851  47.273  1.00  0.00    -0.319 N 
HETATM   10  C   UNL     1      19.947  45.246  47.462  1.00  0.00     0.248 C 
HETATM   11  O   UNL     1      19.506  44.683  48.463  1.00  0.00    -0.271 OA
HETATM   12  H   UNL     1      21.352  46.378  46.416  1.00  0.00     0.169 HD
BRANCH  10  13
HETATM   13  C   UNL     1      19.024  45.317  46.246  1.00  0.00     0.335 C 
BRANCH  13  14
HETATM   14  N   UNL     1      17.803  46.127  46.604  1.00  0.00    -0.059 N 
HETATM   15  H   UNL     1      17.506  46.582  45.719  1.00  0.00     0.278 HD
HETATM   16  H   UNL     1      17.014  45.501  46.807  1.00  0.00     0.278 HD
BRANCH  14  17
HETATM   17  C   UNL     1      17.935  47.177  47.651  1.00  0.00     0.215 C 
HETATM   18  C   UNL     1      16.886  46.965  48.743  1.00  0.00     0.045 C 
BRANCH  17  19
HETATM   19  C   UNL     1      17.848  48.545  47.010  1.00  0.00    -0.028 A 
HETATM   20  C   UNL     1      16.724  49.373  47.180  1.00  0.00     0.009 A 
HETATM   21  C   UNL     1      16.652  50.616  46.549  1.00  0.00     0.001 A 
HETATM   22  C   UNL     1      17.697  51.048  45.737  1.00  0.00     0.000 A 
HETATM   23  C   UNL     1      18.815  50.240  45.554  1.00  0.00     0.001 A 
HETATM   24  C   UNL     1      18.891  48.995  46.182  1.00  0.00     0.009 A 
ENDBRANCH  17  19
ENDBRANCH  14  17
ENDBRANCH  13  14
ENDBRANCH  10  13
ENDBRANCH   2   9
BRANCH   1  25
HETATM   25  C   UNL     1      22.148  48.359  48.530  1.00  0.00     0.259 C 
HETATM   26  N   UNL     1      21.151  48.692  49.421  1.00  0.00    -0.323 N 
HETATM   27  H   UNL     1      20.914  48.003  50.118  1.00  0.00     0.169 HD
HETATM   28  O   UNL     1      22.506  49.035  47.566  1.00  0.00    -0.267 OA
BRANCH  26  29
HETATM   29  C   UNL     1      20.325  49.835  49.421  1.00  0.00     0.035 A 
HETATM   30  C   UNL     1      20.591  51.003  48.706  1.00  0.00     0.032 A 
HETATM   31  C   UNL     1      19.683  52.073  48.725  1.00  0.00     0.039 A 
HETATM   32  C   UNL     1      18.502  51.983  49.458  1.00  0.00     0.068 A 
HETATM   33  C   UNL     1      18.254  50.835  50.206  1.00  0.00     0.039 A 
HETATM   34  C   UNL     1      19.154  49.766  50.185  1.00  0.00     0.032 A 
BRANCH  32  35
HETATM   35  O   UNL     1      17.532  52.941  49.539  1.00  0.00    -0.352 OA
BRANCH  35  36
HETATM   36  C   UNL     1      16.226  52.502  49.909  1.00  0.00     0.171 C 
HETATM   37  C   UNL     1      15.238  53.087  48.915  1.00  0.00     0.034 C 
ENDBRANCH  35  36
ENDBRANCH  32  35
ENDBRANCH  26  29
ENDBRANCH   1  25
TORSDOF 9
ENDMDL
MODEL 10
REMARK VINA RESULT:      -7.2     12.789     16.557
REMARK  9 active torsions:
REMARK  status: ('A' for Active; 'I' for Inactive)
REMARK    1  A    between atoms: C_2  and  O_3 
REMARK    2  A    between atoms: O_3  and  C_4 
REMARK    3  A    between atoms: C_7  and  N_8 
REMARK       I    between atoms: N_8  and  C_9 
REMARK    4  A    between atoms: C_9  and  C_10 
REMARK    5  A    between atoms: C_11  and  N_12 
REMARK       I    between atoms: N_12  and  C_13 
REMARK    6  A    between atoms: C_13  and  C_14 
REMARK    7  A    between atoms: C_14  and  N_15 
REMARK    8  A    between atoms: N_15  and  C_18 
REMARK    9  A    between atoms: C_18  and  C_19 
ROOT
HETATM    1  C   UNL     1      37.401  53.241  43.497  1.00  0.00     0.073 A 
HETATM    2  C   UNL     1      37.783  54.173  42.522  1.00  0.00     0.093 A 
HETATM    3  S   UNL     1      38.794  55.414  43.123  1.00  0.00    -0.075 SA
HETATM    4  C   UNL     1      38.702  54.779  44.659  1.00  0.00    -0.008 A 
HETATM    5  C   UNL     1      37.937  53.649  44.759  1.00  0.00    -0.026 A 
HETATM    6  C   UNL     1      37.893  53.190  46.177  1.00  0.00     0.041 C 
HETATM    7  C   UNL     1      38.455  54.418  46.956  1.00  0.00     0.010 C 
HETATM    8  C   UNL     1      39.293  55.241  45.938  1.00  0.00     0.047 C 
ENDROOT
BRANCH   2   9
HETATM    9  N   UNL     1      37.390  54.148  41.189  1.00  0.00    -0.319 N 
HETATM   10  C   UNL     1      36.677  55.111  40.516  1.00  0.00     0.248 C 
HETATM   11  O   UNL     1      36.309  56.219  40.905  1.00  0.00    -0.271 OA
HETATM   12  H   UNL     1      37.719  53.313  40.696  1.00  0.00     0.169 HD
BRANCH  10  13
HETATM   13  C   UNL     1      36.323  54.731  39.078  1.00  0.00     0.335 C 
BRANCH  13  14
HETATM   14  N   UNL     1      34.924  54.169  39.050  1.00  0.00    -0.059 N 
HETATM   15  H   UNL     1      34.344  54.850  39.577  1.00  0.00     0.278 HD
HETATM   16  H   UNL     1      34.539  54.236  38.100  1.00  0.00     0.278 HD
BRANCH  14  17
HETATM   17  C   UNL     1      34.696  52.814  39.624  1.00  0.00     0.215 C 
HETATM   18  C   UNL     1      35.680  51.814  39.019  1.00  0.00     0.045 C 
BRANCH  17  19
HETATM   19  C   UNL     1      33.250  52.415  39.420  1.00  0.00    -0.028 A 
HETATM   20  C   UNL     1      32.216  52.947  40.210  1.00  0.00     0.009 A 
HETATM   21  C   UNL     1      30.895  52.535  40.026  1.00  0.00     0.001 A 
HETATM   22  C   UNL     1      30.588  51.586  39.055  1.00  0.00     0.000 A 
HETATM   23  C   UNL     1      31.600  51.047  38.267  1.00  0.00     0.001 A 
HETATM   24  C   UNL     1      32.923  51.453  38.448  1.00  0.00     0.009 A 
ENDBRANCH  17  19
ENDBRANCH  14  17
ENDBRANCH  13  14
ENDBRANCH  10  13
ENDBRANCH   2   9
BRANCH   1  25
HETATM   25  C   UNL     1      36.575  52.069  43.150  1.00  0.00     0.259 C 
HETATM   26  N   UNL     1      35.217  52.308  43.121  1.00  0.00    -0.323 N 
HETATM   27  H   UNL     1      34.914  53.238  43.364  1.00  0.00     0.169 HD
HETATM   28  O   UNL     1      37.116  50.978  42.971  1.00  0.00    -0.267 OA
BRANCH  26  29
HETATM   29  C   UNL     1      34.172  51.386  42.908  1.00  0.00     0.035 A 
HETATM   30  C   UNL     1      34.240  50.302  42.032  1.00  0.00     0.032 A 
HETATM   31  C   UNL     1      33.167  49.405  41.923  1.00  0.00     0.039 A 
HETATM   32  C   UNL     1      32.017  49.584  42.690  1.00  0.00     0.068 A 
HETATM   33  C   UNL     1      31.930  50.688  43.534  1.00  0.00     0.039 A 
HETATM   34  C   UNL     1      32.999  51.580  43.648  1.00  0.00     0.032 A 
BRANCH  32  35
HETATM   35  O   UNL     1      30.919  48.772  42.692  1.00  0.00    -0.352 OA
BRANCH  35  36
HETATM   36  C   UNL     1      29.849  49.137  41.821  1.00  0.00     0.171 C 
HETATM   37  C   UNL     1      29.908  48.231  40.604  1.00  0.00     0.034 C 
ENDBRANCH  35  36
ENDBRANCH  32  35
ENDBRANCH  26  29
ENDBRANCH   1  25
TORSDOF 9
ENDMDL
