MODEL 1
REMARK VINA RESULT:      -8.8      0.000      0.000
REMARK  6 active torsions:
REMARK  status: ('A' for Active; 'I' for Inactive)
REMARK    1  A    between atoms: C_4  and  C_5 
REMARK    2  A    between atoms: C_5  and  C_6 
REMARK    3  A    between atoms: C_6  and  C_7 
REMARK    4  A    between atoms: C_7  and  C_8 
REMARK       I    between atoms: C_8  and  N_9 
REMARK    5  A    between atoms: N_9  and  C_10 
REMARK    6  A    between atoms: C_12  and  C_13 
ROOT
HETATM    1  C   UNL     1      25.584  44.663  52.728  1.00  0.00     0.222 C 
HETATM    2  N   UNL     1      26.346  43.629  53.181  1.00  0.00    -0.327 N 
HETATM    3  O   UNL     1      24.387  44.431  52.529  1.00  0.00    -0.273 OA
HETATM    4  H   UNL     1      25.759  42.811  53.307  1.00  0.00     0.169 HD
ENDROOT
BRANCH   2   5
HETATM    5  C   UNL     1      27.707  43.451  53.496  1.00  0.00     0.035 A 
HETATM    6  C   UNL     1      28.340  43.859  54.671  1.00  0.00     0.042 A 
HETATM    7  C   UNL     1      29.715  43.629  54.881  1.00  0.00    -0.021 A 
HETATM    8  C   UNL     1      30.458  42.990  53.884  1.00  0.00     0.012 A 
HETATM    9  C   UNL     1      29.842  42.582  52.703  1.00  0.00     0.003 A 
HETATM   10  C   UNL     1      28.480  42.813  52.514  1.00  0.00     0.029 A 
BRANCH   7  11
HETATM   11  C   UNL     1      30.368  44.062  56.107  1.00  0.00     0.010 A 
HETATM   12  C   UNL     1      31.368  43.437  56.891  1.00  0.00     0.152 A 
HETATM   13  N   UNL     1      31.702  44.151  57.969  1.00  0.00    -0.187 NA
HETATM   14  N   UNL     1      30.915  45.234  57.884  1.00  0.00    -0.289 N 
HETATM   15  H   UNL     1      30.985  45.938  58.613  1.00  0.00     0.188 HD
HETATM   16  C   UNL     1      30.097  45.229  56.791  1.00  0.00     0.123 A 
ENDBRANCH   7  11
ENDBRANCH   2   5
BRANCH   1  17
HETATM   17  C   UNL     1      26.170  46.037  52.487  1.00  0.00     0.103 C 
BRANCH  17  18
HETATM   18  C   UNL     1      25.433  46.840  51.412  1.00  0.00     0.014 C 
BRANCH  18  19
HETATM   19  C   UNL     1      26.350  47.268  50.261  1.00  0.00     0.046 C 
BRANCH  19  20
HETATM   20  C   UNL     1      25.700  48.322  49.412  1.00  0.00    -0.017 A 
HETATM   21  S   UNL     1      23.998  48.369  49.237  1.00  0.00    -0.100 SA
HETATM   22  C   UNL     1      24.070  49.737  48.212  1.00  0.00    -0.021 A 
HETATM   23  C   UNL     1      22.815  50.328  47.669  1.00  0.00     0.056 C 
HETATM   24  C   UNL     1      25.369  50.152  48.011  1.00  0.00     0.015 A 
HETATM   25  C   UNL     1      26.310  49.336  48.701  1.00  0.00     0.015 A 
ENDBRANCH  19  20
ENDBRANCH  18  19
ENDBRANCH  17  18
ENDBRANCH   1  17
TORSDOF 6
ENDMDL
MODEL 2
REMARK VINA RESULT:      -8.6      2.176      3.793
REMARK  6 active torsions:
REMARK  status: ('A' for Active; 'I' for Inactive)
REMARK    1  A    between atoms: C_4  and  C_5 
REMARK    2  A    between atoms: C_5  and  C_6 
REMARK    3  A    between atoms: C_6  and  C_7 
REMARK    4  A    between atoms: C_7  and  C_8 
REMARK       I    between atoms: C_8  and  N_9 
REMARK    5  A    between atoms: N_9  and  C_10 
REMARK    6  A    between atoms: C_12  and  C_13 
ROOT
HETATM    1  C   UNL     1      26.757  47.425  54.990  1.00  0.00     0.222 C 
HETATM    2  N   UNL     1      27.463  46.478  55.669  1.00  0.00    -0.327 N 
HETATM    3  O   UNL     1      26.072  48.202  55.663  1.00  0.00    -0.273 OA
HETATM    4  H   UNL     1      27.315  46.601  56.666  1.00  0.00     0.169 HD
ENDROOT
BRANCH   2   5
HETATM    5  C   UNL     1      28.313  45.414  55.311  1.00  0.00     0.035 A 
HETATM    6  C   UNL     1      28.034  44.419  54.372  1.00  0.00     0.042 A 
HETATM    7  C   UNL     1      28.962  43.395  54.092  1.00  0.00    -0.021 A 
HETATM    8  C   UNL     1      30.180  43.374  54.778  1.00  0.00     0.012 A 
HETATM    9  C   UNL     1      30.470  44.356  55.723  1.00  0.00     0.003 A 
HETATM   10  C   UNL     1      29.542  45.364  55.984  1.00  0.00     0.029 A 
BRANCH   7  11
HETATM   11  C   UNL     1      28.662  42.359  53.116  1.00  0.00     0.010 A 
HETATM   12  C   UNL     1      28.271  42.454  51.758  1.00  0.00     0.152 A 
HETATM   13  N   UNL     1      28.069  41.261  51.193  1.00  0.00    -0.187 NA
HETATM   14  N   UNL     1      28.325  40.396  52.185  1.00  0.00    -0.289 N 
HETATM   15  H   UNL     1      28.232  39.403  51.994  1.00  0.00     0.188 HD
HETATM   16  C   UNL     1      28.681  41.001  53.357  1.00  0.00     0.123 A 
ENDBRANCH   7  11
ENDBRANCH   2   5
BRANCH   1  17
HETATM   17  C   UNL     1      26.814  47.530  53.482  1.00  0.00     0.103 C 
BRANCH  17  18
HETATM   18  C   UNL     1      25.641  46.846  52.774  1.00  0.00     0.014 C 
BRANCH  18  19
HETATM   19  C   UNL     1      25.998  46.371  51.361  1.00  0.00     0.046 C 
BRANCH  19  20
HETATM   20  C   UNL     1      25.853  47.483  50.363  1.00  0.00    -0.017 A 
HETATM   21  S   UNL     1      24.305  47.958  49.810  1.00  0.00    -0.100 SA
HETATM   22  C   UNL     1      24.960  49.168  48.793  1.00  0.00    -0.021 A 
HETATM   23  C   UNL     1      24.057  50.019  47.969  1.00  0.00     0.056 C 
HETATM   24  C   UNL     1      26.336  49.211  48.879  1.00  0.00     0.015 A 
HETATM   25  C   UNL     1      26.851  48.239  49.781  1.00  0.00     0.015 A 
ENDBRANCH  19  20
ENDBRANCH  18  19
ENDBRANCH  17  18
ENDBRANCH   1  17
TORSDOF 6
ENDMDL
MODEL 3
REMARK VINA RESULT:      -8.5      3.118      4.962
REMARK  6 active torsions:
REMARK  status: ('A' for Active; 'I' for Inactive)
REMARK    1  A    between atoms: C_4  and  C_5 
REMARK    2  A    between atoms: C_5  and  C_6 
REMARK    3  A    between atoms: C_6  and  C_7 
REMARK    4  A    between atoms: C_7  and  C_8 
REMARK       I    between atoms: C_8  and  N_9 
REMARK    5  A    between atoms: N_9  and  C_10 
REMARK    6  A    between atoms: C_12  and  C_13 
ROOT
HETATM    1  C   UNL     1      26.944  47.604  55.248  1.00  0.00     0.222 C 
HETATM    2  N   UNL     1      27.705  46.727  55.960  1.00  0.00    -0.327 N 
HETATM    3  O   UNL     1      26.293  48.432  55.893  1.00  0.00    -0.273 OA
HETATM    4  H   UNL     1      27.620  46.937  56.949  1.00  0.00     0.169 HD
ENDROOT
BRANCH   2   5
HETATM    5  C   UNL     1      28.545  45.642  55.642  1.00  0.00     0.035 A 
HETATM    6  C   UNL     1      28.210  44.551  54.839  1.00  0.00     0.042 A 
HETATM    7  C   UNL     1      29.133  43.516  54.587  1.00  0.00    -0.021 A 
HETATM    8  C   UNL     1      30.404  43.582  55.165  1.00  0.00     0.012 A 
HETATM    9  C   UNL     1      30.751  44.661  55.973  1.00  0.00     0.003 A 
HETATM   10  C   UNL     1      29.827  45.680  56.208  1.00  0.00     0.029 A 
BRANCH   7  11
HETATM   11  C   UNL     1      28.775  42.379  53.753  1.00  0.00     0.010 A 
HETATM   12  C   UNL     1      29.408  41.836  52.608  1.00  0.00     0.152 A 
HETATM   13  N   UNL     1      28.756  40.786  52.104  1.00  0.00    -0.187 NA
HETATM   14  N   UNL     1      27.699  40.652  52.919  1.00  0.00    -0.289 N 
HETATM   15  H   UNL     1      27.038  39.905  52.731  1.00  0.00     0.188 HD
HETATM   16  C   UNL     1      27.662  41.581  53.920  1.00  0.00     0.123 A 
ENDBRANCH   7  11
ENDBRANCH   2   5
BRANCH   1  17
HETATM   17  C   UNL     1      26.901  47.575  53.736  1.00  0.00     0.103 C 
BRANCH  17  18
HETATM   18  C   UNL     1      25.549  47.137  53.167  1.00  0.00     0.014 C 
BRANCH  18  19
HETATM   19  C   UNL     1      25.587  46.924  51.649  1.00  0.00     0.046 C 
BRANCH  19  20
HETATM   20  C   UNL     1      25.759  45.471  51.310  1.00  0.00    -0.017 A 
HETATM   21  S   UNL     1      26.699  45.000  49.960  1.00  0.00    -0.100 SA
HETATM   22  C   UNL     1      26.412  43.339  50.250  1.00  0.00    -0.021 A 
HETATM   23  C   UNL     1      27.010  42.311  49.353  1.00  0.00     0.056 C 
HETATM   24  C   UNL     1      25.617  43.148  51.361  1.00  0.00     0.015 A 
HETATM   25  C   UNL     1      25.238  44.377  51.970  1.00  0.00     0.015 A 
ENDBRANCH  19  20
ENDBRANCH  18  19
ENDBRANCH  17  18
ENDBRANCH   1  17
TORSDOF 6
ENDMDL
MODEL 4
REMARK VINA RESULT:      -8.4      3.829      9.433
REMARK  6 active torsions:
REMARK  status: ('A' for Active; 'I' for Inactive)
REMARK    1  A    between atoms: C_4  and  C_5 
REMARK    2  A    between atoms: C_5  and  C_6 
REMARK    3  A    between atoms: C_6  and  C_7 
REMARK    4  A    between atoms: C_7  and  C_8 
REMARK       I    between atoms: C_8  and  N_9 
REMARK    5  A    between atoms: N_9  and  C_10 
REMARK    6  A    between atoms: C_12  and  C_13 
ROOT
HETATM    1  C   UNL     1      26.380  45.752  51.868  1.00  0.00     0.222 C 
HETATM    2  N   UNL     1      26.296  46.142  50.565  1.00  0.00    -0.327 N 
HETATM    3  O   UNL     1      26.566  44.550  52.083  1.00  0.00    -0.273 OA
HETATM    4  H   UNL     1      26.437  45.335  49.966  1.00  0.00     0.169 HD
ENDROOT
BRANCH   2   5
HETATM    5  C   UNL     1      26.067  47.360  49.897  1.00  0.00     0.035 A 
HETATM    6  C   UNL     1      24.821  47.907  49.588  1.00  0.00     0.042 A 
HETATM    7  C   UNL     1      24.708  49.138  48.911  1.00  0.00    -0.021 A 
HETATM    8  C   UNL     1      25.872  49.816  48.535  1.00  0.00     0.012 A 
HETATM    9  C   UNL     1      27.123  49.280  48.830  1.00  0.00     0.003 A 
HETATM   10  C   UNL     1      27.216  48.063  49.505  1.00  0.00     0.029 A 
BRANCH   7  11
HETATM   11  C   UNL     1      23.406  49.699  48.589  1.00  0.00     0.010 A 
HETATM   12  C   UNL     1      22.281  49.120  47.953  1.00  0.00     0.152 A 
HETATM   13  N   UNL     1      21.264  49.974  47.820  1.00  0.00    -0.187 NA
HETATM   14  N   UNL     1      21.731  51.107  48.366  1.00  0.00    -0.289 N 
HETATM   15  H   UNL     1      21.125  51.921  48.378  1.00  0.00     0.188 HD
HETATM   16  C   UNL     1      23.008  50.997  48.838  1.00  0.00     0.123 A 
ENDBRANCH   7  11
ENDBRANCH   2   5
BRANCH   1  17
HETATM   17  C   UNL     1      26.258  46.744  53.004  1.00  0.00     0.103 C 
BRANCH  17  18
HETATM   18  C   UNL     1      26.629  46.164  54.371  1.00  0.00     0.014 C 
BRANCH  18  19
HETATM   19  C   UNL     1      27.975  46.683  54.889  1.00  0.00     0.046 C 
BRANCH  19  20
HETATM   20  C   UNL     1      28.924  45.552  55.162  1.00  0.00    -0.017 A 
HETATM   21  S   UNL     1      30.005  45.626  56.488  1.00  0.00    -0.100 SA
HETATM   22  C   UNL     1      30.668  44.092  56.124  1.00  0.00    -0.021 A 
HETATM   23  C   UNL     1      31.747  43.524  56.980  1.00  0.00     0.056 C 
HETATM   24  C   UNL     1      30.071  43.532  55.014  1.00  0.00     0.015 A 
HETATM   25  C   UNL     1      29.068  44.375  54.458  1.00  0.00     0.015 A 
ENDBRANCH  19  20
ENDBRANCH  18  19
ENDBRANCH  17  18
ENDBRANCH   1  17
TORSDOF 6
ENDMDL
MODEL 5
REMARK VINA RESULT:      -8.3      1.396      2.144
REMARK  6 active torsions:
REMARK  status: ('A' for Active; 'I' for Inactive)
REMARK    1  A    between atoms: C_4  and  C_5 
REMARK    2  A    between atoms: C_5  and  C_6 
REMARK    3  A    between atoms: C_6  and  C_7 
REMARK    4  A    between atoms: C_7  and  C_8 
REMARK       I    between atoms: C_8  and  N_9 
REMARK    5  A    between atoms: N_9  and  C_10 
REMARK    6  A    between atoms: C_12  and  C_13 
ROOT
HETATM    1  C   UNL     1      25.277  44.107  52.037  1.00  0.00     0.222 C 
HETATM    2  N   UNL     1      25.550  44.435  53.331  1.00  0.00    -0.327 N 
HETATM    3  O   UNL     1      24.317  43.355  51.841  1.00  0.00    -0.273 OA
HETATM    4  H   UNL     1      24.863  44.002  53.938  1.00  0.00     0.169 HD
ENDROOT
BRANCH   2   5
HETATM    5  C   UNL     1      26.532  45.207  53.982  1.00  0.00     0.035 A 
HETATM    6  C   UNL     1      27.630  44.714  54.690  1.00  0.00     0.042 A 
HETATM    7  C   UNL     1      28.553  45.582  55.306  1.00  0.00    -0.021 A 
HETATM    8  C   UNL     1      28.356  46.963  55.213  1.00  0.00     0.012 A 
HETATM    9  C   UNL     1      27.262  47.470  54.516  1.00  0.00     0.003 A 
HETATM   10  C   UNL     1      26.360  46.597  53.908  1.00  0.00     0.029 A 
BRANCH   7  11
HETATM   11  C   UNL     1      29.692  45.061  56.046  1.00  0.00     0.010 A 
HETATM   12  C   UNL     1      30.611  44.032  55.725  1.00  0.00     0.152 A 
HETATM   13  N   UNL     1      31.520  43.833  56.683  1.00  0.00    -0.187 NA
HETATM   14  N   UNL     1      31.188  44.729  57.623  1.00  0.00    -0.289 N 
HETATM   15  H   UNL     1      31.745  44.766  58.471  1.00  0.00     0.188 HD
HETATM   16  C   UNL     1      30.100  45.487  57.294  1.00  0.00     0.123 A 
ENDBRANCH   7  11
ENDBRANCH   2   5
BRANCH   1  17
HETATM   17  C   UNL     1      26.103  44.643  50.889  1.00  0.00     0.103 C 
BRANCH  17  18
HETATM   18  C   UNL     1      25.515  45.900  50.241  1.00  0.00     0.014 C 
BRANCH  18  19
HETATM   19  C   UNL     1      26.511  47.064  50.199  1.00  0.00     0.046 C 
BRANCH  19  20
HETATM   20  C   UNL     1      25.968  48.214  49.400  1.00  0.00    -0.017 A 
HETATM   21  S   UNL     1      24.279  48.442  49.245  1.00  0.00    -0.100 SA
HETATM   22  C   UNL     1      24.485  49.836  48.274  1.00  0.00    -0.021 A 
HETATM   23  C   UNL     1      23.294  50.575  47.769  1.00  0.00     0.056 C 
HETATM   24  C   UNL     1      25.819  50.123  48.076  1.00  0.00     0.015 A 
HETATM   25  C   UNL     1      26.674  49.187  48.723  1.00  0.00     0.015 A 
ENDBRANCH  19  20
ENDBRANCH  18  19
ENDBRANCH  17  18
ENDBRANCH   1  17
TORSDOF 6
ENDMDL
MODEL 6
REMARK VINA RESULT:      -8.2      3.784      8.211
REMARK  6 active torsions:
REMARK  status: ('A' for Active; 'I' for Inactive)
REMARK    1  A    between atoms: C_4  and  C_5 
REMARK    2  A    between atoms: C_5  and  C_6 
REMARK    3  A    between atoms: C_6  and  C_7 
REMARK    4  A    between atoms: C_7  and  C_8 
REMARK       I    between atoms: C_8  and  N_9 
REMARK    5  A    between atoms: N_9  and  C_10 
REMARK    6  A    between atoms: C_12  and  C_13 
ROOT
HETATM    1  C   UNL     1      27.719  42.370  51.159  1.00  0.00     0.222 C 
HETATM    2  N   UNL     1      26.705  43.231  50.862  1.00  0.00    -0.327 N 
HETATM    3  O   UNL     1      27.601  41.208  50.760  1.00  0.00    -0.273 OA
HETATM    4  H   UNL     1      26.005  42.746  50.311  1.00  0.00     0.169 HD
ENDROOT
BRANCH   2   5
HETATM    5  C   UNL     1      26.427  44.583  51.140  1.00  0.00     0.035 A 
HETATM    6  C   UNL     1      26.502  45.642  50.234  1.00  0.00     0.042 A 
HETATM    7  C   UNL     1      26.200  46.963  50.623  1.00  0.00    -0.021 A 
HETATM    8  C   UNL     1      25.829  47.214  51.948  1.00  0.00     0.012 A 
HETATM    9  C   UNL     1      25.756  46.169  52.865  1.00  0.00     0.003 A 
HETATM   10  C   UNL     1      26.053  44.867  52.462  1.00  0.00     0.029 A 
BRANCH   7  11
HETATM   11  C   UNL     1      26.286  48.062  49.674  1.00  0.00     0.010 A 
HETATM   12  C   UNL     1      25.275  48.878  49.111  1.00  0.00     0.152 A 
HETATM   13  N   UNL     1      25.756  49.781  48.253  1.00  0.00    -0.187 NA
HETATM   14  N   UNL     1      27.076  49.546  48.257  1.00  0.00    -0.289 N 
HETATM   15  H   UNL     1      27.669  50.118  47.664  1.00  0.00     0.188 HD
HETATM   16  C   UNL     1      27.445  48.527  49.088  1.00  0.00     0.123 A 
ENDBRANCH   7  11
ENDBRANCH   2   5
BRANCH   1  17
HETATM   17  C   UNL     1      28.938  42.815  51.936  1.00  0.00     0.103 C 
BRANCH  17  18
HETATM   18  C   UNL     1      28.820  42.594  53.447  1.00  0.00     0.014 C 
BRANCH  18  19
HETATM   19  C   UNL     1      30.127  42.889  54.192  1.00  0.00     0.046 C 
BRANCH  19  20
HETATM   20  C   UNL     1      29.949  44.009  55.175  1.00  0.00    -0.017 A 
HETATM   21  S   UNL     1      30.983  44.145  56.533  1.00  0.00    -0.100 SA
HETATM   22  C   UNL     1      30.183  45.552  57.090  1.00  0.00    -0.021 A 
HETATM   23  C   UNL     1      30.642  46.226  58.336  1.00  0.00     0.056 C 
HETATM   24  C   UNL     1      29.150  45.913  56.252  1.00  0.00     0.015 A 
HETATM   25  C   UNL     1      29.013  45.023  55.149  1.00  0.00     0.015 A 
ENDBRANCH  19  20
ENDBRANCH  18  19
ENDBRANCH  17  18
ENDBRANCH   1  17
TORSDOF 6
ENDMDL
MODEL 7
REMARK VINA RESULT:      -8.0      2.900      4.686
REMARK  6 active torsions:
REMARK  status: ('A' for Active; 'I' for Inactive)
REMARK    1  A    between atoms: C_4  and  C_5 
REMARK    2  A    between atoms: C_5  and  C_6 
REMARK    3  A    between atoms: C_6  and  C_7 
REMARK    4  A    between atoms: C_7  and  C_8 
REMARK       I    between atoms: C_8  and  N_9 
REMARK    5  A    between atoms: N_9  and  C_10 
REMARK    6  A    between atoms: C_12  and  C_13 
ROOT
HETATM    1  C   UNL     1      28.637  41.711  52.865  1.00  0.00     0.222 C 
HETATM    2  N   UNL     1      29.411  42.357  53.782  1.00  0.00    -0.327 N 
HETATM    3  O   UNL     1      29.059  40.633  52.437  1.00  0.00    -0.273 OA
HETATM    4  H   UNL     1      30.231  41.793  53.983  1.00  0.00     0.169 HD
ENDROOT
BRANCH   2   5
HETATM    5  C   UNL     1      29.330  43.578  54.479  1.00  0.00     0.035 A 
HETATM    6  C   UNL     1      28.340  44.549  54.325  1.00  0.00     0.042 A 
HETATM    7  C   UNL     1      28.358  45.740  55.078  1.00  0.00    -0.021 A 
HETATM    8  C   UNL     1      29.398  45.954  55.988  1.00  0.00     0.012 A 
HETATM    9  C   UNL     1      30.397  44.998  56.148  1.00  0.00     0.003 A 
HETATM   10  C   UNL     1      30.361  43.822  55.399  1.00  0.00     0.029 A 
BRANCH   7  11
HETATM   11  C   UNL     1      27.324  46.750  54.908  1.00  0.00     0.010 A 
HETATM   12  C   UNL     1      26.306  46.876  53.932  1.00  0.00     0.152 A 
HETATM   13  N   UNL     1      25.553  47.964  54.106  1.00  0.00    -0.187 NA
HETATM   14  N   UNL     1      26.086  48.544  55.192  1.00  0.00    -0.289 N 
HETATM   15  H   UNL     1      25.676  49.411  55.524  1.00  0.00     0.188 HD
HETATM   16  C   UNL     1      27.149  47.860  55.708  1.00  0.00     0.123 A 
ENDBRANCH   7  11
ENDBRANCH   2   5
BRANCH   1  17
HETATM   17  C   UNL     1      27.317  42.282  52.396  1.00  0.00     0.103 C 
BRANCH  17  18
HETATM   18  C   UNL     1      27.111  42.192  50.881  1.00  0.00     0.014 C 
BRANCH  18  19
HETATM   19  C   UNL     1      25.702  42.614  50.450  1.00  0.00     0.046 C 
BRANCH  19  20
HETATM   20  C   UNL     1      25.554  44.108  50.467  1.00  0.00    -0.017 A 
HETATM   21  S   UNL     1      26.793  45.110  49.845  1.00  0.00    -0.100 SA
HETATM   22  C   UNL     1      25.920  46.536  50.208  1.00  0.00    -0.021 A 
HETATM   23  C   UNL     1      26.499  47.869  49.880  1.00  0.00     0.056 C 
HETATM   24  C   UNL     1      24.703  46.251  50.789  1.00  0.00     0.015 A 
HETATM   25  C   UNL     1      24.492  44.851  50.941  1.00  0.00     0.015 A 
ENDBRANCH  19  20
ENDBRANCH  18  19
ENDBRANCH  17  18
ENDBRANCH   1  17
TORSDOF 6
ENDMDL
MODEL 8
REMARK VINA RESULT:      -7.9      1.762      2.917
REMARK  6 active torsions:
REMARK  status: ('A' for Active; 'I' for Inactive)
REMARK    1  A    between atoms: C_4  and  C_5 
REMARK    2  A    between atoms: C_5  and  C_6 
REMARK    3  A    between atoms: C_6  and  C_7 
REMARK    4  A    between atoms: C_7  and  C_8 
REMARK       I    between atoms: C_8  and  N_9 
REMARK    5  A    between atoms: N_9  and  C_10 
REMARK    6  A    between atoms: C_12  and  C_13 
ROOT
HETATM    1  C   UNL     1      25.673  45.282  50.261  1.00  0.00     0.222 C 
HETATM    2  N   UNL     1      25.757  44.897  51.566  1.00  0.00    -0.327 N 
HETATM    3  O   UNL     1      25.015  44.560  49.506  1.00  0.00    -0.273 OA
HETATM    4  H   UNL     1      25.210  44.052  51.700  1.00  0.00     0.169 HD
ENDROOT
BRANCH   2   5
HETATM    5  C   UNL     1      26.405  45.388  52.715  1.00  0.00     0.035 A 
HETATM    6  C   UNL     1      27.514  44.817  53.341  1.00  0.00     0.042 A 
HETATM    7  C   UNL     1      28.084  45.395  54.493  1.00  0.00    -0.021 A 
HETATM    8  C   UNL     1      27.516  46.559  55.022  1.00  0.00     0.012 A 
HETATM    9  C   UNL     1      26.406  47.137  54.413  1.00  0.00     0.003 A 
HETATM   10  C   UNL     1      25.857  46.554  53.270  1.00  0.00     0.029 A 
BRANCH   7  11
HETATM   11  C   UNL     1      29.237  44.792  55.143  1.00  0.00     0.010 A 
HETATM   12  C   UNL     1      30.081  45.280  56.170  1.00  0.00     0.152 A 
HETATM   13  N   UNL     1      31.056  44.426  56.489  1.00  0.00    -0.187 NA
HETATM   14  N   UNL     1      30.845  43.388  55.667  1.00  0.00    -0.289 N 
HETATM   15  H   UNL     1      31.478  42.595  55.721  1.00  0.00     0.188 HD
HETATM   16  C   UNL     1      29.772  43.556  54.840  1.00  0.00     0.123 A 
ENDBRANCH   7  11
ENDBRANCH   2   5
BRANCH   1  17
HETATM   17  C   UNL     1      26.349  46.539  49.758  1.00  0.00     0.103 C 
BRANCH  17  18
HETATM   18  C   UNL     1      25.493  47.799  49.908  1.00  0.00     0.014 C 
BRANCH  18  19
HETATM   19  C   UNL     1      24.052  47.596  49.425  1.00  0.00     0.046 C 
BRANCH  19  20
HETATM   20  C   UNL     1      23.409  48.906  49.072  1.00  0.00    -0.017 A 
HETATM   21  S   UNL     1      21.706  49.074  49.106  1.00  0.00    -0.100 SA
HETATM   22  C   UNL     1      21.787  50.714  48.623  1.00  0.00    -0.021 A 
HETATM   23  C   UNL     1      20.536  51.505  48.457  1.00  0.00     0.056 C 
HETATM   24  C   UNL     1      23.091  51.125  48.444  1.00  0.00     0.015 A 
HETATM   25  C   UNL     1      24.026  50.083  48.700  1.00  0.00     0.015 A 
ENDBRANCH  19  20
ENDBRANCH  18  19
ENDBRANCH  17  18
ENDBRANCH   1  17
TORSDOF 6
ENDMDL
MODEL 9
REMARK VINA RESULT:      -7.8      2.602      3.688
REMARK  6 active torsions:
REMARK  status: ('A' for Active; 'I' for Inactive)
REMARK    1  A    between atoms: C_4  and  C_5 
REMARK    2  A    between atoms: C_5  and  C_6 
REMARK    3  A    between atoms: C_6  and  C_7 
REMARK    4  A    between atoms: C_7  and  C_8 
REMARK       I    between atoms: C_8  and  N_9 
REMARK    5  A    between atoms: N_9  and  C_10 
REMARK    6  A    between atoms: C_12  and  C_13 
ROOT
HETATM    1  C   UNL     1      26.935  41.112  51.166  1.00  0.00     0.222 C 
HETATM    2  N   UNL     1      27.202  41.312  52.488  1.00  0.00    -0.327 N 
HETATM    3  O   UNL     1      26.380  40.051  50.862  1.00  0.00    -0.273 OA
HETATM    4  H   UNL     1      26.854  40.523  53.022  1.00  0.00     0.169 HD
ENDROOT
BRANCH   2   5
HETATM    5  C   UNL     1      27.826  42.325  53.241  1.00  0.00     0.035 A 
HETATM    6  C   UNL     1      27.258  43.545  53.609  1.00  0.00     0.042 A 
HETATM    7  C   UNL     1      27.979  44.491  54.366  1.00  0.00    -0.021 A 
HETATM    8  C   UNL     1      29.293  44.200  54.745  1.00  0.00     0.012 A 
HETATM    9  C   UNL     1      29.876  42.989  54.380  1.00  0.00     0.003 A 
HETATM   10  C   UNL     1      29.147  42.062  53.634  1.00  0.00     0.029 A 
BRANCH   7  11
HETATM   11  C   UNL     1      27.382  45.762  54.742  1.00  0.00     0.010 A 
HETATM   12  C   UNL     1      26.190  46.390  54.303  1.00  0.00     0.152 A 
HETATM   13  N   UNL     1      25.989  47.578  54.878  1.00  0.00    -0.187 NA
HETATM   14  N   UNL     1      27.051  47.721  55.685  1.00  0.00    -0.289 N 
HETATM   15  H   UNL     1      27.125  48.570  56.237  1.00  0.00     0.188 HD
HETATM   16  C   UNL     1      27.915  46.665  55.639  1.00  0.00     0.123 A 
ENDBRANCH   7  11
ENDBRANCH   2   5
BRANCH   1  17
HETATM   17  C   UNL     1      27.293  42.142  50.118  1.00  0.00     0.103 C 
BRANCH  17  18
HETATM   18  C   UNL     1      26.271  43.274  49.993  1.00  0.00     0.014 C 
BRANCH  18  19
HETATM   19  C   UNL     1      26.892  44.659  50.208  1.00  0.00     0.046 C 
BRANCH  19  20
HETATM   20  C   UNL     1      25.905  45.749  49.907  1.00  0.00    -0.017 A 
HETATM   21  S   UNL     1      26.439  47.350  49.623  1.00  0.00    -0.100 SA
HETATM   22  C   UNL     1      24.842  47.915  49.379  1.00  0.00    -0.021 A 
HETATM   23  C   UNL     1      24.600  49.350  49.061  1.00  0.00     0.056 C 
HETATM   24  C   UNL     1      23.920  46.898  49.507  1.00  0.00     0.015 A 
HETATM   25  C   UNL     1      24.532  45.650  49.814  1.00  0.00     0.015 A 
ENDBRANCH  19  20
ENDBRANCH  18  19
ENDBRANCH  17  18
ENDBRANCH   1  17
TORSDOF 6
ENDMDL
MODEL 10
REMARK VINA RESULT:      -7.8      3.498      7.046
REMARK  6 active torsions:
REMARK  status: ('A' for Active; 'I' for Inactive)
REMARK    1  A    between atoms: C_4  and  C_5 
REMARK    2  A    between atoms: C_5  and  C_6 
REMARK    3  A    between atoms: C_6  and  C_7 
REMARK    4  A    between atoms: C_7  and  C_8 
REMARK       I    between atoms: C_8  and  N_9 
REMARK    5  A    between atoms: N_9  and  C_10 
REMARK    6  A    between atoms: C_12  and  C_13 
ROOT
HETATM    1  C   UNL     1      29.937  43.675  54.812  1.00  0.00     0.222 C 
HETATM    2  N   UNL     1      29.158  44.650  55.358  1.00  0.00    -0.327 N 
HETATM    3  O   UNL     1      30.737  43.110  55.564  1.00  0.00    -0.273 OA
HETATM    4  H   UNL     1      29.365  44.727  56.349  1.00  0.00     0.169 HD
ENDROOT
BRANCH   2   5
HETATM    5  C   UNL     1      28.177  45.537  54.873  1.00  0.00     0.035 A 
HETATM    6  C   UNL     1      27.330  45.312  53.788  1.00  0.00     0.042 A 
HETATM    7  C   UNL     1      26.380  46.274  53.387  1.00  0.00    -0.021 A 
HETATM    8  C   UNL     1      26.298  47.481  54.089  1.00  0.00     0.012 A 
HETATM    9  C   UNL     1      27.141  47.723  55.170  1.00  0.00     0.003 A 
HETATM   10  C   UNL     1      28.071  46.758  55.556  1.00  0.00     0.029 A 
BRANCH   7  11
HETATM   11  C   UNL     1      25.504  46.034  52.252  1.00  0.00     0.010 A 
HETATM   12  C   UNL     1      25.261  46.809  51.091  1.00  0.00     0.152 A 
HETATM   13  N   UNL     1      24.361  46.253  50.276  1.00  0.00    -0.187 NA
HETATM   14  N   UNL     1      24.019  45.122  50.911  1.00  0.00    -0.289 N 
HETATM   15  H   UNL     1      23.328  44.517  50.478  1.00  0.00     0.188 HD
HETATM   16  C   UNL     1      24.671  44.945  52.098  1.00  0.00     0.123 A 
ENDBRANCH   7  11
ENDBRANCH   2   5
BRANCH   1  17
HETATM   17  C   UNL     1      29.826  43.292  53.352  1.00  0.00     0.103 C 
BRANCH  17  18
HETATM   18  C   UNL     1      29.508  41.812  53.126  1.00  0.00     0.014 C 
BRANCH  18  19
HETATM   19  C   UNL     1      28.016  41.558  52.881  1.00  0.00     0.046 C 
BRANCH  19  20
HETATM   20  C   UNL     1      27.659  41.778  51.439  1.00  0.00    -0.017 A 
HETATM   21  S   UNL     1      28.010  40.583  50.265  1.00  0.00    -0.100 SA
HETATM   22  C   UNL     1      27.345  41.528  49.002  1.00  0.00    -0.021 A 
HETATM   23  C   UNL     1      27.336  41.006  47.607  1.00  0.00     0.056 C 
HETATM   24  C   UNL     1      26.860  42.731  49.470  1.00  0.00     0.015 A 
HETATM   25  C   UNL     1      27.043  42.876  50.875  1.00  0.00     0.015 A 
ENDBRANCH  19  20
ENDBRANCH  18  19
ENDBRANCH  17  18
ENDBRANCH   1  17
TORSDOF 6
ENDMDL
