MODEL 1
REMARK VINA RESULT:      -9.4      0.000      0.000
REMARK  8 active torsions:
REMARK  status: ('A' for Active; 'I' for Inactive)
REMARK    1  A    between atoms: C_7  and  C_8 
REMARK    2  A    between atoms: C_8  and  O_9 
REMARK    3  A    between atoms: O_9  and  C_10 
REMARK    4  A    between atoms: C_12  and  C_13 
REMARK       I    between atoms: C_13  and  N_14 
REMARK    5  A    between atoms: N_14  and  C_15 
REMARK    6  A    between atoms: C_15  and  C_16 
REMARK    7  A    between atoms: C_19  and  C_20 
REMARK    8  A    between atoms: C_20  and  N_21 
ROOT
HETATM    1  C   UNL     1      26.894  46.075  49.625  1.00  0.00     0.252 C 
HETATM    2  N   UNL     1      25.790  46.885  49.801  1.00  0.00    -0.353 N 
HETATM    3  O   UNL     1      27.926  46.452  49.084  1.00  0.00    -0.268 OA
HETATM    4  H   UNL     1      24.920  46.493  50.131  1.00  0.00     0.163 HD
ENDROOT
BRANCH   1   5
HETATM    5  C   UNL     1      26.767  44.672  50.105  1.00  0.00     0.034 A 
HETATM    6  C   UNL     1      27.550  44.267  51.192  1.00  0.00     0.053 A 
HETATM    7  C   UNL     1      27.437  42.973  51.706  1.00  0.00     0.070 A 
HETATM    8  C   UNL     1      26.551  42.072  51.114  1.00  0.00     0.037 A 
HETATM    9  C   UNL     1      25.760  42.474  50.035  1.00  0.00     0.004 A 
HETATM   10  C   UNL     1      25.859  43.773  49.534  1.00  0.00     0.017 A 
BRANCH   7  11
HETATM   11  O   UNL     1      28.255  42.701  52.766  1.00  0.00    -0.346 OA
BRANCH  11  12
HETATM   12  C   UNL     1      27.719  42.945  54.071  1.00  0.00     0.219 C 
BRANCH  12  13
HETATM   13  C   UNL     1      28.318  44.173  54.658  1.00  0.00     0.024 A 
HETATM   14  C   UNL     1      27.759  45.476  54.761  1.00  0.00     0.069 A 
HETATM   15  C   UNL     1      26.428  45.948  54.313  1.00  0.00     0.073 C 
HETATM   16  N   UNL     1      28.607  46.328  55.346  1.00  0.00    -0.133 NA
HETATM   17  O   UNL     1      29.739  45.596  55.637  1.00  0.00    -0.217 OA
HETATM   18  C   UNL     1      29.568  44.314  55.223  1.00  0.00     0.085 A 
HETATM   19  C   UNL     1      30.694  43.389  55.460  1.00  0.00     0.079 C 
ENDBRANCH  12  13
ENDBRANCH  11  12
ENDBRANCH   7  11
ENDBRANCH   1   5
BRANCH   2  20
HETATM   20  C   UNL     1      25.823  48.288  49.459  1.00  0.00     0.161 C 
BRANCH  20  21
HETATM   21  C   UNL     1      24.502  48.871  49.003  1.00  0.00    -0.041 A 
HETATM   22  C   UNL     1      24.393  50.074  48.296  1.00  0.00     0.009 A 
HETATM   23  C   UNL     1      23.141  50.576  47.925  1.00  0.00     0.009 A 
HETATM   24  C   UNL     1      21.967  49.882  48.254  1.00  0.00    -0.033 A 
HETATM   25  C   UNL     1      22.074  48.664  48.935  1.00  0.00     0.009 A 
HETATM   26  C   UNL     1      23.326  48.164  49.301  1.00  0.00     0.009 A 
BRANCH  24  27
HETATM   27  C   UNL     1      20.621  50.440  47.884  1.00  0.00     0.273 C 
BRANCH  27  28
HETATM   28  N   UNL     1      20.044  51.340  48.944  1.00  0.00    -0.067 N 
HETATM   29  H   UNL     1      20.844  51.798  49.398  1.00  0.00     0.280 HD
HETATM   30  C   UNL     1      19.271  50.598  50.016  1.00  0.00     0.235 C 
HETATM   31  C   UNL     1      17.848  51.101  49.876  1.00  0.00     0.029 C 
HETATM   32  C   UNL     1      18.033  52.538  49.439  1.00  0.00     0.029 C 
HETATM   33  C   UNL     1      19.142  52.436  48.410  1.00  0.00     0.235 C 
ENDBRANCH  27  28
ENDBRANCH  24  27
ENDBRANCH  20  21
ENDBRANCH   2  20
TORSDOF 8
ENDMDL
MODEL 2
REMARK VINA RESULT:      -9.2      2.908     10.279
REMARK  8 active torsions:
REMARK  status: ('A' for Active; 'I' for Inactive)
REMARK    1  A    between atoms: C_7  and  C_8 
REMARK    2  A    between atoms: C_8  and  O_9 
REMARK    3  A    between atoms: O_9  and  C_10 
REMARK    4  A    between atoms: C_12  and  C_13 
REMARK       I    between atoms: C_13  and  N_14 
REMARK    5  A    between atoms: N_14  and  C_15 
REMARK    6  A    between atoms: C_15  and  C_16 
REMARK    7  A    between atoms: C_19  and  C_20 
REMARK    8  A    between atoms: C_20  and  N_21 
ROOT
HETATM    1  C   UNL     1      24.933  46.851  49.799  1.00  0.00     0.252 C 
HETATM    2  N   UNL     1      24.318  46.404  50.951  1.00  0.00    -0.353 N 
HETATM    3  O   UNL     1      26.000  46.411  49.390  1.00  0.00    -0.268 OA
HETATM    4  H   UNL     1      23.510  46.886  51.316  1.00  0.00     0.163 HD
ENDROOT
BRANCH   1   5
HETATM    5  C   UNL     1      24.241  47.945  49.063  1.00  0.00     0.034 A 
HETATM    6  C   UNL     1      22.947  47.711  48.584  1.00  0.00     0.053 A 
HETATM    7  C   UNL     1      22.241  48.719  47.924  1.00  0.00     0.070 A 
HETATM    8  C   UNL     1      22.841  49.962  47.723  1.00  0.00     0.037 A 
HETATM    9  C   UNL     1      24.129  50.205  48.210  1.00  0.00     0.004 A 
HETATM   10  C   UNL     1      24.827  49.203  48.885  1.00  0.00     0.017 A 
BRANCH   7  11
HETATM   11  O   UNL     1      20.990  48.365  47.504  1.00  0.00    -0.346 OA
BRANCH  11  12
HETATM   12  C   UNL     1      19.951  49.332  47.693  1.00  0.00     0.219 C 
BRANCH  12  13
HETATM   13  C   UNL     1      19.375  49.217  49.060  1.00  0.00     0.024 A 
HETATM   14  C   UNL     1      18.357  48.343  49.526  1.00  0.00     0.069 A 
HETATM   15  C   UNL     1      17.606  47.312  48.772  1.00  0.00     0.073 C 
HETATM   16  N   UNL     1      18.099  48.539  50.824  1.00  0.00    -0.133 NA
HETATM   17  O   UNL     1      18.945  49.550  51.229  1.00  0.00    -0.217 OA
HETATM   18  C   UNL     1      19.702  49.956  50.177  1.00  0.00     0.085 A 
HETATM   19  C   UNL     1      20.669  51.040  50.440  1.00  0.00     0.079 C 
ENDBRANCH  12  13
ENDBRANCH  11  12
ENDBRANCH   7  11
ENDBRANCH   1   5
BRANCH   2  20
HETATM   20  C   UNL     1      24.845  45.286  51.700  1.00  0.00     0.161 C 
BRANCH  20  21
HETATM   21  C   UNL     1      25.895  45.641  52.732  1.00  0.00    -0.041 A 
HETATM   22  C   UNL     1      25.963  46.886  53.367  1.00  0.00     0.009 A 
HETATM   23  C   UNL     1      26.975  47.164  54.292  1.00  0.00     0.009 A 
HETATM   24  C   UNL     1      27.942  46.199  54.605  1.00  0.00    -0.033 A 
HETATM   25  C   UNL     1      27.859  44.941  53.994  1.00  0.00     0.009 A 
HETATM   26  C   UNL     1      26.847  44.667  53.073  1.00  0.00     0.009 A 
BRANCH  24  27
HETATM   27  C   UNL     1      29.048  46.510  55.574  1.00  0.00     0.273 C 
BRANCH  27  28
HETATM   28  N   UNL     1      29.347  45.371  56.514  1.00  0.00    -0.067 N 
HETATM   29  H   UNL     1      28.580  44.697  56.400  1.00  0.00     0.280 HD
HETATM   30  C   UNL     1      29.385  45.783  57.972  1.00  0.00     0.235 C 
HETATM   31  C   UNL     1      30.815  45.524  58.403  1.00  0.00     0.029 C 
HETATM   32  C   UNL     1      31.207  44.313  57.583  1.00  0.00     0.029 C 
HETATM   33  C   UNL     1      30.639  44.637  56.214  1.00  0.00     0.235 C 
ENDBRANCH  27  28
ENDBRANCH  24  27
ENDBRANCH  20  21
ENDBRANCH   2  20
TORSDOF 8
ENDMDL
MODEL 3
REMARK VINA RESULT:      -9.0      3.469     10.344
REMARK  8 active torsions:
REMARK  status: ('A' for Active; 'I' for Inactive)
REMARK    1  A    between atoms: C_7  and  C_8 
REMARK    2  A    between atoms: C_8  and  O_9 
REMARK    3  A    between atoms: O_9  and  C_10 
REMARK    4  A    between atoms: C_12  and  C_13 
REMARK       I    between atoms: C_13  and  N_14 
REMARK    5  A    between atoms: N_14  and  C_15 
REMARK    6  A    between atoms: C_15  and  C_16 
REMARK    7  A    between atoms: C_19  and  C_20 
REMARK    8  A    between atoms: C_20  and  N_21 
ROOT
HETATM    1  C   UNL     1      24.832  46.939  49.730  1.00  0.00     0.252 C 
HETATM    2  N   UNL     1      24.212  46.337  50.807  1.00  0.00    -0.353 N 
HETATM    3  O   UNL     1      25.954  46.636  49.343  1.00  0.00    -0.268 OA
HETATM    4  H   UNL     1      23.345  46.709  51.167  1.00  0.00     0.163 HD
ENDROOT
BRANCH   1   5
HETATM    5  C   UNL     1      24.072  48.026  49.053  1.00  0.00     0.034 A 
HETATM    6  C   UNL     1      22.718  47.814  48.768  1.00  0.00     0.053 A 
HETATM    7  C   UNL     1      21.952  48.818  48.171  1.00  0.00     0.070 A 
HETATM    8  C   UNL     1      22.550  50.034  47.839  1.00  0.00     0.037 A 
HETATM    9  C   UNL     1      23.899  50.255  48.131  1.00  0.00     0.004 A 
HETATM   10  C   UNL     1      24.659  49.258  48.744  1.00  0.00     0.017 A 
BRANCH   7  11
HETATM   11  O   UNL     1      20.647  48.488  47.944  1.00  0.00    -0.346 OA
BRANCH  11  12
HETATM   12  C   UNL     1      19.916  47.953  49.053  1.00  0.00     0.219 C 
BRANCH  12  13
HETATM   13  C   UNL     1      19.149  46.748  48.639  1.00  0.00     0.024 A 
HETATM   14  C   UNL     1      19.624  45.431  48.394  1.00  0.00     0.069 A 
HETATM   15  C   UNL     1      21.008  44.913  48.495  1.00  0.00     0.073 C 
HETATM   16  N   UNL     1      18.631  44.613  48.028  1.00  0.00    -0.133 NA
HETATM   17  O   UNL     1      17.487  45.384  48.025  1.00  0.00    -0.217 OA
HETATM   18  C   UNL     1      17.797  46.656  48.385  1.00  0.00     0.085 A 
HETATM   19  C   UNL     1      16.678  47.617  48.434  1.00  0.00     0.079 C 
ENDBRANCH  12  13
ENDBRANCH  11  12
ENDBRANCH   7  11
ENDBRANCH   1   5
BRANCH   2  20
HETATM   20  C   UNL     1      24.809  45.211  51.487  1.00  0.00     0.161 C 
BRANCH  20  21
HETATM   21  C   UNL     1      25.850  45.566  52.528  1.00  0.00    -0.041 A 
HETATM   22  C   UNL     1      26.825  44.670  52.980  1.00  0.00     0.009 A 
HETATM   23  C   UNL     1      27.744  45.047  53.965  1.00  0.00     0.009 A 
HETATM   24  C   UNL     1      27.707  46.335  54.520  1.00  0.00    -0.033 A 
HETATM   25  C   UNL     1      26.753  47.244  54.048  1.00  0.00     0.009 A 
HETATM   26  C   UNL     1      25.839  46.864  53.063  1.00  0.00     0.009 A 
BRANCH  24  27
HETATM   27  C   UNL     1      28.674  46.729  55.602  1.00  0.00     0.273 C 
BRANCH  27  28
HETATM   28  N   UNL     1      29.067  45.577  56.490  1.00  0.00    -0.067 N 
HETATM   29  H   UNL     1      28.356  44.850  56.348  1.00  0.00     0.280 HD
HETATM   30  C   UNL     1      29.081  45.926  57.964  1.00  0.00     0.235 C 
HETATM   31  C   UNL     1      30.529  45.763  58.381  1.00  0.00     0.029 C 
HETATM   32  C   UNL     1      31.012  44.625  57.507  1.00  0.00     0.029 C 
HETATM   33  C   UNL     1      30.412  44.962  56.155  1.00  0.00     0.235 C 
ENDBRANCH  27  28
ENDBRANCH  24  27
ENDBRANCH  20  21
ENDBRANCH   2  20
TORSDOF 8
ENDMDL
MODEL 4
REMARK VINA RESULT:      -8.9      1.890      2.397
REMARK  8 active torsions:
REMARK  status: ('A' for Active; 'I' for Inactive)
REMARK    1  A    between atoms: C_7  and  C_8 
REMARK    2  A    between atoms: C_8  and  O_9 
REMARK    3  A    between atoms: O_9  and  C_10 
REMARK    4  A    between atoms: C_12  and  C_13 
REMARK       I    between atoms: C_13  and  N_14 
REMARK    5  A    between atoms: N_14  and  C_15 
REMARK    6  A    between atoms: C_15  and  C_16 
REMARK    7  A    between atoms: C_19  and  C_20 
REMARK    8  A    between atoms: C_20  and  N_21 
ROOT
HETATM    1  C   UNL     1      25.775  47.554  50.472  1.00  0.00     0.252 C 
HETATM    2  N   UNL     1      24.640  47.929  49.782  1.00  0.00    -0.353 N 
HETATM    3  O   UNL     1      26.858  48.110  50.340  1.00  0.00    -0.268 OA
HETATM    4  H   UNL     1      23.807  47.360  49.826  1.00  0.00     0.163 HD
ENDROOT
BRANCH   1   5
HETATM    5  C   UNL     1      25.636  46.391  51.391  1.00  0.00     0.034 A 
HETATM    6  C   UNL     1      26.247  46.458  52.648  1.00  0.00     0.053 A 
HETATM    7  C   UNL     1      26.112  45.410  53.561  1.00  0.00     0.070 A 
HETATM    8  C   UNL     1      25.377  44.278  53.205  1.00  0.00     0.037 A 
HETATM    9  C   UNL     1      24.755  44.210  51.956  1.00  0.00     0.004 A 
HETATM   10  C   UNL     1      24.876  45.266  51.051  1.00  0.00     0.017 A 
BRANCH   7  11
HETATM   11  O   UNL     1      26.756  45.595  54.751  1.00  0.00    -0.346 OA
BRANCH  11  12
HETATM   12  C   UNL     1      28.068  46.166  54.690  1.00  0.00     0.219 C 
BRANCH  12  13
HETATM   13  C   UNL     1      29.092  45.158  55.072  1.00  0.00     0.024 A 
HETATM   14  C   UNL     1      29.536  44.020  54.346  1.00  0.00     0.069 A 
HETATM   15  C   UNL     1      29.098  43.545  53.012  1.00  0.00     0.073 C 
HETATM   16  N   UNL     1      30.470  43.341  55.021  1.00  0.00    -0.133 NA
HETATM   17  O   UNL     1      30.651  44.025  56.206  1.00  0.00    -0.217 OA
HETATM   18  C   UNL     1      29.827  45.104  56.237  1.00  0.00     0.085 A 
HETATM   19  C   UNL     1      29.897  45.950  57.444  1.00  0.00     0.079 C 
ENDBRANCH  12  13
ENDBRANCH  11  12
ENDBRANCH   7  11
ENDBRANCH   1   5
BRANCH   2  20
HETATM   20  C   UNL     1      24.627  49.097  48.933  1.00  0.00     0.161 C 
BRANCH  20  21
HETATM   21  C   UNL     1      23.250  49.620  48.578  1.00  0.00    -0.041 A 
HETATM   22  C   UNL     1      22.883  50.965  48.693  1.00  0.00     0.009 A 
HETATM   23  C   UNL     1      21.586  51.383  48.376  1.00  0.00     0.009 A 
HETATM   24  C   UNL     1      20.626  50.462  47.933  1.00  0.00    -0.033 A 
HETATM   25  C   UNL     1      20.999  49.120  47.788  1.00  0.00     0.009 A 
HETATM   26  C   UNL     1      22.295  48.707  48.104  1.00  0.00     0.009 A 
BRANCH  24  27
HETATM   27  C   UNL     1      19.224  50.906  47.624  1.00  0.00     0.273 C 
BRANCH  27  28
HETATM   28  N   UNL     1      18.335  50.940  48.839  1.00  0.00    -0.067 N 
HETATM   29  H   UNL     1      18.773  50.323  49.534  1.00  0.00     0.280 HD
HETATM   30  C   UNL     1      16.935  50.420  48.581  1.00  0.00     0.235 C 
HETATM   31  C   UNL     1      16.035  51.617  48.816  1.00  0.00     0.029 C 
HETATM   32  C   UNL     1      16.750  52.374  49.914  1.00  0.00     0.029 C 
HETATM   33  C   UNL     1      18.201  52.310  49.477  1.00  0.00     0.235 C 
ENDBRANCH  27  28
ENDBRANCH  24  27
ENDBRANCH  20  21
ENDBRANCH   2  20
TORSDOF 8
ENDMDL
MODEL 5
REMARK VINA RESULT:      -8.8      1.543      2.448
REMARK  8 active torsions:
REMARK  status: ('A' for Active; 'I' for Inactive)
REMARK    1  A    between atoms: C_7  and  C_8 
REMARK    2  A    between atoms: C_8  and  O_9 
REMARK    3  A    between atoms: O_9  and  C_10 
REMARK    4  A    between atoms: C_12  and  C_13 
REMARK       I    between atoms: C_13  and  N_14 
REMARK    5  A    between atoms: N_14  and  C_15 
REMARK    6  A    between atoms: C_15  and  C_16 
REMARK    7  A    between atoms: C_19  and  C_20 
REMARK    8  A    between atoms: C_20  and  N_21 
ROOT
HETATM    1  C   UNL     1      25.903  46.754  51.244  1.00  0.00     0.252 C 
HETATM    2  N   UNL     1      25.944  47.109  49.911  1.00  0.00    -0.353 N 
HETATM    3  O   UNL     1      25.637  47.542  52.143  1.00  0.00    -0.268 OA
HETATM    4  H   UNL     1      26.295  46.459  49.223  1.00  0.00     0.163 HD
ENDROOT
BRANCH   1   5
HETATM    5  C   UNL     1      26.236  45.338  51.562  1.00  0.00     0.034 A 
HETATM    6  C   UNL     1      26.981  45.072  52.716  1.00  0.00     0.053 A 
HETATM    7  C   UNL     1      27.283  43.758  53.079  1.00  0.00     0.070 A 
HETATM    8  C   UNL     1      26.856  42.704  52.270  1.00  0.00     0.037 A 
HETATM    9  C   UNL     1      26.102  42.963  51.122  1.00  0.00     0.004 A 
HETATM   10  C   UNL     1      25.784  44.276  50.770  1.00  0.00     0.017 A 
BRANCH   7  11
HETATM   11  O   UNL     1      28.016  43.631  54.225  1.00  0.00    -0.346 OA
BRANCH  11  12
HETATM   12  C   UNL     1      29.303  44.258  54.238  1.00  0.00     0.219 C 
BRANCH  12  13
HETATM   13  C   UNL     1      29.566  44.878  55.564  1.00  0.00     0.024 A 
HETATM   14  C   UNL     1      30.485  44.474  56.570  1.00  0.00     0.069 A 
HETATM   15  C   UNL     1      31.426  43.330  56.556  1.00  0.00     0.073 C 
HETATM   16  N   UNL     1      30.431  45.280  57.636  1.00  0.00    -0.133 NA
HETATM   17  O   UNL     1      29.472  46.228  57.345  1.00  0.00    -0.217 OA
HETATM   18  C   UNL     1      28.954  45.985  56.113  1.00  0.00     0.085 A 
HETATM   19  C   UNL     1      27.908  46.914  55.644  1.00  0.00     0.079 C 
ENDBRANCH  12  13
ENDBRANCH  11  12
ENDBRANCH   7  11
ENDBRANCH   1   5
BRANCH   2  20
HETATM   20  C   UNL     1      25.553  48.428  49.470  1.00  0.00     0.161 C 
BRANCH  20  21
HETATM   21  C   UNL     1      24.133  48.540  48.957  1.00  0.00    -0.041 A 
HETATM   22  C   UNL     1      23.182  47.522  49.090  1.00  0.00     0.009 A 
HETATM   23  C   UNL     1      21.892  47.674  48.570  1.00  0.00     0.009 A 
HETATM   24  C   UNL     1      21.524  48.852  47.905  1.00  0.00    -0.033 A 
HETATM   25  C   UNL     1      22.463  49.885  47.796  1.00  0.00     0.009 A 
HETATM   26  C   UNL     1      23.749  49.730  48.319  1.00  0.00     0.009 A 
BRANCH  24  27
HETATM   27  C   UNL     1      20.148  49.001  47.317  1.00  0.00     0.273 C 
BRANCH  27  28
HETATM   28  N   UNL     1      19.229  49.835  48.171  1.00  0.00    -0.067 N 
HETATM   29  H   UNL     1      18.337  49.327  48.212  1.00  0.00     0.280 HD
HETATM   30  C   UNL     1      18.950  51.210  47.597  1.00  0.00     0.235 C 
HETATM   31  C   UNL     1      19.538  52.171  48.610  1.00  0.00     0.029 C 
HETATM   32  C   UNL     1      19.324  51.456  49.927  1.00  0.00     0.029 C 
HETATM   33  C   UNL     1      19.705  50.025  49.598  1.00  0.00     0.235 C 
ENDBRANCH  27  28
ENDBRANCH  24  27
ENDBRANCH  20  21
ENDBRANCH   2  20
TORSDOF 8
ENDMDL
MODEL 6
REMARK VINA RESULT:      -8.7      3.380     11.040
REMARK  8 active torsions:
REMARK  status: ('A' for Active; 'I' for Inactive)
REMARK    1  A    between atoms: C_7  and  C_8 
REMARK    2  A    between atoms: C_8  and  O_9 
REMARK    3  A    between atoms: O_9  and  C_10 
REMARK    4  A    between atoms: C_12  and  C_13 
REMARK       I    between atoms: C_13  and  N_14 
REMARK    5  A    between atoms: N_14  and  C_15 
REMARK    6  A    between atoms: C_15  and  C_16 
REMARK    7  A    between atoms: C_19  and  C_20 
REMARK    8  A    between atoms: C_20  and  N_21 
ROOT
HETATM    1  C   UNL     1      22.979  47.093  48.933  1.00  0.00     0.252 C 
HETATM    2  N   UNL     1      23.888  46.924  49.959  1.00  0.00    -0.353 N 
HETATM    3  O   UNL     1      22.572  46.172  48.236  1.00  0.00    -0.268 OA
HETATM    4  H   UNL     1      24.291  47.728  50.417  1.00  0.00     0.163 HD
ENDROOT
BRANCH   1   5
HETATM    5  C   UNL     1      22.520  48.486  48.680  1.00  0.00     0.034 A 
HETATM    6  C   UNL     1      21.390  48.679  47.877  1.00  0.00     0.053 A 
HETATM    7  C   UNL     1      20.895  49.964  47.643  1.00  0.00     0.070 A 
HETATM    8  C   UNL     1      21.549  51.065  48.199  1.00  0.00     0.037 A 
HETATM    9  C   UNL     1      22.671  50.877  49.011  1.00  0.00     0.004 A 
HETATM   10  C   UNL     1      23.153  49.591  49.259  1.00  0.00     0.017 A 
BRANCH   7  11
HETATM   11  O   UNL     1      19.789  50.019  46.844  1.00  0.00    -0.346 OA
BRANCH  11  12
HETATM   12  C   UNL     1      18.576  49.489  47.388  1.00  0.00     0.219 C 
BRANCH  12  13
HETATM   13  C   UNL     1      17.929  50.485  48.284  1.00  0.00     0.024 A 
HETATM   14  C   UNL     1      18.015  50.598  49.698  1.00  0.00     0.069 A 
HETATM   15  C   UNL     1      18.778  49.756  50.649  1.00  0.00     0.073 C 
HETATM   16  N   UNL     1      17.283  51.621  50.153  1.00  0.00    -0.133 NA
HETATM   17  O   UNL     1      16.702  52.194  49.041  1.00  0.00    -0.217 OA
HETATM   18  C   UNL     1      17.084  51.515  47.929  1.00  0.00     0.085 A 
HETATM   19  C   UNL     1      16.549  52.003  46.643  1.00  0.00     0.079 C 
ENDBRANCH  12  13
ENDBRANCH  11  12
ENDBRANCH   7  11
ENDBRANCH   1   5
BRANCH   2  20
HETATM   20  C   UNL     1      24.336  45.610  50.358  1.00  0.00     0.161 C 
BRANCH  20  21
HETATM   21  C   UNL     1      25.146  45.568  51.637  1.00  0.00    -0.041 A 
HETATM   22  C   UNL     1      25.763  46.693  52.196  1.00  0.00     0.009 A 
HETATM   23  C   UNL     1      26.523  46.586  53.367  1.00  0.00     0.009 A 
HETATM   24  C   UNL     1      26.678  45.348  54.006  1.00  0.00    -0.033 A 
HETATM   25  C   UNL     1      26.037  44.227  53.467  1.00  0.00     0.009 A 
HETATM   26  C   UNL     1      25.278  44.338  52.300  1.00  0.00     0.009 A 
BRANCH  24  27
HETATM   27  C   UNL     1      27.521  45.228  55.246  1.00  0.00     0.273 C 
BRANCH  27  28
HETATM   28  N   UNL     1      28.996  45.153  54.951  1.00  0.00    -0.067 N 
HETATM   29  H   UNL     1      29.207  45.950  54.336  1.00  0.00     0.280 HD
HETATM   30  C   UNL     1      29.406  43.889  54.222  1.00  0.00     0.235 C 
HETATM   31  C   UNL     1      30.326  43.173  55.190  1.00  0.00     0.029 C 
HETATM   32  C   UNL     1      31.019  44.310  55.910  1.00  0.00     0.029 C 
HETATM   33  C   UNL     1      29.885  45.282  56.173  1.00  0.00     0.235 C 
ENDBRANCH  27  28
ENDBRANCH  24  27
ENDBRANCH  20  21
ENDBRANCH   2  20
TORSDOF 8
ENDMDL
MODEL 7
REMARK VINA RESULT:      -8.7      1.648      2.545
REMARK  8 active torsions:
REMARK  status: ('A' for Active; 'I' for Inactive)
REMARK    1  A    between atoms: C_7  and  C_8 
REMARK    2  A    between atoms: C_8  and  O_9 
REMARK    3  A    between atoms: O_9  and  C_10 
REMARK    4  A    between atoms: C_12  and  C_13 
REMARK       I    between atoms: C_13  and  N_14 
REMARK    5  A    between atoms: N_14  and  C_15 
REMARK    6  A    between atoms: C_15  and  C_16 
REMARK    7  A    between atoms: C_19  and  C_20 
REMARK    8  A    between atoms: C_20  and  N_21 
ROOT
HETATM    1  C   UNL     1      24.858  47.089  50.259  1.00  0.00     0.252 C 
HETATM    2  N   UNL     1      24.035  47.377  49.189  1.00  0.00    -0.353 N 
HETATM    3  O   UNL     1      25.479  47.943  50.880  1.00  0.00    -0.268 OA
HETATM    4  H   UNL     1      23.649  46.630  48.629  1.00  0.00     0.163 HD
ENDROOT
BRANCH   1   5
HETATM    5  C   UNL     1      24.990  45.652  50.623  1.00  0.00     0.034 A 
HETATM    6  C   UNL     1      26.111  45.252  51.360  1.00  0.00     0.053 A 
HETATM    7  C   UNL     1      26.260  43.922  51.761  1.00  0.00     0.070 A 
HETATM    8  C   UNL     1      25.292  42.983  51.404  1.00  0.00     0.037 A 
HETATM    9  C   UNL     1      24.166  43.378  50.678  1.00  0.00     0.004 A 
HETATM   10  C   UNL     1      24.009  44.711  50.293  1.00  0.00     0.017 A 
BRANCH   7  11
HETATM   11  O   UNL     1      27.396  43.660  52.474  1.00  0.00    -0.346 OA
BRANCH  11  12
HETATM   12  C   UNL     1      27.254  43.556  53.895  1.00  0.00     0.219 C 
BRANCH  12  13
HETATM   13  C   UNL     1      28.070  44.596  54.576  1.00  0.00     0.024 A 
HETATM   14  C   UNL     1      29.385  44.492  55.105  1.00  0.00     0.069 A 
HETATM   15  C   UNL     1      30.289  43.319  55.109  1.00  0.00     0.073 C 
HETATM   16  N   UNL     1      29.785  45.644  55.654  1.00  0.00    -0.133 NA
HETATM   17  O   UNL     1      28.734  46.524  55.495  1.00  0.00    -0.217 OA
HETATM   18  C   UNL     1      27.712  45.898  54.857  1.00  0.00     0.085 A 
HETATM   19  C   UNL     1      26.501  46.704  54.605  1.00  0.00     0.079 C 
ENDBRANCH  12  13
ENDBRANCH  11  12
ENDBRANCH   7  11
ENDBRANCH   1   5
BRANCH   2  20
HETATM   20  C   UNL     1      23.755  48.740  48.800  1.00  0.00     0.161 C 
BRANCH  20  21
HETATM   21  C   UNL     1      22.371  49.240  49.155  1.00  0.00    -0.041 A 
HETATM   22  C   UNL     1      22.114  50.535  49.617  1.00  0.00     0.009 A 
HETATM   23  C   UNL     1      20.816  50.931  49.957  1.00  0.00     0.009 A 
HETATM   24  C   UNL     1      19.743  50.036  49.839  1.00  0.00    -0.033 A 
HETATM   25  C   UNL     1      19.991  48.749  49.348  1.00  0.00     0.009 A 
HETATM   26  C   UNL     1      21.288  48.358  49.008  1.00  0.00     0.009 A 
BRANCH  24  27
HETATM   27  C   UNL     1      18.353  50.452  50.235  1.00  0.00     0.273 C 
BRANCH  27  28
HETATM   28  N   UNL     1      17.732  51.428  49.270  1.00  0.00    -0.067 N 
HETATM   29  H   UNL     1      18.510  51.949  48.848  1.00  0.00     0.280 HD
HETATM   30  C   UNL     1      16.811  52.432  49.933  1.00  0.00     0.235 C 
HETATM   31  C   UNL     1      15.443  52.139  49.349  1.00  0.00     0.029 C 
HETATM   32  C   UNL     1      15.761  51.689  47.939  1.00  0.00     0.029 C 
HETATM   33  C   UNL     1      16.958  50.779  48.138  1.00  0.00     0.235 C 
ENDBRANCH  27  28
ENDBRANCH  24  27
ENDBRANCH  20  21
ENDBRANCH   2  20
TORSDOF 8
ENDMDL
MODEL 8
REMARK VINA RESULT:      -8.7      2.622     10.419
REMARK  8 active torsions:
REMARK  status: ('A' for Active; 'I' for Inactive)
REMARK    1  A    between atoms: C_7  and  C_8 
REMARK    2  A    between atoms: C_8  and  O_9 
REMARK    3  A    between atoms: O_9  and  C_10 
REMARK    4  A    between atoms: C_12  and  C_13 
REMARK       I    between atoms: C_13  and  N_14 
REMARK    5  A    between atoms: N_14  and  C_15 
REMARK    6  A    between atoms: C_15  and  C_16 
REMARK    7  A    between atoms: C_19  and  C_20 
REMARK    8  A    between atoms: C_20  and  N_21 
ROOT
HETATM    1  C   UNL     1      26.102  45.746  50.159  1.00  0.00     0.252 C 
HETATM    2  N   UNL     1      27.277  45.024  50.230  1.00  0.00    -0.353 N 
HETATM    3  O   UNL     1      25.008  45.284  50.458  1.00  0.00    -0.268 OA
HETATM    4  H   UNL     1      28.131  45.405  49.849  1.00  0.00     0.163 HD
ENDROOT
BRANCH   1   5
HETATM    5  C   UNL     1      26.214  47.144  49.659  1.00  0.00     0.034 A 
HETATM    6  C   UNL     1      25.052  47.919  49.584  1.00  0.00     0.053 A 
HETATM    7  C   UNL     1      25.111  49.249  49.161  1.00  0.00     0.070 A 
HETATM    8  C   UNL     1      26.338  49.800  48.790  1.00  0.00     0.037 A 
HETATM    9  C   UNL     1      27.504  49.033  48.873  1.00  0.00     0.004 A 
HETATM   10  C   UNL     1      27.446  47.710  49.314  1.00  0.00     0.017 A 
BRANCH   7  11
HETATM   11  O   UNL     1      23.909  49.898  49.130  1.00  0.00    -0.346 OA
BRANCH  11  12
HETATM   12  C   UNL     1      23.111  49.718  47.955  1.00  0.00     0.219 C 
BRANCH  12  13
HETATM   13  C   UNL     1      21.725  49.322  48.323  1.00  0.00     0.024 A 
HETATM   14  C   UNL     1      21.187  48.018  48.491  1.00  0.00     0.069 A 
HETATM   15  C   UNL     1      21.869  46.710  48.350  1.00  0.00     0.073 C 
HETATM   16  N   UNL     1      19.890  48.061  48.816  1.00  0.00    -0.133 NA
HETATM   17  O   UNL     1      19.557  49.399  48.865  1.00  0.00    -0.217 OA
HETATM   18  C   UNL     1      20.649  50.149  48.566  1.00  0.00     0.085 A 
HETATM   19  C   UNL     1      20.465  51.613  48.575  1.00  0.00     0.079 C 
ENDBRANCH  12  13
ENDBRANCH  11  12
ENDBRANCH   7  11
ENDBRANCH   1   5
BRANCH   2  20
HETATM   20  C   UNL     1      27.309  43.691  50.784  1.00  0.00     0.161 C 
BRANCH  20  21
HETATM   21  C   UNL     1      28.084  43.550  52.077  1.00  0.00    -0.041 A 
HETATM   22  C   UNL     1      27.768  44.252  53.246  1.00  0.00     0.009 A 
HETATM   23  C   UNL     1      28.538  44.101  54.404  1.00  0.00     0.009 A 
HETATM   24  C   UNL     1      29.645  43.239  54.417  1.00  0.00    -0.033 A 
HETATM   25  C   UNL     1      29.946  42.512  53.260  1.00  0.00     0.009 A 
HETATM   26  C   UNL     1      29.172  42.664  52.106  1.00  0.00     0.009 A 
BRANCH  24  27
HETATM   27  C   UNL     1      30.492  43.102  55.652  1.00  0.00     0.273 C 
BRANCH  27  28
HETATM   28  N   UNL     1      30.930  44.428  56.217  1.00  0.00    -0.067 N 
HETATM   29  H   UNL     1      31.604  44.817  55.546  1.00  0.00     0.280 HD
HETATM   30  C   UNL     1      31.629  44.315  57.557  1.00  0.00     0.235 C 
HETATM   31  C   UNL     1      30.723  45.052  58.522  1.00  0.00     0.029 C 
HETATM   32  C   UNL     1      30.137  46.156  57.668  1.00  0.00     0.029 C 
HETATM   33  C   UNL     1      29.812  45.441  56.371  1.00  0.00     0.235 C 
ENDBRANCH  27  28
ENDBRANCH  24  27
ENDBRANCH  20  21
ENDBRANCH   2  20
TORSDOF 8
ENDMDL
MODEL 9
REMARK VINA RESULT:      -8.7      3.883     11.239
REMARK  8 active torsions:
REMARK  status: ('A' for Active; 'I' for Inactive)
REMARK    1  A    between atoms: C_7  and  C_8 
REMARK    2  A    between atoms: C_8  and  O_9 
REMARK    3  A    between atoms: O_9  and  C_10 
REMARK    4  A    between atoms: C_12  and  C_13 
REMARK       I    between atoms: C_13  and  N_14 
REMARK    5  A    between atoms: N_14  and  C_15 
REMARK    6  A    between atoms: C_15  and  C_16 
REMARK    7  A    between atoms: C_19  and  C_20 
REMARK    8  A    between atoms: C_20  and  N_21 
ROOT
HETATM    1  C   UNL     1      22.041  48.001  48.590  1.00  0.00     0.252 C 
HETATM    2  N   UNL     1      22.890  48.104  49.673  1.00  0.00    -0.353 N 
HETATM    3  O   UNL     1      22.433  47.906  47.433  1.00  0.00    -0.268 OA
HETATM    4  H   UNL     1      22.522  48.312  50.589  1.00  0.00     0.163 HD
ENDROOT
BRANCH   1   5
HETATM    5  C   UNL     1      20.583  48.042  48.887  1.00  0.00     0.034 A 
HETATM    6  C   UNL     1      20.073  49.153  49.568  1.00  0.00     0.053 A 
HETATM    7  C   UNL     1      18.706  49.258  49.834  1.00  0.00     0.070 A 
HETATM    8  C   UNL     1      17.847  48.234  49.435  1.00  0.00     0.037 A 
HETATM    9  C   UNL     1      18.348  47.127  48.744  1.00  0.00     0.004 A 
HETATM   10  C   UNL     1      19.712  47.032  48.463  1.00  0.00     0.017 A 
BRANCH   7  11
HETATM   11  O   UNL     1      18.335  50.388  50.506  1.00  0.00    -0.346 OA
BRANCH  11  12
HETATM   12  C   UNL     1      18.583  51.636  49.850  1.00  0.00     0.219 C 
BRANCH  12  13
HETATM   13  C   UNL     1      17.515  51.922  48.854  1.00  0.00     0.024 A 
HETATM   14  C   UNL     1      17.499  51.644  47.461  1.00  0.00     0.069 A 
HETATM   15  C   UNL     1      18.542  50.988  46.637  1.00  0.00     0.073 C 
HETATM   16  N   UNL     1      16.363  52.059  46.891  1.00  0.00    -0.133 NA
HETATM   17  O   UNL     1      15.615  52.620  47.905  1.00  0.00    -0.217 OA
HETATM   18  C   UNL     1      16.303  52.542  49.073  1.00  0.00     0.085 A 
HETATM   19  C   UNL     1      15.640  53.100  50.267  1.00  0.00     0.079 C 
ENDBRANCH  12  13
ENDBRANCH  11  12
ENDBRANCH   7  11
ENDBRANCH   1   5
BRANCH   2  20
HETATM   20  C   UNL     1      24.322  47.986  49.521  1.00  0.00     0.161 C 
BRANCH  20  21
HETATM   21  C   UNL     1      24.971  46.906  50.361  1.00  0.00    -0.041 A 
HETATM   22  C   UNL     1      25.336  47.085  51.700  1.00  0.00     0.009 A 
HETATM   23  C   UNL     1      25.959  46.057  52.416  1.00  0.00     0.009 A 
HETATM   24  C   UNL     1      26.228  44.823  51.807  1.00  0.00    -0.033 A 
HETATM   25  C   UNL     1      25.836  44.630  50.477  1.00  0.00     0.009 A 
HETATM   26  C   UNL     1      25.213  45.658  49.765  1.00  0.00     0.009 A 
BRANCH  24  27
HETATM   27  C   UNL     1      26.926  43.730  52.568  1.00  0.00     0.273 C 
BRANCH  27  28
HETATM   28  N   UNL     1      28.289  44.136  53.064  1.00  0.00    -0.067 N 
HETATM   29  H   UNL     1      28.426  45.109  52.764  1.00  0.00     0.280 HD
HETATM   30  C   UNL     1      29.418  43.311  52.478  1.00  0.00     0.235 C 
HETATM   31  C   UNL     1      30.024  42.595  53.669  1.00  0.00     0.029 C 
HETATM   32  C   UNL     1      29.849  43.592  54.794  1.00  0.00     0.029 C 
HETATM   33  C   UNL     1      28.439  44.105  54.573  1.00  0.00     0.235 C 
ENDBRANCH  27  28
ENDBRANCH  24  27
ENDBRANCH  20  21
ENDBRANCH   2  20
TORSDOF 8
ENDMDL
MODEL 10
REMARK VINA RESULT:      -8.7      2.655      5.063
REMARK  8 active torsions:
REMARK  status: ('A' for Active; 'I' for Inactive)
REMARK    1  A    between atoms: C_7  and  C_8 
REMARK    2  A    between atoms: C_8  and  O_9 
REMARK    3  A    between atoms: O_9  and  C_10 
REMARK    4  A    between atoms: C_12  and  C_13 
REMARK       I    between atoms: C_13  and  N_14 
REMARK    5  A    between atoms: N_14  and  C_15 
REMARK    6  A    between atoms: C_15  and  C_16 
REMARK    7  A    between atoms: C_19  and  C_20 
REMARK    8  A    between atoms: C_20  and  N_21 
ROOT
HETATM    1  C   UNL     1      22.426  48.241  48.431  1.00  0.00     0.252 C 
HETATM    2  N   UNL     1      21.506  48.503  49.427  1.00  0.00    -0.353 N 
HETATM    3  O   UNL     1      22.121  47.786  47.335  1.00  0.00    -0.268 OA
HETATM    4  H   UNL     1      21.819  48.752  50.354  1.00  0.00     0.163 HD
ENDROOT
BRANCH   1   5
HETATM    5  C   UNL     1      23.852  48.515  48.759  1.00  0.00     0.034 A 
HETATM    6  C   UNL     1      24.494  47.680  49.681  1.00  0.00     0.053 A 
HETATM    7  C   UNL     1      25.843  47.870  49.991  1.00  0.00     0.070 A 
HETATM    8  C   UNL     1      26.547  48.915  49.391  1.00  0.00     0.037 A 
HETATM    9  C   UNL     1      25.913  49.745  48.462  1.00  0.00     0.004 A 
HETATM   10  C   UNL     1      24.571  49.542  48.139  1.00  0.00     0.017 A 
BRANCH   7  11
HETATM   11  O   UNL     1      26.353  46.992  50.905  1.00  0.00    -0.346 OA
BRANCH  11  12
HETATM   12  C   UNL     1      25.758  47.001  52.207  1.00  0.00     0.219 C 
BRANCH  12  13
HETATM   13  C   UNL     1      26.266  45.863  53.019  1.00  0.00     0.024 A 
HETATM   14  C   UNL     1      26.001  44.475  52.869  1.00  0.00     0.069 A 
HETATM   15  C   UNL     1      25.153  43.798  51.860  1.00  0.00     0.073 C 
HETATM   16  N   UNL     1      26.634  43.752  53.800  1.00  0.00    -0.133 NA
HETATM   17  O   UNL     1      27.324  44.659  54.578  1.00  0.00    -0.217 OA
HETATM   18  C   UNL     1      27.101  45.915  54.114  1.00  0.00     0.085 A 
HETATM   19  C   UNL     1      27.772  47.013  54.838  1.00  0.00     0.079 C 
ENDBRANCH  12  13
ENDBRANCH  11  12
ENDBRANCH   7  11
ENDBRANCH   1   5
BRANCH   2  20
HETATM   20  C   UNL     1      20.087  48.364  49.197  1.00  0.00     0.161 C 
BRANCH  20  21
HETATM   21  C   UNL     1      19.282  49.636  49.358  1.00  0.00    -0.041 A 
HETATM   22  C   UNL     1      19.850  50.872  49.688  1.00  0.00     0.009 A 
HETATM   23  C   UNL     1      19.049  52.008  49.850  1.00  0.00     0.009 A 
HETATM   24  C   UNL     1      17.659  51.932  49.684  1.00  0.00    -0.033 A 
HETATM   25  C   UNL     1      17.091  50.704  49.324  1.00  0.00     0.009 A 
HETATM   26  C   UNL     1      17.893  49.573  49.160  1.00  0.00     0.009 A 
BRANCH  24  27
HETATM   27  C   UNL     1      16.797  53.146  49.891  1.00  0.00     0.273 C 
BRANCH  27  28
HETATM   28  N   UNL     1      15.329  52.866  49.700  1.00  0.00    -0.067 N 
HETATM   29  H   UNL     1      15.234  51.843  49.664  1.00  0.00     0.280 HD
HETATM   30  C   UNL     1      14.768  53.426  48.409  1.00  0.00     0.235 C 
HETATM   31  C   UNL     1      13.747  54.455  48.852  1.00  0.00     0.029 C 
HETATM   32  C   UNL     1      13.199  53.865  50.134  1.00  0.00     0.029 C 
HETATM   33  C   UNL     1      14.447  53.360  50.831  1.00  0.00     0.235 C 
ENDBRANCH  27  28
ENDBRANCH  24  27
ENDBRANCH  20  21
ENDBRANCH   2  20
TORSDOF 8
ENDMDL
