MODEL 1
REMARK VINA RESULT:      -9.5      0.000      0.000
REMARK  6 active torsions:
REMARK  status: ('A' for Active; 'I' for Inactive)
REMARK    1  A    between atoms: C_4  and  C_5 
REMARK    2  A    between atoms: C_5  and  N_6 
REMARK    3  A    between atoms: C_8  and  C_9 
REMARK       I    between atoms: C_9  and  N_10 
REMARK    4  A    between atoms: N_13  and  C_15 
REMARK    5  A    between atoms: C_29  and  S_30 
REMARK    6  A    between atoms: S_30  and  C_31 
ROOT
HETATM    1  N   UNL     1      26.065  45.988  51.685  1.00  0.00    -0.053 N 
HETATM    2  H   UNL     1      26.843  46.066  51.016  1.00  0.00     0.281 HD
HETATM    3  C   UNL     1      25.817  44.462  51.827  1.00  0.00     0.281 C 
HETATM    4  C   UNL     1      25.563  44.324  53.324  1.00  0.00     0.060 C 
HETATM    5  C   UNL     1      26.618  45.230  53.950  1.00  0.00     0.083 C 
HETATM    6  C   UNL     1      26.601  46.464  53.044  1.00  0.00     0.252 C 
ENDROOT
BRANCH   3   7
HETATM    7  C   UNL     1      24.792  43.760  50.911  1.00  0.00     0.251 C 
HETATM    8  N   UNL     1      25.246  42.979  49.850  1.00  0.00    -0.347 N 
HETATM    9  C   UNL     1      24.270  42.202  49.079  1.00  0.00     0.153 C 
HETATM   10  C   UNL     1      26.536  43.102  49.165  1.00  0.00     0.153 C 
HETATM   11  C   UNL     1      24.786  40.779  48.806  1.00  0.00     0.255 C 
HETATM   12  N   UNL     1      26.184  40.770  48.159  1.00  0.00    -0.063 N 
HETATM   13  H   UNL     1      26.069  41.109  47.195  1.00  0.00     0.280 HD
HETATM   14  C   UNL     1      27.155  41.723  48.875  1.00  0.00     0.255 C 
HETATM   15  O   UNL     1      23.585  43.895  51.101  1.00  0.00    -0.271 OA
BRANCH  12  16
HETATM   16  C   UNL     1      26.765  39.331  48.096  1.00  0.00     0.196 C 
HETATM   17  C   UNL     1      25.822  38.347  47.352  1.00  0.00     0.017 C 
HETATM   18  C   UNL     1      25.713  38.708  45.859  1.00  0.00     0.011 C 
HETATM   19  C   UNL     1      26.409  36.925  47.476  1.00  0.00     0.011 C 
HETATM   20  C   UNL     1      27.101  38.660  45.201  1.00  0.00    -0.013 C 
HETATM   21  C   UNL     1      28.037  39.654  45.909  1.00  0.00     0.011 C 
HETATM   22  C   UNL     1      27.677  37.240  45.339  1.00  0.00     0.009 C 
HETATM   23  C   UNL     1      28.155  39.299  47.404  1.00  0.00     0.017 C 
HETATM   24  C   UNL     1      28.726  37.870  47.525  1.00  0.00     0.011 C 
HETATM   25  C   UNL     1      27.800  36.864  46.826  1.00  0.00    -0.013 C 
ENDBRANCH  12  16
ENDBRANCH   3   7
BRANCH   1  26
HETATM   26  C   UNL     1      25.010  46.914  51.089  1.00  0.00     0.274 C 
BRANCH  26  27
HETATM   27  C   UNL     1      25.448  47.914  50.045  1.00  0.00    -0.033 A 
HETATM   28  C   UNL     1      24.484  48.645  49.323  1.00  0.00     0.009 A 
HETATM   29  C   UNL     1      24.861  49.593  48.371  1.00  0.00     0.001 A 
HETATM   30  C   UNL     1      26.208  49.844  48.136  1.00  0.00     0.000 A 
HETATM   31  C   UNL     1      27.176  49.154  48.859  1.00  0.00     0.001 A 
HETATM   32  C   UNL     1      26.799  48.198  49.808  1.00  0.00     0.009 A 
ENDBRANCH  26  27
ENDBRANCH   1  26
BRANCH   5  33
HETATM   33  S   UNL     1      28.249  44.387  53.937  1.00  0.00    -0.084 SA
BRANCH  33  34
HETATM   34  C   UNL     1      28.911  44.980  55.479  1.00  0.00     0.188 A 
HETATM   35  N   UNL     1      28.170  45.847  56.190  1.00  0.00    -0.235 NA
HETATM   36  C   UNL     1      28.709  46.264  57.353  1.00  0.00     0.121 A 
HETATM   37  C   UNL     1      29.958  45.889  57.789  1.00  0.00     0.038 A 
HETATM   38  C   UNL     1      30.646  45.039  56.956  1.00  0.00     0.121 A 
HETATM   39  N   UNL     1      30.148  44.578  55.791  1.00  0.00    -0.235 NA
ENDBRANCH  33  34
ENDBRANCH   5  33
TORSDOF 6
ENDMDL
MODEL 2
REMARK VINA RESULT:      -9.4      4.193      9.956
REMARK  6 active torsions:
REMARK  status: ('A' for Active; 'I' for Inactive)
REMARK    1  A    between atoms: C_4  and  C_5 
REMARK    2  A    between atoms: C_5  and  N_6 
REMARK    3  A    between atoms: C_8  and  C_9 
REMARK       I    between atoms: C_9  and  N_10 
REMARK    4  A    between atoms: N_13  and  C_15 
REMARK    5  A    between atoms: C_29  and  S_30 
REMARK    6  A    between atoms: S_30  and  C_31 
ROOT
HETATM    1  N   UNL     1      25.315  45.429  51.291  1.00  0.00    -0.053 N 
HETATM    2  H   UNL     1      26.314  45.260  51.115  1.00  0.00     0.281 HD
HETATM    3  C   UNL     1      24.782  46.064  49.979  1.00  0.00     0.281 C 
HETATM    4  C   UNL     1      23.429  45.379  49.826  1.00  0.00     0.060 C 
HETATM    5  C   UNL     1      23.721  43.927  50.189  1.00  0.00     0.083 C 
HETATM    6  C   UNL     1      24.647  44.049  51.403  1.00  0.00     0.252 C 
ENDROOT
BRANCH   3   7
HETATM    7  C   UNL     1      24.773  47.599  49.817  1.00  0.00     0.251 C 
HETATM    8  N   UNL     1      23.683  48.214  49.204  1.00  0.00    -0.347 N 
HETATM    9  C   UNL     1      23.618  49.680  49.188  1.00  0.00     0.153 C 
HETATM   10  C   UNL     1      22.755  47.599  48.252  1.00  0.00     0.153 C 
HETATM   11  C   UNL     1      22.205  50.176  49.534  1.00  0.00     0.255 C 
HETATM   12  N   UNL     1      21.118  49.533  48.651  1.00  0.00    -0.063 N 
HETATM   13  H   UNL     1      21.225  49.931  47.709  1.00  0.00     0.280 HD
HETATM   14  C   UNL     1      21.299  48.010  48.536  1.00  0.00     0.255 C 
HETATM   15  O   UNL     1      25.720  48.278  50.209  1.00  0.00    -0.271 OA
BRANCH  12  16
HETATM   16  C   UNL     1      19.696  49.886  49.164  1.00  0.00     0.196 C 
HETATM   17  C   UNL     1      19.527  51.405  49.434  1.00  0.00     0.017 C 
HETATM   18  C   UNL     1      19.598  52.212  48.123  1.00  0.00     0.011 C 
HETATM   19  C   UNL     1      18.144  51.633  50.080  1.00  0.00     0.011 C 
HETATM   20  C   UNL     1      18.493  51.752  47.159  1.00  0.00    -0.013 C 
HETATM   21  C   UNL     1      18.667  50.254  46.858  1.00  0.00     0.011 C 
HETATM   22  C   UNL     1      17.121  51.977  47.820  1.00  0.00     0.009 C 
HETATM   23  C   UNL     1      18.594  49.439  48.163  1.00  0.00     0.017 C 
HETATM   24  C   UNL     1      17.217  49.681  48.817  1.00  0.00     0.011 C 
HETATM   25  C   UNL     1      17.029  51.173  49.128  1.00  0.00    -0.013 C 
ENDBRANCH  12  16
ENDBRANCH   3   7
BRANCH   1  26
HETATM   26  C   UNL     1      25.330  46.205  52.604  1.00  0.00     0.274 C 
BRANCH  26  27
HETATM   27  C   UNL     1      26.564  46.118  53.470  1.00  0.00    -0.033 A 
HETATM   28  C   UNL     1      26.937  47.211  54.276  1.00  0.00     0.009 A 
HETATM   29  C   UNL     1      28.058  47.149  55.105  1.00  0.00     0.001 A 
HETATM   30  C   UNL     1      28.818  45.986  55.159  1.00  0.00     0.000 A 
HETATM   31  C   UNL     1      28.450  44.884  54.392  1.00  0.00     0.001 A 
HETATM   32  C   UNL     1      27.331  44.948  53.556  1.00  0.00     0.009 A 
ENDBRANCH  26  27
ENDBRANCH   1  26
BRANCH   5  33
HETATM   33  S   UNL     1      24.541  43.087  48.778  1.00  0.00    -0.084 SA
BRANCH  33  34
HETATM   34  C   UNL     1      25.788  42.166  49.654  1.00  0.00     0.188 A 
HETATM   35  N   UNL     1      26.955  42.779  49.915  1.00  0.00    -0.235 NA
HETATM   36  C   UNL     1      27.867  42.046  50.586  1.00  0.00     0.121 A 
HETATM   37  C   UNL     1      27.668  40.734  50.947  1.00  0.00     0.038 A 
HETATM   38  C   UNL     1      26.457  40.195  50.584  1.00  0.00     0.121 A 
HETATM   39  N   UNL     1      25.504  40.889  49.929  1.00  0.00    -0.235 NA
ENDBRANCH  33  34
ENDBRANCH   5  33
TORSDOF 6
ENDMDL
MODEL 3
REMARK VINA RESULT:      -9.2      2.495      6.241
REMARK  6 active torsions:
REMARK  status: ('A' for Active; 'I' for Inactive)
REMARK    1  A    between atoms: C_4  and  C_5 
REMARK    2  A    between atoms: C_5  and  N_6 
REMARK    3  A    between atoms: C_8  and  C_9 
REMARK       I    between atoms: C_9  and  N_10 
REMARK    4  A    between atoms: N_13  and  C_15 
REMARK    5  A    between atoms: C_29  and  S_30 
REMARK    6  A    between atoms: S_30  and  C_31 
ROOT
HETATM    1  N   UNL     1      28.223  43.772  53.879  1.00  0.00    -0.053 N 
HETATM    2  H   UNL     1      27.811  43.377  54.735  1.00  0.00     0.281 HD
HETATM    3  C   UNL     1      27.566  42.977  52.719  1.00  0.00     0.281 C 
HETATM    4  C   UNL     1      27.314  44.074  51.691  1.00  0.00     0.060 C 
HETATM    5  C   UNL     1      26.793  45.236  52.530  1.00  0.00     0.083 C 
HETATM    6  C   UNL     1      27.701  45.213  53.762  1.00  0.00     0.252 C 
ENDROOT
BRANCH   3   7
HETATM    7  C   UNL     1      28.248  41.703  52.178  1.00  0.00     0.251 C 
HETATM    8  N   UNL     1      27.710  41.061  51.064  1.00  0.00    -0.347 N 
HETATM    9  C   UNL     1      28.449  39.939  50.472  1.00  0.00     0.153 C 
HETATM   10  C   UNL     1      26.320  41.124  50.606  1.00  0.00     0.153 C 
HETATM   11  C   UNL     1      28.471  40.039  48.938  1.00  0.00     0.255 C 
HETATM   12  N   UNL     1      27.063  40.196  48.334  1.00  0.00    -0.063 N 
HETATM   13  H   UNL     1      26.585  39.293  48.450  1.00  0.00     0.280 HD
HETATM   14  C   UNL     1      26.235  41.259  49.075  1.00  0.00     0.255 C 
HETATM   15  O   UNL     1      29.247  41.243  52.728  1.00  0.00    -0.271 OA
BRANCH  12  16
HETATM   16  C   UNL     1      27.135  40.510  46.814  1.00  0.00     0.196 C 
HETATM   17  C   UNL     1      27.991  39.472  46.039  1.00  0.00     0.017 C 
HETATM   18  C   UNL     1      27.319  38.087  46.043  1.00  0.00     0.011 C 
HETATM   19  C   UNL     1      28.128  39.951  44.578  1.00  0.00     0.011 C 
HETATM   20  C   UNL     1      25.929  38.171  45.391  1.00  0.00    -0.013 C 
HETATM   21  C   UNL     1      25.060  39.173  46.170  1.00  0.00     0.011 C 
HETATM   22  C   UNL     1      26.081  38.658  43.939  1.00  0.00     0.009 C 
HETATM   23  C   UNL     1      25.723  40.563  46.169  1.00  0.00     0.017 C 
HETATM   24  C   UNL     1      25.875  41.033  44.706  1.00  0.00     0.011 C 
HETATM   25  C   UNL     1      26.745  40.044  43.916  1.00  0.00    -0.013 C 
ENDBRANCH  12  16
ENDBRANCH   3   7
BRANCH   1  26
HETATM   26  C   UNL     1      29.721  43.689  54.155  1.00  0.00     0.274 C 
BRANCH  26  27
HETATM   27  C   UNL     1      30.214  44.053  55.536  1.00  0.00    -0.033 A 
HETATM   28  C   UNL     1      31.149  43.228  56.189  1.00  0.00     0.009 A 
HETATM   29  C   UNL     1      31.640  43.554  57.455  1.00  0.00     0.001 A 
HETATM   30  C   UNL     1      31.221  44.722  58.082  1.00  0.00     0.000 A 
HETATM   31  C   UNL     1      30.320  45.567  57.440  1.00  0.00     0.001 A 
HETATM   32  C   UNL     1      29.821  45.236  56.176  1.00  0.00     0.009 A 
ENDBRANCH  26  27
ENDBRANCH   1  26
BRANCH   5  33
HETATM   33  S   UNL     1      25.033  44.949  52.964  1.00  0.00    -0.084 SA
BRANCH  33  34
HETATM   34  C   UNL     1      24.341  44.773  51.333  1.00  0.00     0.188 A 
HETATM   35  N   UNL     1      24.417  45.825  50.501  1.00  0.00    -0.235 NA
HETATM   36  C   UNL     1      23.885  45.644  49.275  1.00  0.00     0.121 A 
HETATM   37  C   UNL     1      23.250  44.488  48.887  1.00  0.00     0.038 A 
HETATM   38  C   UNL     1      23.187  43.497  49.838  1.00  0.00     0.121 A 
HETATM   39  N   UNL     1      23.717  43.619  51.071  1.00  0.00    -0.235 NA
ENDBRANCH  33  34
ENDBRANCH   5  33
TORSDOF 6
ENDMDL
MODEL 4
REMARK VINA RESULT:      -9.1      5.167     11.283
REMARK  6 active torsions:
REMARK  status: ('A' for Active; 'I' for Inactive)
REMARK    1  A    between atoms: C_4  and  C_5 
REMARK    2  A    between atoms: C_5  and  N_6 
REMARK    3  A    between atoms: C_8  and  C_9 
REMARK       I    between atoms: C_9  and  N_10 
REMARK    4  A    between atoms: N_13  and  C_15 
REMARK    5  A    between atoms: C_29  and  S_30 
REMARK    6  A    between atoms: S_30  and  C_31 
ROOT
HETATM    1  N   UNL     1      24.711  45.159  50.376  1.00  0.00    -0.053 N 
HETATM    2  H   UNL     1      25.660  45.076  49.989  1.00  0.00     0.281 HD
HETATM    3  C   UNL     1      23.961  46.093  49.388  1.00  0.00     0.281 C 
HETATM    4  C   UNL     1      22.593  45.425  49.301  1.00  0.00     0.060 C 
HETATM    5  C   UNL     1      22.927  43.939  49.217  1.00  0.00     0.083 C 
HETATM    6  C   UNL     1      24.056  43.776  50.239  1.00  0.00     0.252 C 
ENDROOT
BRANCH   3   7
HETATM    7  C   UNL     1      23.942  47.616  49.635  1.00  0.00     0.251 C 
HETATM    8  N   UNL     1      22.935  48.389  49.060  1.00  0.00    -0.347 N 
HETATM    9  C   UNL     1      22.843  49.809  49.420  1.00  0.00     0.153 C 
HETATM   10  C   UNL     1      22.161  48.061  47.860  1.00  0.00     0.153 C 
HETATM   11  C   UNL     1      21.385  50.219  49.684  1.00  0.00     0.255 C 
HETATM   12  N   UNL     1      20.445  49.849  48.521  1.00  0.00    -0.063 N 
HETATM   13  H   UNL     1      20.673  50.479  47.741  1.00  0.00     0.280 HD
HETATM   14  C   UNL     1      20.671  48.407  48.036  1.00  0.00     0.255 C 
HETATM   15  O   UNL     1      24.811  48.152  50.320  1.00  0.00    -0.271 OA
BRANCH  12  16
HETATM   16  C   UNL     1      18.958  50.078  48.905  1.00  0.00     0.196 C 
HETATM   17  C   UNL     1      18.673  51.550  49.307  1.00  0.00     0.017 C 
HETATM   18  C   UNL     1      18.836  52.494  48.101  1.00  0.00     0.011 C 
HETATM   19  C   UNL     1      17.219  51.642  49.814  1.00  0.00     0.011 C 
HETATM   20  C   UNL     1      17.867  52.089  46.978  1.00  0.00    -0.013 C 
HETATM   21  C   UNL     1      18.160  50.642  46.548  1.00  0.00     0.011 C 
HETATM   22  C   UNL     1      16.422  52.177  47.501  1.00  0.00     0.009 C 
HETATM   23  C   UNL     1      17.997  49.689  47.748  1.00  0.00     0.017 C 
HETATM   24  C   UNL     1      16.546  49.795  48.265  1.00  0.00     0.011 C 
HETATM   25  C   UNL     1      16.239  51.235  48.702  1.00  0.00    -0.013 C 
ENDBRANCH  12  16
ENDBRANCH   3   7
BRANCH   1  26
HETATM   26  C   UNL     1      24.968  45.570  51.821  1.00  0.00     0.274 C 
BRANCH  26  27
HETATM   27  C   UNL     1      25.997  44.795  52.611  1.00  0.00    -0.033 A 
HETATM   28  C   UNL     1      25.704  44.369  53.921  1.00  0.00     0.009 A 
HETATM   29  C   UNL     1      26.627  43.631  54.664  1.00  0.00     0.001 A 
HETATM   30  C   UNL     1      27.853  43.287  54.104  1.00  0.00     0.000 A 
HETATM   31  C   UNL     1      28.150  43.673  52.801  1.00  0.00     0.001 A 
HETATM   32  C   UNL     1      27.228  44.420  52.059  1.00  0.00     0.009 A 
ENDBRANCH  26  27
ENDBRANCH   1  26
BRANCH   5  33
HETATM   33  S   UNL     1      23.473  43.520  47.515  1.00  0.00    -0.084 SA
BRANCH  33  34
HETATM   34  C   UNL     1      22.111  44.190  46.585  1.00  0.00     0.188 A 
HETATM   35  N   UNL     1      22.365  45.205  45.742  1.00  0.00    -0.235 NA
HETATM   36  C   UNL     1      21.304  45.677  45.054  1.00  0.00     0.121 A 
HETATM   37  C   UNL     1      20.022  45.208  45.222  1.00  0.00     0.038 A 
HETATM   38  C   UNL     1      19.874  44.203  46.148  1.00  0.00     0.121 A 
HETATM   39  N   UNL     1      20.902  43.684  46.849  1.00  0.00    -0.235 NA
ENDBRANCH  33  34
ENDBRANCH   5  33
TORSDOF 6
ENDMDL
MODEL 5
REMARK VINA RESULT:      -8.8      2.158      5.666
REMARK  6 active torsions:
REMARK  status: ('A' for Active; 'I' for Inactive)
REMARK    1  A    between atoms: C_4  and  C_5 
REMARK    2  A    between atoms: C_5  and  N_6 
REMARK    3  A    between atoms: C_8  and  C_9 
REMARK       I    between atoms: C_9  and  N_10 
REMARK    4  A    between atoms: N_13  and  C_15 
REMARK    5  A    between atoms: C_29  and  S_30 
REMARK    6  A    between atoms: S_30  and  C_31 
ROOT
HETATM    1  N   UNL     1      26.231  43.714  52.988  1.00  0.00    -0.053 N 
HETATM    2  H   UNL     1      25.321  43.235  52.958  1.00  0.00     0.281 HD
HETATM    3  C   UNL     1      26.871  43.437  51.601  1.00  0.00     0.281 C 
HETATM    4  C   UNL     1      27.502  44.786  51.272  1.00  0.00     0.060 C 
HETATM    5  C   UNL     1      26.438  45.791  51.702  1.00  0.00     0.083 C 
HETATM    6  C   UNL     1      25.935  45.221  53.031  1.00  0.00     0.252 C 
ENDROOT
BRANCH   3   7
HETATM    7  C   UNL     1      27.787  42.210  51.408  1.00  0.00     0.251 C 
HETATM    8  N   UNL     1      27.345  41.143  50.628  1.00  0.00    -0.347 N 
HETATM    9  C   UNL     1      28.280  40.051  50.332  1.00  0.00     0.153 C 
HETATM   10  C   UNL     1      25.953  40.783  50.351  1.00  0.00     0.153 C 
HETATM   11  C   UNL     1      28.196  39.635  48.855  1.00  0.00     0.255 C 
HETATM   12  N   UNL     1      26.757  39.310  48.412  1.00  0.00    -0.063 N 
HETATM   13  H   UNL     1      26.498  38.423  48.865  1.00  0.00     0.280 HD
HETATM   14  C   UNL     1      25.756  40.380  48.878  1.00  0.00     0.255 C 
HETATM   15  O   UNL     1      28.892  42.161  51.945  1.00  0.00    -0.271 OA
BRANCH  12  16
HETATM   16  C   UNL     1      26.674  39.105  46.875  1.00  0.00     0.196 C 
HETATM   17  C   UNL     1      27.905  38.344  46.315  1.00  0.00     0.017 C 
HETATM   18  C   UNL     1      27.936  36.891  46.824  1.00  0.00     0.011 C 
HETATM   19  C   UNL     1      27.806  38.326  44.775  1.00  0.00     0.011 C 
HETATM   20  C   UNL     1      26.658  36.153  46.395  1.00  0.00    -0.013 C 
HETATM   21  C   UNL     1      25.431  36.880  46.970  1.00  0.00     0.011 C 
HETATM   22  C   UNL     1      26.568  36.151  44.858  1.00  0.00     0.009 C 
HETATM   23  C   UNL     1      25.390  38.334  46.463  1.00  0.00     0.017 C 
HETATM   24  C   UNL     1      25.308  38.315  44.922  1.00  0.00     0.011 C 
HETATM   25  C   UNL     1      26.530  37.595  44.332  1.00  0.00    -0.013 C 
ENDBRANCH  12  16
ENDBRANCH   3   7
BRANCH   1  26
HETATM   26  C   UNL     1      26.852  43.179  54.274  1.00  0.00     0.274 C 
BRANCH  26  27
HETATM   27  C   UNL     1      28.106  43.844  54.791  1.00  0.00    -0.033 A 
HETATM   28  C   UNL     1      28.045  45.149  55.316  1.00  0.00     0.009 A 
HETATM   29  C   UNL     1      29.183  45.778  55.823  1.00  0.00     0.001 A 
HETATM   30  C   UNL     1      30.401  45.106  55.834  1.00  0.00     0.000 A 
HETATM   31  C   UNL     1      30.477  43.805  55.347  1.00  0.00     0.001 A 
HETATM   32  C   UNL     1      29.338  43.177  54.832  1.00  0.00     0.009 A 
ENDBRANCH  26  27
ENDBRANCH   1  26
BRANCH   5  33
HETATM   33  S   UNL     1      25.109  45.868  50.438  1.00  0.00    -0.084 SA
BRANCH  33  34
HETATM   34  C   UNL     1      25.513  47.420  49.665  1.00  0.00     0.188 A 
HETATM   35  N   UNL     1      24.500  48.214  49.281  1.00  0.00    -0.235 NA
HETATM   36  C   UNL     1      24.853  49.381  48.706  1.00  0.00     0.121 A 
HETATM   37  C   UNL     1      26.158  49.743  48.464  1.00  0.00     0.038 A 
HETATM   38  C   UNL     1      27.109  48.831  48.853  1.00  0.00     0.121 A 
HETATM   39  N   UNL     1      26.811  47.658  49.448  1.00  0.00    -0.235 NA
ENDBRANCH  33  34
ENDBRANCH   5  33
TORSDOF 6
ENDMDL
MODEL 6
REMARK VINA RESULT:      -8.6      8.156     12.135
REMARK  6 active torsions:
REMARK  status: ('A' for Active; 'I' for Inactive)
REMARK    1  A    between atoms: C_4  and  C_5 
REMARK    2  A    between atoms: C_5  and  N_6 
REMARK    3  A    between atoms: C_8  and  C_9 
REMARK       I    between atoms: C_9  and  N_10 
REMARK    4  A    between atoms: N_13  and  C_15 
REMARK    5  A    between atoms: C_29  and  S_30 
REMARK    6  A    between atoms: S_30  and  C_31 
ROOT
HETATM    1  N   UNL     1      20.043  50.215  48.980  1.00  0.00    -0.053 N 
HETATM    2  H   UNL     1      19.931  51.138  48.541  1.00  0.00     0.281 HD
HETATM    3  C   UNL     1      20.366  49.254  47.805  1.00  0.00     0.281 C 
HETATM    4  C   UNL     1      21.444  48.364  48.414  1.00  0.00     0.060 C 
HETATM    5  C   UNL     1      22.327  49.346  49.177  1.00  0.00     0.083 C 
HETATM    6  C   UNL     1      21.315  50.285  49.839  1.00  0.00     0.252 C 
ENDROOT
BRANCH   3   7
HETATM    7  C   UNL     1      19.223  48.512  47.082  1.00  0.00     0.251 C 
HETATM    8  N   UNL     1      18.619  49.102  45.973  1.00  0.00    -0.347 N 
HETATM    9  C   UNL     1      17.637  48.325  45.208  1.00  0.00     0.153 C 
HETATM   10  C   UNL     1      18.566  50.533  45.667  1.00  0.00     0.153 C 
HETATM   11  C   UNL     1      17.863  48.483  43.695  1.00  0.00     0.255 C 
HETATM   12  N   UNL     1      17.913  49.958  43.254  1.00  0.00    -0.063 N 
HETATM   13  H   UNL     1      16.956  50.326  43.334  1.00  0.00     0.280 HD
HETATM   14  C   UNL     1      18.814  50.801  44.171  1.00  0.00     0.255 C 
HETATM   15  O   UNL     1      18.833  47.416  47.482  1.00  0.00    -0.271 OA
BRANCH  12  16
HETATM   16  C   UNL     1      18.355  50.087  41.771  1.00  0.00     0.196 C 
HETATM   17  C   UNL     1      17.166  49.926  40.786  1.00  0.00     0.017 C 
HETATM   18  C   UNL     1      16.173  51.095  40.921  1.00  0.00     0.011 C 
HETATM   19  C   UNL     1      17.726  49.915  39.348  1.00  0.00     0.011 C 
HETATM   20  C   UNL     1      16.882  52.427  40.631  1.00  0.00    -0.013 C 
HETATM   21  C   UNL     1      18.044  52.614  41.621  1.00  0.00     0.011 C 
HETATM   22  C   UNL     1      17.442  52.399  39.197  1.00  0.00     0.009 C 
HETATM   23  C   UNL     1      19.045  51.450  41.491  1.00  0.00     0.017 C 
HETATM   24  C   UNL     1      19.590  51.431  40.047  1.00  0.00     0.011 C 
HETATM   25  C   UNL     1      18.442  51.241  39.045  1.00  0.00    -0.013 C 
ENDBRANCH  12  16
ENDBRANCH   3   7
BRANCH   1  26
HETATM   26  C   UNL     1      18.764  50.072  49.798  1.00  0.00     0.274 C 
BRANCH  26  27
HETATM   27  C   UNL     1      17.613  51.001  49.492  1.00  0.00    -0.033 A 
HETATM   28  C   UNL     1      17.631  52.325  49.971  1.00  0.00     0.009 A 
HETATM   29  C   UNL     1      16.593  53.212  49.682  1.00  0.00     0.001 A 
HETATM   30  C   UNL     1      15.526  52.799  48.892  1.00  0.00     0.000 A 
HETATM   31  C   UNL     1      15.504  51.504  48.383  1.00  0.00     0.001 A 
HETATM   32  C   UNL     1      16.540  50.612  48.679  1.00  0.00     0.009 A 
ENDBRANCH  26  27
ENDBRANCH   1  26
BRANCH   5  33
HETATM   33  S   UNL     1      23.427  50.233  48.005  1.00  0.00    -0.084 SA
BRANCH  33  34
HETATM   34  C   UNL     1      25.006  49.601  48.531  1.00  0.00     0.188 A 
HETATM   35  N   UNL     1      25.016  48.605  49.432  1.00  0.00    -0.235 NA
HETATM   36  C   UNL     1      26.234  48.154  49.797  1.00  0.00     0.121 A 
HETATM   37  C   UNL     1      27.412  48.694  49.336  1.00  0.00     0.038 A 
HETATM   38  C   UNL     1      27.280  49.743  48.457  1.00  0.00     0.121 A 
HETATM   39  N   UNL     1      26.088  50.220  48.047  1.00  0.00    -0.235 NA
ENDBRANCH  33  34
ENDBRANCH   5  33
TORSDOF 6
ENDMDL
MODEL 7
REMARK VINA RESULT:      -8.6      4.784     11.007
REMARK  6 active torsions:
REMARK  status: ('A' for Active; 'I' for Inactive)
REMARK    1  A    between atoms: C_4  and  C_5 
REMARK    2  A    between atoms: C_5  and  N_6 
REMARK    3  A    between atoms: C_8  and  C_9 
REMARK       I    between atoms: C_9  and  N_10 
REMARK    4  A    between atoms: N_13  and  C_15 
REMARK    5  A    between atoms: C_29  and  S_30 
REMARK    6  A    between atoms: S_30  and  C_31 
ROOT
HETATM    1  N   UNL     1      25.461  45.444  49.222  1.00  0.00    -0.053 N 
HETATM    2  H   UNL     1      25.990  45.611  48.356  1.00  0.00     0.281 HD
HETATM    3  C   UNL     1      24.146  46.249  49.046  1.00  0.00     0.281 C 
HETATM    4  C   UNL     1      23.111  45.290  49.624  1.00  0.00     0.060 C 
HETATM    5  C   UNL     1      23.535  43.933  49.074  1.00  0.00     0.083 C 
HETATM    6  C   UNL     1      25.060  43.960  49.214  1.00  0.00     0.252 C 
ENDROOT
BRANCH   3   7
HETATM    7  C   UNL     1      24.061  47.703  49.554  1.00  0.00     0.251 C 
HETATM    8  N   UNL     1      23.063  48.542  49.061  1.00  0.00    -0.347 N 
HETATM    9  C   UNL     1      22.902  49.873  49.658  1.00  0.00     0.153 C 
HETATM   10  C   UNL     1      22.371  48.414  47.776  1.00  0.00     0.153 C 
HETATM   11  C   UNL     1      21.418  50.197  49.898  1.00  0.00     0.255 C 
HETATM   12  N   UNL     1      20.560  50.016  48.631  1.00  0.00    -0.063 N 
HETATM   13  H   UNL     1      20.811  50.779  47.989  1.00  0.00     0.280 HD
HETATM   14  C   UNL     1      20.862  48.689  47.917  1.00  0.00     0.255 C 
HETATM   15  O   UNL     1      24.870  48.130  50.375  1.00  0.00    -0.271 OA
BRANCH  12  16
HETATM   16  C   UNL     1      19.046  50.139  48.956  1.00  0.00     0.196 C 
HETATM   17  C   UNL     1      18.649  51.579  49.377  1.00  0.00     0.017 C 
HETATM   18  C   UNL     1      18.799  52.561  48.200  1.00  0.00     0.011 C 
HETATM   19  C   UNL     1      17.172  51.564  49.823  1.00  0.00     0.011 C 
HETATM   20  C   UNL     1      17.907  52.122  47.028  1.00  0.00    -0.013 C 
HETATM   21  C   UNL     1      18.312  50.708  46.580  1.00  0.00     0.011 C 
HETATM   22  C   UNL     1      16.439  52.104  47.490  1.00  0.00     0.009 C 
HETATM   23  C   UNL     1      18.162  49.717  47.750  1.00  0.00     0.017 C 
HETATM   24  C   UNL     1      16.687  49.716  48.206  1.00  0.00     0.011 C 
HETATM   25  C   UNL     1      16.269  51.123  48.661  1.00  0.00    -0.013 C 
ENDBRANCH  12  16
ENDBRANCH   3   7
BRANCH   1  26
HETATM   26  C   UNL     1      26.470  45.795  50.310  1.00  0.00     0.274 C 
BRANCH  26  27
HETATM   27  C   UNL     1      26.352  45.099  51.646  1.00  0.00    -0.033 A 
HETATM   28  C   UNL     1      27.325  44.161  52.040  1.00  0.00     0.009 A 
HETATM   29  C   UNL     1      27.253  43.523  53.279  1.00  0.00     0.001 A 
HETATM   30  C   UNL     1      26.217  43.825  54.157  1.00  0.00     0.000 A 
HETATM   31  C   UNL     1      25.262  44.771  53.798  1.00  0.00     0.001 A 
HETATM   32  C   UNL     1      25.329  45.405  52.554  1.00  0.00     0.009 A 
ENDBRANCH  26  27
ENDBRANCH   1  26
BRANCH   5  33
HETATM   33  S   UNL     1      23.007  43.779  47.323  1.00  0.00    -0.084 SA
BRANCH  33  34
HETATM   34  C   UNL     1      23.074  42.009  47.139  1.00  0.00     0.188 A 
HETATM   35  N   UNL     1      21.951  41.310  47.371  1.00  0.00    -0.235 NA
HETATM   36  C   UNL     1      22.048  39.973  47.213  1.00  0.00     0.121 A 
HETATM   37  C   UNL     1      23.220  39.331  46.890  1.00  0.00     0.038 A 
HETATM   38  C   UNL     1      24.317  40.143  46.726  1.00  0.00     0.121 A 
HETATM   39  N   UNL     1      24.271  41.485  46.854  1.00  0.00    -0.235 NA
ENDBRANCH  33  34
ENDBRANCH   5  33
TORSDOF 6
ENDMDL
MODEL 8
REMARK VINA RESULT:      -8.3     13.372     16.295
REMARK  6 active torsions:
REMARK  status: ('A' for Active; 'I' for Inactive)
REMARK    1  A    between atoms: C_4  and  C_5 
REMARK    2  A    between atoms: C_5  and  N_6 
REMARK    3  A    between atoms: C_8  and  C_9 
REMARK       I    between atoms: C_9  and  N_10 
REMARK    4  A    between atoms: N_13  and  C_15 
REMARK    5  A    between atoms: C_29  and  S_30 
REMARK    6  A    between atoms: S_30  and  C_31 
ROOT
HETATM    1  N   UNL     1      37.584  51.411  43.756  1.00  0.00    -0.053 N 
HETATM    2  H   UNL     1      36.721  51.131  44.242  1.00  0.00     0.281 HD
HETATM    3  C   UNL     1      37.164  52.607  42.859  1.00  0.00     0.281 C 
HETATM    4  C   UNL     1      38.350  53.551  43.019  1.00  0.00     0.060 C 
HETATM    5  C   UNL     1      38.664  53.480  44.510  1.00  0.00     0.083 C 
HETATM    6  C   UNL     1      38.526  51.987  44.825  1.00  0.00     0.252 C 
ENDROOT
BRANCH   3   7
HETATM    7  C   UNL     1      36.706  52.354  41.407  1.00  0.00     0.251 C 
HETATM    8  N   UNL     1      35.429  51.848  41.171  1.00  0.00    -0.347 N 
HETATM    9  C   UNL     1      34.953  51.752  39.786  1.00  0.00     0.153 C 
HETATM   10  C   UNL     1      34.617  51.059  42.102  1.00  0.00     0.153 C 
HETATM   11  C   UNL     1      33.501  52.243  39.664  1.00  0.00     0.255 C 
HETATM   12  N   UNL     1      32.554  51.545  40.658  1.00  0.00    -0.063 N 
HETATM   13  H   UNL     1      32.445  50.574  40.335  1.00  0.00     0.280 HD
HETATM   14  C   UNL     1      33.142  51.499  42.078  1.00  0.00     0.255 C 
HETATM   15  O   UNL     1      37.459  52.583  40.463  1.00  0.00    -0.271 OA
BRANCH  12  16
HETATM   16  C   UNL     1      31.151  52.211  40.660  1.00  0.00     0.196 C 
HETATM   17  C   UNL     1      30.484  52.183  39.259  1.00  0.00     0.017 C 
HETATM   18  C   UNL     1      30.148  50.742  38.834  1.00  0.00     0.011 C 
HETATM   19  C   UNL     1      29.175  52.997  39.328  1.00  0.00     0.011 C 
HETATM   20  C   UNL     1      29.191  50.100  39.852  1.00  0.00    -0.013 C 
HETATM   21  C   UNL     1      29.853  50.092  41.240  1.00  0.00     0.011 C 
HETATM   22  C   UNL     1      27.894  50.926  39.917  1.00  0.00     0.009 C 
HETATM   23  C   UNL     1      30.191  51.531  41.675  1.00  0.00     0.017 C 
HETATM   24  C   UNL     1      28.883  52.348  41.728  1.00  0.00     0.011 C 
HETATM   25  C   UNL     1      28.210  52.368  40.347  1.00  0.00    -0.013 C 
ENDBRANCH  12  16
ENDBRANCH   3   7
BRANCH   1  26
HETATM   26  C   UNL     1      38.076  50.099  43.156  1.00  0.00     0.274 C 
BRANCH  26  27
HETATM   27  C   UNL     1      39.235  49.398  43.825  1.00  0.00    -0.033 A 
HETATM   28  C   UNL     1      39.003  48.270  44.635  1.00  0.00     0.009 A 
HETATM   29  C   UNL     1      40.058  47.589  45.244  1.00  0.00     0.001 A 
HETATM   30  C   UNL     1      41.367  48.010  45.039  1.00  0.00     0.000 A 
HETATM   31  C   UNL     1      41.620  49.105  44.218  1.00  0.00     0.001 A 
HETATM   32  C   UNL     1      40.563  49.793  43.613  1.00  0.00     0.009 A 
ENDBRANCH  26  27
ENDBRANCH   1  26
BRANCH   5  33
HETATM   33  S   UNL     1      37.458  54.497  45.449  1.00  0.00    -0.084 SA
BRANCH  33  34
HETATM   34  C   UNL     1      38.337  56.045  45.495  1.00  0.00     0.188 A 
HETATM   35  N   UNL     1      37.896  57.042  44.711  1.00  0.00    -0.235 NA
HETATM   36  C   UNL     1      38.589  58.197  44.783  1.00  0.00     0.121 A 
HETATM   37  C   UNL     1      39.713  58.360  45.560  1.00  0.00     0.038 A 
HETATM   38  C   UNL     1      40.101  57.257  46.281  1.00  0.00     0.121 A 
HETATM   39  N   UNL     1      39.435  56.084  46.259  1.00  0.00    -0.235 NA
ENDBRANCH  33  34
ENDBRANCH   5  33
TORSDOF 6
ENDMDL
MODEL 9
REMARK VINA RESULT:      -8.2      4.799      8.660
REMARK  6 active torsions:
REMARK  status: ('A' for Active; 'I' for Inactive)
REMARK    1  A    between atoms: C_4  and  C_5 
REMARK    2  A    between atoms: C_5  and  N_6 
REMARK    3  A    between atoms: C_8  and  C_9 
REMARK       I    between atoms: C_9  and  N_10 
REMARK    4  A    between atoms: N_13  and  C_15 
REMARK    5  A    between atoms: C_29  and  S_30 
REMARK    6  A    between atoms: S_30  and  C_31 
ROOT
HETATM    1  N   UNL     1      24.509  45.563  49.581  1.00  0.00    -0.053 N 
HETATM    2  H   UNL     1      25.458  45.667  49.197  1.00  0.00     0.281 HD
HETATM    3  C   UNL     1      23.918  44.330  48.845  1.00  0.00     0.281 C 
HETATM    4  C   UNL     1      23.178  43.618  49.972  1.00  0.00     0.060 C 
HETATM    5  C   UNL     1      24.143  43.713  51.149  1.00  0.00     0.083 C 
HETATM    6  C   UNL     1      24.672  45.147  51.052  1.00  0.00     0.252 C 
ENDROOT
BRANCH   3   7
HETATM    7  C   UNL     1      23.116  44.525  47.542  1.00  0.00     0.251 C 
HETATM    8  N   UNL     1      21.825  45.049  47.605  1.00  0.00    -0.347 N 
HETATM    9  C   UNL     1      21.131  45.366  46.352  1.00  0.00     0.153 C 
HETATM   10  C   UNL     1      20.918  44.997  48.754  1.00  0.00     0.153 C 
HETATM   11  C   UNL     1      20.421  46.727  46.442  1.00  0.00     0.255 C 
HETATM   12  N   UNL     1      19.493  46.832  47.667  1.00  0.00    -0.063 N 
HETATM   13  H   UNL     1      18.688  46.218  47.486  1.00  0.00     0.280 HD
HETATM   14  C   UNL     1      20.178  46.332  48.951  1.00  0.00     0.255 C 
HETATM   15  O   UNL     1      23.598  44.213  46.455  1.00  0.00    -0.271 OA
BRANCH  12  16
HETATM   16  C   UNL     1      18.963  48.280  47.849  1.00  0.00     0.196 C 
HETATM   17  C   UNL     1      18.177  48.779  46.607  1.00  0.00     0.017 C 
HETATM   18  C   UNL     1      16.869  47.986  46.424  1.00  0.00     0.011 C 
HETATM   19  C   UNL     1      17.826  50.267  46.821  1.00  0.00     0.011 C 
HETATM   20  C   UNL     1      15.981  48.136  47.669  1.00  0.00    -0.013 C 
HETATM   21  C   UNL     1      16.737  47.616  48.903  1.00  0.00     0.011 C 
HETATM   22  C   UNL     1      15.647  49.625  47.874  1.00  0.00     0.009 C 
HETATM   23  C   UNL     1      18.045  48.406  49.096  1.00  0.00     0.017 C 
HETATM   24  C   UNL     1      17.694  49.896  49.292  1.00  0.00     0.011 C 
HETATM   25  C   UNL     1      16.941  50.433  48.065  1.00  0.00    -0.013 C 
ENDBRANCH  12  16
ENDBRANCH   3   7
BRANCH   1  26
HETATM   26  C   UNL     1      23.916  46.956  49.405  1.00  0.00     0.274 C 
BRANCH  26  27
HETATM   27  C   UNL     1      24.846  48.084  49.021  1.00  0.00    -0.033 A 
HETATM   28  C   UNL     1      24.339  49.219  48.359  1.00  0.00     0.009 A 
HETATM   29  C   UNL     1      25.171  50.285  48.015  1.00  0.00     0.001 A 
HETATM   30  C   UNL     1      26.521  50.248  48.344  1.00  0.00     0.000 A 
HETATM   31  C   UNL     1      27.036  49.148  49.025  1.00  0.00     0.001 A 
HETATM   32  C   UNL     1      26.204  48.075  49.363  1.00  0.00     0.009 A 
ENDBRANCH  26  27
ENDBRANCH   1  26
BRANCH   5  33
HETATM   33  S   UNL     1      25.480  42.470  50.959  1.00  0.00    -0.084 SA
BRANCH  33  34
HETATM   34  C   UNL     1      26.675  43.132  52.101  1.00  0.00     0.188 A 
HETATM   35  N   UNL     1      27.951  43.227  51.691  1.00  0.00    -0.235 NA
HETATM   36  C   UNL     1      28.819  43.739  52.587  1.00  0.00     0.121 A 
HETATM   37  C   UNL     1      28.465  44.100  53.865  1.00  0.00     0.038 A 
HETATM   38  C   UNL     1      27.143  43.911  54.191  1.00  0.00     0.121 A 
HETATM   39  N   UNL     1      26.231  43.420  53.329  1.00  0.00    -0.235 NA
ENDBRANCH  33  34
ENDBRANCH   5  33
TORSDOF 6
ENDMDL
MODEL 10
REMARK VINA RESULT:      -8.1     13.286     16.172
REMARK  6 active torsions:
REMARK  status: ('A' for Active; 'I' for Inactive)
REMARK    1  A    between atoms: C_4  and  C_5 
REMARK    2  A    between atoms: C_5  and  N_6 
REMARK    3  A    between atoms: C_8  and  C_9 
REMARK       I    between atoms: C_9  and  N_10 
REMARK    4  A    between atoms: N_13  and  C_15 
REMARK    5  A    between atoms: C_29  and  S_30 
REMARK    6  A    between atoms: S_30  and  C_31 
ROOT
HETATM    1  N   UNL     1      38.594  51.646  43.168  1.00  0.00    -0.053 N 
HETATM    2  H   UNL     1      37.868  51.239  43.773  1.00  0.00     0.281 HD
HETATM    3  C   UNL     1      37.855  52.726  42.333  1.00  0.00     0.281 C 
HETATM    4  C   UNL     1      38.872  53.861  42.318  1.00  0.00     0.060 C 
HETATM    5  C   UNL     1      39.398  53.888  43.750  1.00  0.00     0.083 C 
HETATM    6  C   UNL     1      39.562  52.404  44.090  1.00  0.00     0.252 C 
ENDROOT
BRANCH   3   7
HETATM    7  C   UNL     1      37.250  52.357  40.963  1.00  0.00     0.251 C 
HETATM    8  N   UNL     1      35.955  51.845  40.902  1.00  0.00    -0.347 N 
HETATM    9  C   UNL     1      35.339  51.637  39.587  1.00  0.00     0.153 C 
HETATM   10  C   UNL     1      35.243  51.146  41.974  1.00  0.00     0.153 C 
HETATM   11  C   UNL     1      33.883  52.131  39.573  1.00  0.00     0.255 C 
HETATM   12  N   UNL     1      33.042  51.528  40.714  1.00  0.00    -0.063 N 
HETATM   13  H   UNL     1      32.900  50.535  40.487  1.00  0.00     0.280 HD
HETATM   14  C   UNL     1      33.773  51.597  42.065  1.00  0.00     0.255 C 
HETATM   15  O   UNL     1      37.902  52.497  39.930  1.00  0.00    -0.271 OA
BRANCH  12  16
HETATM   16  C   UNL     1      31.648  52.206  40.803  1.00  0.00     0.196 C 
HETATM   17  C   UNL     1      30.884  52.161  39.452  1.00  0.00     0.017 C 
HETATM   18  C   UNL     1      30.508  50.715  39.077  1.00  0.00     0.011 C 
HETATM   19  C   UNL     1      29.588  52.986  39.600  1.00  0.00     0.011 C 
HETATM   20  C   UNL     1      29.621  50.098  40.170  1.00  0.00    -0.013 C 
HETATM   21  C   UNL     1      30.379  50.108  41.509  1.00  0.00     0.011 C 
HETATM   22  C   UNL     1      28.338  50.936  40.312  1.00  0.00     0.009 C 
HETATM   23  C   UNL     1      30.756  51.551  41.894  1.00  0.00     0.017 C 
HETATM   24  C   UNL     1      29.461  52.379  42.025  1.00  0.00     0.011 C 
HETATM   25  C   UNL     1      28.694  52.383  40.694  1.00  0.00    -0.013 C 
ENDBRANCH  12  16
ENDBRANCH   3   7
BRANCH   1  26
HETATM   26  C   UNL     1      39.215  50.418  42.512  1.00  0.00     0.274 C 
BRANCH  26  27
HETATM   27  C   UNL     1      39.872  49.389  43.401  1.00  0.00    -0.033 A 
HETATM   28  C   UNL     1      39.099  48.660  44.326  1.00  0.00     0.009 A 
HETATM   29  C   UNL     1      39.676  47.686  45.142  1.00  0.00     0.001 A 
HETATM   30  C   UNL     1      41.034  47.407  45.036  1.00  0.00     0.000 A 
HETATM   31  C   UNL     1      41.810  48.095  44.107  1.00  0.00     0.001 A 
HETATM   32  C   UNL     1      41.234  49.076  43.295  1.00  0.00     0.009 A 
ENDBRANCH  26  27
ENDBRANCH   1  26
BRANCH   5  33
HETATM   33  S   UNL     1      38.178  54.715  44.844  1.00  0.00    -0.084 SA
BRANCH  33  34
HETATM   34  C   UNL     1      38.964  54.461  46.422  1.00  0.00     0.188 A 
HETATM   35  N   UNL     1      40.272  54.747  46.526  1.00  0.00    -0.235 NA
HETATM   36  C   UNL     1      40.822  54.544  47.741  1.00  0.00     0.121 A 
HETATM   37  C   UNL     1      40.130  54.027  48.811  1.00  0.00     0.038 A 
HETATM   38  C   UNL     1      38.810  53.724  48.573  1.00  0.00     0.121 A 
HETATM   39  N   UNL     1      38.207  53.923  47.385  1.00  0.00    -0.235 NA
ENDBRANCH  33  34
ENDBRANCH   5  33
TORSDOF 6
ENDMDL
