MODEL 1
REMARK VINA RESULT:     -10.4      0.000      0.000
REMARK  4 active torsions:
REMARK  status: ('A' for Active; 'I' for Inactive)
REMARK    1  A    between atoms: C_3  and  O_4 
REMARK    2  A    between atoms: O_4  and  C_5 
REMARK    3  A    between atoms: C_11  and  C_12 
REMARK    4  A    between atoms: C_23  and  N_24 
ROOT
HETATM    1  C   UNL     1      27.323  42.615  53.067  1.00  0.00     0.244 A 
HETATM    2  N   UNL     1      27.018  43.160  51.765  1.00  0.00    -0.151 N 
HETATM    3  C   UNL     1      27.447  42.532  50.624  1.00  0.00     0.734 A 
HETATM    4  N   UNL     1      27.041  43.206  49.571  1.00  0.00    -0.060 NA
HETATM    5  C   UNL     1      26.296  44.256  50.047  1.00  0.00     0.103 A 
HETATM    6  C   UNL     1      26.253  44.246  51.438  1.00  0.00     0.083 A 
HETATM    7  C   UNL     1      25.614  45.257  49.343  1.00  0.00     0.034 A 
HETATM    8  C   UNL     1      24.901  46.221  50.066  1.00  0.00     0.002 A 
HETATM    9  C   UNL     1      24.871  46.188  51.462  1.00  0.00     0.002 A 
HETATM   10  C   UNL     1      25.549  45.199  52.184  1.00  0.00     0.033 A 
HETATM   11  N   UNL     1      28.175  41.393  50.645  1.00  0.00    -0.033 NA
HETATM   12  C   UNL     1      28.429  40.835  51.774  1.00  0.00     0.193 A 
HETATM   13  N   UNL     1      28.018  41.333  53.015  1.00  0.00    -0.339 N 
HETATM   14  H   UNL     1      28.198  40.819  53.862  1.00  0.00     0.164 HD
ENDROOT
BRANCH   1  15
HETATM   15  C   UNL     1      28.195  43.535  53.908  1.00  0.00    -0.014 A 
HETATM   16  C   UNL     1      27.809  44.872  54.105  1.00  0.00     0.020 A 
HETATM   17  C   UNL     1      28.542  45.730  54.941  1.00  0.00    -0.027 A 
HETATM   18  C   UNL     1      29.688  45.234  55.578  1.00  0.00     0.086 A 
HETATM   19  C   UNL     1      28.034  47.130  55.157  1.00  0.00     0.051 C 
HETATM   20  C   UNL     1      30.074  43.891  55.436  1.00  0.00    -0.027 A 
HETATM   21  C   UNL     1      31.275  43.338  56.154  1.00  0.00     0.051 C 
HETATM   22  C   UNL     1      29.331  43.058  54.588  1.00  0.00     0.020 A 
BRANCH  18  23
HETATM   23  O   UNL     1      30.391  46.044  56.429  1.00  0.00    -0.289 OA
BRANCH  23  24
HETATM   24  C   UNL     1      30.106  45.716  57.785  1.00  0.00     0.505 C 
HETATM   25  F   UNL     1      31.095  46.232  58.555  1.00  0.00    -0.184 F 
HETATM   26  F   UNL     1      28.963  46.364  58.124  1.00  0.00    -0.184 F 
ENDBRANCH  23  24
ENDBRANCH  18  23
ENDBRANCH   1  15
BRANCH  12  27
HETATM   27  N   UNL     1      29.127  39.688  51.885  1.00  0.00    -0.272 NA
HETATM   28  H   UNL     1      28.893  39.203  52.750  1.00  0.00     0.127 HD
HETATM   29  H   UNL     1      29.085  39.056  51.097  1.00  0.00     0.127 HD
ENDBRANCH  12  27
TORSDOF 4
ENDMDL
MODEL 2
REMARK VINA RESULT:      -9.1      4.760      7.547
REMARK  4 active torsions:
REMARK  status: ('A' for Active; 'I' for Inactive)
REMARK    1  A    between atoms: C_3  and  O_4 
REMARK    2  A    between atoms: O_4  and  C_5 
REMARK    3  A    between atoms: C_11  and  C_12 
REMARK    4  A    between atoms: C_23  and  N_24 
ROOT
HETATM    1  C   UNL     1      25.968  45.850  54.218  1.00  0.00     0.244 A 
HETATM    2  N   UNL     1      27.325  45.414  54.449  1.00  0.00    -0.151 N 
HETATM    3  C   UNL     1      28.241  46.251  55.034  1.00  0.00     0.734 A 
HETATM    4  N   UNL     1      29.395  45.631  55.146  1.00  0.00    -0.060 NA
HETATM    5  C   UNL     1      29.199  44.358  54.672  1.00  0.00     0.103 A 
HETATM    6  C   UNL     1      27.890  44.187  54.232  1.00  0.00     0.083 A 
HETATM    7  C   UNL     1      30.098  43.286  54.594  1.00  0.00     0.034 A 
HETATM    8  C   UNL     1      29.647  42.066  54.079  1.00  0.00     0.002 A 
HETATM    9  C   UNL     1      28.328  41.918  53.647  1.00  0.00     0.002 A 
HETATM   10  C   UNL     1      27.415  42.978  53.711  1.00  0.00     0.033 A 
HETATM   11  N   UNL     1      27.941  47.513  55.415  1.00  0.00    -0.033 NA
HETATM   12  C   UNL     1      26.735  47.934  55.283  1.00  0.00     0.193 A 
HETATM   13  N   UNL     1      25.685  47.181  54.748  1.00  0.00    -0.339 N 
HETATM   14  H   UNL     1      24.747  47.546  54.724  1.00  0.00     0.164 HD
ENDROOT
BRANCH   1  15
HETATM   15  C   UNL     1      25.600  45.895  52.744  1.00  0.00    -0.014 A 
HETATM   16  C   UNL     1      24.752  44.910  52.208  1.00  0.00     0.020 A 
HETATM   17  C   UNL     1      24.323  44.962  50.871  1.00  0.00    -0.027 A 
HETATM   18  C   UNL     1      24.764  46.018  50.062  1.00  0.00     0.086 A 
HETATM   19  C   UNL     1      23.364  43.910  50.383  1.00  0.00     0.051 C 
HETATM   20  C   UNL     1      25.575  47.041  50.581  1.00  0.00    -0.027 A 
HETATM   21  C   UNL     1      26.015  48.203  49.731  1.00  0.00     0.051 C 
HETATM   22  C   UNL     1      25.998  46.960  51.914  1.00  0.00     0.020 A 
BRANCH  18  23
HETATM   23  O   UNL     1      24.322  46.108  48.769  1.00  0.00    -0.289 OA
BRANCH  23  24
HETATM   24  C   UNL     1      23.029  46.703  48.721  1.00  0.00     0.505 C 
HETATM   25  F   UNL     1      23.153  47.920  48.137  1.00  0.00    -0.184 F 
HETATM   26  F   UNL     1      22.267  45.944  47.893  1.00  0.00    -0.184 F 
ENDBRANCH  23  24
ENDBRANCH  18  23
ENDBRANCH   1  15
BRANCH  12  27
HETATM   27  N   UNL     1      26.343  49.168  55.658  1.00  0.00    -0.272 NA
HETATM   28  H   UNL     1      26.301  49.244  56.673  1.00  0.00     0.127 HD
HETATM   29  H   UNL     1      26.857  49.944  55.262  1.00  0.00     0.127 HD
ENDBRANCH  12  27
TORSDOF 4
ENDMDL
MODEL 3
REMARK VINA RESULT:      -9.0      6.529      9.605
REMARK  4 active torsions:
REMARK  status: ('A' for Active; 'I' for Inactive)
REMARK    1  A    between atoms: C_3  and  O_4 
REMARK    2  A    between atoms: O_4  and  C_5 
REMARK    3  A    between atoms: C_11  and  C_12 
REMARK    4  A    between atoms: C_23  and  N_24 
ROOT
HETATM    1  C   UNL     1      22.648  46.362  48.042  1.00  0.00     0.244 A 
HETATM    2  N   UNL     1      23.144  45.593  49.160  1.00  0.00    -0.151 N 
HETATM    3  C   UNL     1      22.623  44.357  49.447  1.00  0.00     0.734 A 
HETATM    4  N   UNL     1      23.237  43.853  50.494  1.00  0.00    -0.060 NA
HETATM    5  C   UNL     1      24.203  44.760  50.851  1.00  0.00     0.103 A 
HETATM    6  C   UNL     1      24.175  45.871  50.014  1.00  0.00     0.083 A 
HETATM    7  C   UNL     1      25.150  44.696  51.882  1.00  0.00     0.034 A 
HETATM    8  C   UNL     1      26.051  45.757  52.034  1.00  0.00     0.002 A 
HETATM    9  C   UNL     1      26.006  46.860  51.179  1.00  0.00     0.002 A 
HETATM   10  C   UNL     1      25.064  46.946  50.146  1.00  0.00     0.033 A 
HETATM   11  N   UNL     1      21.627  43.796  48.724  1.00  0.00    -0.033 NA
HETATM   12  C   UNL     1      21.186  44.412  47.687  1.00  0.00     0.193 A 
HETATM   13  N   UNL     1      21.651  45.655  47.244  1.00  0.00    -0.339 N 
HETATM   14  H   UNL     1      21.307  46.060  46.389  1.00  0.00     0.164 HD
ENDROOT
BRANCH   1  15
HETATM   15  C   UNL     1      22.002  47.672  48.461  1.00  0.00    -0.014 A 
HETATM   16  C   UNL     1      20.745  47.659  49.090  1.00  0.00     0.020 A 
HETATM   17  C   UNL     1      20.152  48.840  49.566  1.00  0.00    -0.027 A 
HETATM   18  C   UNL     1      20.833  50.053  49.395  1.00  0.00     0.086 A 
HETATM   19  C   UNL     1      18.835  48.743  50.287  1.00  0.00     0.051 C 
HETATM   20  C   UNL     1      22.110  50.093  48.811  1.00  0.00    -0.027 A 
HETATM   21  C   UNL     1      22.869  51.385  48.667  1.00  0.00     0.051 C 
HETATM   22  C   UNL     1      22.675  48.902  48.336  1.00  0.00     0.020 A 
BRANCH  18  23
HETATM   23  O   UNL     1      20.289  51.208  49.891  1.00  0.00    -0.289 OA
BRANCH  23  24
HETATM   24  C   UNL     1      19.287  51.708  49.012  1.00  0.00     0.505 C 
HETATM   25  F   UNL     1      18.297  52.241  49.770  1.00  0.00    -0.184 F 
HETATM   26  F   UNL     1      19.839  52.729  48.310  1.00  0.00    -0.184 F 
ENDBRANCH  23  24
ENDBRANCH  18  23
ENDBRANCH   1  15
BRANCH  12  27
HETATM   27  N   UNL     1      20.213  43.916  46.897  1.00  0.00    -0.272 NA
HETATM   28  H   UNL     1      20.146  44.444  46.029  1.00  0.00     0.127 HD
HETATM   29  H   UNL     1      20.246  42.922  46.711  1.00  0.00     0.127 HD
ENDBRANCH  12  27
TORSDOF 4
ENDMDL
MODEL 4
REMARK VINA RESULT:      -8.8      3.507      5.550
REMARK  4 active torsions:
REMARK  status: ('A' for Active; 'I' for Inactive)
REMARK    1  A    between atoms: C_3  and  O_4 
REMARK    2  A    between atoms: O_4  and  C_5 
REMARK    3  A    between atoms: C_11  and  C_12 
REMARK    4  A    between atoms: C_23  and  N_24 
ROOT
HETATM    1  C   UNL     1      26.100  46.685  49.593  1.00  0.00     0.244 A 
HETATM    2  N   UNL     1      24.735  47.018  49.256  1.00  0.00    -0.151 N 
HETATM    3  C   UNL     1      24.398  48.290  48.869  1.00  0.00     0.734 A 
HETATM    4  N   UNL     1      23.112  48.344  48.607  1.00  0.00    -0.060 NA
HETATM    5  C   UNL     1      22.627  47.071  48.779  1.00  0.00     0.103 A 
HETATM    6  C   UNL     1      23.639  46.204  49.181  1.00  0.00     0.083 A 
HETATM    7  C   UNL     1      21.327  46.580  48.601  1.00  0.00     0.034 A 
HETATM    8  C   UNL     1      21.086  45.220  48.828  1.00  0.00     0.002 A 
HETATM    9  C   UNL     1      22.118  44.368  49.227  1.00  0.00     0.002 A 
HETATM   10  C   UNL     1      23.423  44.841  49.416  1.00  0.00     0.033 A 
HETATM   11  N   UNL     1      25.300  49.294  48.790  1.00  0.00    -0.033 NA
HETATM   12  C   UNL     1      26.537  49.042  49.027  1.00  0.00     0.193 A 
HETATM   13  N   UNL     1      27.037  47.785  49.385  1.00  0.00    -0.339 N 
HETATM   14  H   UNL     1      28.026  47.637  49.500  1.00  0.00     0.164 HD
ENDROOT
BRANCH   1  15
HETATM   15  C   UNL     1      26.267  46.256  51.042  1.00  0.00    -0.014 A 
HETATM   16  C   UNL     1      26.733  44.963  51.336  1.00  0.00     0.020 A 
HETATM   17  C   UNL     1      26.978  44.556  52.658  1.00  0.00    -0.027 A 
HETATM   18  C   UNL     1      26.741  45.464  53.698  1.00  0.00     0.086 A 
HETATM   19  C   UNL     1      27.538  43.179  52.894  1.00  0.00     0.051 C 
HETATM   20  C   UNL     1      26.318  46.777  53.433  1.00  0.00    -0.027 A 
HETATM   21  C   UNL     1      26.106  47.774  54.541  1.00  0.00     0.051 C 
HETATM   22  C   UNL     1      26.070  47.155  52.107  1.00  0.00     0.020 A 
BRANCH  18  23
HETATM   23  O   UNL     1      27.015  45.099  54.989  1.00  0.00    -0.289 OA
BRANCH  23  24
HETATM   24  C   UNL     1      28.309  45.549  55.374  1.00  0.00     0.505 C 
HETATM   25  F   UNL     1      28.233  45.991  56.654  1.00  0.00    -0.184 F 
HETATM   26  F   UNL     1      29.128  44.467  55.378  1.00  0.00    -0.184 F 
ENDBRANCH  23  24
ENDBRANCH  18  23
ENDBRANCH   1  15
BRANCH  12  27
HETATM   27  N   UNL     1      27.505  49.977  48.948  1.00  0.00    -0.272 NA
HETATM   28  H   UNL     1      27.985  50.078  49.841  1.00  0.00     0.127 HD
HETATM   29  H   UNL     1      28.170  49.876  48.193  1.00  0.00     0.127 HD
ENDBRANCH  12  27
TORSDOF 4
ENDMDL
MODEL 5
REMARK VINA RESULT:      -8.6      3.007      4.987
REMARK  4 active torsions:
REMARK  status: ('A' for Active; 'I' for Inactive)
REMARK    1  A    between atoms: C_3  and  O_4 
REMARK    2  A    between atoms: O_4  and  C_5 
REMARK    3  A    between atoms: C_11  and  C_12 
REMARK    4  A    between atoms: C_23  and  N_24 
ROOT
HETATM    1  C   UNL     1      25.836  46.229  49.781  1.00  0.00     0.244 A 
HETATM    2  N   UNL     1      24.737  45.366  49.418  1.00  0.00    -0.151 N 
HETATM    3  C   UNL     1      23.503  45.887  49.122  1.00  0.00     0.734 A 
HETATM    4  N   UNL     1      22.677  44.913  48.813  1.00  0.00    -0.060 NA
HETATM    5  C   UNL     1      23.409  43.753  48.861  1.00  0.00     0.103 A 
HETATM    6  C   UNL     1      24.725  44.011  49.231  1.00  0.00     0.083 A 
HETATM    7  C   UNL     1      23.013  42.436  48.590  1.00  0.00     0.034 A 
HETATM    8  C   UNL     1      23.963  41.414  48.696  1.00  0.00     0.002 A 
HETATM    9  C   UNL     1      25.279  41.698  49.065  1.00  0.00     0.002 A 
HETATM   10  C   UNL     1      25.694  43.006  49.345  1.00  0.00     0.033 A 
HETATM   11  N   UNL     1      23.240  47.213  49.162  1.00  0.00    -0.033 NA
HETATM   12  C   UNL     1      24.194  48.031  49.427  1.00  0.00     0.193 A 
HETATM   13  N   UNL     1      25.512  47.650  49.702  1.00  0.00    -0.339 N 
HETATM   14  H   UNL     1      26.230  48.342  49.845  1.00  0.00     0.164 HD
ENDROOT
BRANCH   1  15
HETATM   15  C   UNL     1      26.338  45.988  51.196  1.00  0.00    -0.014 A 
HETATM   16  C   UNL     1      26.069  46.934  52.201  1.00  0.00     0.020 A 
HETATM   17  C   UNL     1      26.444  46.710  53.536  1.00  0.00    -0.027 A 
HETATM   18  C   UNL     1      27.110  45.520  53.859  1.00  0.00     0.086 A 
HETATM   19  C   UNL     1      26.067  47.736  54.570  1.00  0.00     0.051 C 
HETATM   20  C   UNL     1      27.353  44.537  52.886  1.00  0.00    -0.027 A 
HETATM   21  C   UNL     1      28.024  43.235  53.234  1.00  0.00     0.051 C 
HETATM   22  C   UNL     1      26.978  44.789  51.559  1.00  0.00     0.020 A 
BRANCH  18  23
HETATM   23  O   UNL     1      27.445  45.266  55.163  1.00  0.00    -0.289 OA
BRANCH  23  24
HETATM   24  C   UNL     1      28.642  45.950  55.516  1.00  0.00     0.505 C 
HETATM   25  F   UNL     1      28.557  46.290  56.825  1.00  0.00    -0.184 F 
HETATM   26  F   UNL     1      29.661  45.062  55.404  1.00  0.00    -0.184 F 
ENDBRANCH  23  24
ENDBRANCH  18  23
ENDBRANCH   1  15
BRANCH  12  27
HETATM   27  N   UNL     1      24.026  49.367  49.465  1.00  0.00    -0.272 NA
HETATM   28  H   UNL     1      24.282  49.791  48.575  1.00  0.00     0.127 HD
HETATM   29  H   UNL     1      23.122  49.700  49.773  1.00  0.00     0.127 HD
ENDBRANCH  12  27
TORSDOF 4
ENDMDL
MODEL 6
REMARK VINA RESULT:      -8.4     15.204     16.770
REMARK  4 active torsions:
REMARK  status: ('A' for Active; 'I' for Inactive)
REMARK    1  A    between atoms: C_3  and  O_4 
REMARK    2  A    between atoms: O_4  and  C_5 
REMARK    3  A    between atoms: C_11  and  C_12 
REMARK    4  A    between atoms: C_23  and  N_24 
ROOT
HETATM    1  C   UNL     1      38.652  43.824  63.742  1.00  0.00     0.244 A 
HETATM    2  N   UNL     1      37.810  44.222  64.846  1.00  0.00    -0.151 N 
HETATM    3  C   UNL     1      38.090  45.354  65.569  1.00  0.00     0.734 A 
HETATM    4  N   UNL     1      37.183  45.511  66.507  1.00  0.00    -0.060 NA
HETATM    5  C   UNL     1      36.279  44.492  66.348  1.00  0.00     0.103 A 
HETATM    6  C   UNL     1      36.644  43.663  65.292  1.00  0.00     0.083 A 
HETATM    7  C   UNL     1      35.109  44.216  67.069  1.00  0.00     0.034 A 
HETATM    8  C   UNL     1      34.336  43.110  66.697  1.00  0.00     0.002 A 
HETATM    9  C   UNL     1      34.722  42.295  65.631  1.00  0.00     0.002 A 
HETATM   10  C   UNL     1      35.889  42.550  64.901  1.00  0.00     0.033 A 
HETATM   11  N   UNL     1      39.155  46.145  65.307  1.00  0.00    -0.033 NA
HETATM   12  C   UNL     1      39.906  45.868  64.303  1.00  0.00     0.193 A 
HETATM   13  N   UNL     1      39.719  44.777  63.448  1.00  0.00    -0.339 N 
HETATM   14  H   UNL     1      40.308  44.645  62.642  1.00  0.00     0.164 HD
ENDROOT
BRANCH   1  15
HETATM   15  C   UNL     1      39.334  42.483  63.967  1.00  0.00    -0.014 A 
HETATM   16  C   UNL     1      39.109  41.429  63.066  1.00  0.00     0.020 A 
HETATM   17  C   UNL     1      39.782  40.202  63.192  1.00  0.00    -0.027 A 
HETATM   18  C   UNL     1      40.687  40.035  64.249  1.00  0.00     0.086 A 
HETATM   19  C   UNL     1      39.541  39.140  62.154  1.00  0.00     0.051 C 
HETATM   20  C   UNL     1      40.966  41.085  65.139  1.00  0.00    -0.027 A 
HETATM   21  C   UNL     1      41.972  40.931  66.248  1.00  0.00     0.051 C 
HETATM   22  C   UNL     1      40.273  42.296  64.997  1.00  0.00     0.020 A 
BRANCH  18  23
HETATM   23  O   UNL     1      41.383  38.861  64.362  1.00  0.00    -0.289 OA
BRANCH  23  24
HETATM   24  C   UNL     1      40.811  38.033  65.369  1.00  0.00     0.505 C 
HETATM   25  F   UNL     1      39.479  38.283  65.406  1.00  0.00    -0.184 F 
HETATM   26  F   UNL     1      40.960  36.747  64.965  1.00  0.00    -0.184 F 
ENDBRANCH  23  24
ENDBRANCH  18  23
ENDBRANCH   1  15
BRANCH  12  27
HETATM   27  N   UNL     1      40.973  46.615  63.957  1.00  0.00    -0.272 NA
HETATM   28  H   UNL     1      40.744  47.240  63.186  1.00  0.00     0.127 HD
HETATM   29  H   UNL     1      41.432  47.120  64.703  1.00  0.00     0.127 HD
ENDBRANCH  12  27
TORSDOF 4
ENDMDL
MODEL 7
REMARK VINA RESULT:      -8.3     14.231     15.680
REMARK  4 active torsions:
REMARK  status: ('A' for Active; 'I' for Inactive)
REMARK    1  A    between atoms: C_3  and  O_4 
REMARK    2  A    between atoms: O_4  and  C_5 
REMARK    3  A    between atoms: C_11  and  C_12 
REMARK    4  A    between atoms: C_23  and  N_24 
ROOT
HETATM    1  C   UNL     1      32.674  50.427  42.124  1.00  0.00     0.244 A 
HETATM    2  N   UNL     1      31.743  50.626  41.038  1.00  0.00    -0.151 N 
HETATM    3  C   UNL     1      31.392  49.586  40.215  1.00  0.00     0.734 A 
HETATM    4  N   UNL     1      30.532  50.007  39.316  1.00  0.00    -0.060 NA
HETATM    5  C   UNL     1      30.288  51.327  39.601  1.00  0.00     0.103 A 
HETATM    6  C   UNL     1      31.035  51.746  40.698  1.00  0.00     0.083 A 
HETATM    7  C   UNL     1      29.428  52.234  38.965  1.00  0.00     0.034 A 
HETATM    8  C   UNL     1      29.343  53.539  39.461  1.00  0.00     0.002 A 
HETATM    9  C   UNL     1      30.100  53.935  40.566  1.00  0.00     0.002 A 
HETATM   10  C   UNL     1      30.969  53.046  41.212  1.00  0.00     0.033 A 
HETATM   11  N   UNL     1      31.893  48.338  40.359  1.00  0.00    -0.033 NA
HETATM   12  C   UNL     1      32.683  48.092  41.341  1.00  0.00     0.193 A 
HETATM   13  N   UNL     1      33.092  49.038  42.287  1.00  0.00    -0.339 N 
HETATM   14  H   UNL     1      33.667  48.770  43.069  1.00  0.00     0.164 HD
ENDROOT
BRANCH   1  15
HETATM   15  C   UNL     1      33.951  51.237  41.969  1.00  0.00    -0.014 A 
HETATM   16  C   UNL     1      34.652  51.658  43.112  1.00  0.00     0.020 A 
HETATM   17  C   UNL     1      35.878  52.337  43.011  1.00  0.00    -0.027 A 
HETATM   18  C   UNL     1      36.397  52.604  41.737  1.00  0.00     0.086 A 
HETATM   19  C   UNL     1      36.604  52.701  44.277  1.00  0.00     0.051 C 
HETATM   20  C   UNL     1      35.743  52.158  40.578  1.00  0.00    -0.027 A 
HETATM   21  C   UNL     1      36.318  52.398  39.207  1.00  0.00     0.051 C 
HETATM   22  C   UNL     1      34.516  51.491  40.705  1.00  0.00     0.020 A 
BRANCH  18  23
HETATM   23  O   UNL     1      37.611  53.228  41.620  1.00  0.00    -0.289 OA
BRANCH  23  24
HETATM   24  C   UNL     1      37.445  54.639  41.533  1.00  0.00     0.505 C 
HETATM   25  F   UNL     1      38.083  55.200  42.589  1.00  0.00    -0.184 F 
HETATM   26  F   UNL     1      38.093  55.052  40.415  1.00  0.00    -0.184 F 
ENDBRANCH  23  24
ENDBRANCH  18  23
ENDBRANCH   1  15
BRANCH  12  27
HETATM   27  N   UNL     1      33.209  46.872  41.572  1.00  0.00    -0.272 NA
HETATM   28  H   UNL     1      33.660  46.839  42.485  1.00  0.00     0.127 HD
HETATM   29  H   UNL     1      32.589  46.083  41.450  1.00  0.00     0.127 HD
ENDBRANCH  12  27
TORSDOF 4
ENDMDL
MODEL 8
REMARK VINA RESULT:      -8.3      1.902      2.890
REMARK  4 active torsions:
REMARK  status: ('A' for Active; 'I' for Inactive)
REMARK    1  A    between atoms: C_3  and  O_4 
REMARK    2  A    between atoms: O_4  and  C_5 
REMARK    3  A    between atoms: C_11  and  C_12 
REMARK    4  A    between atoms: C_23  and  N_24 
ROOT
HETATM    1  C   UNL     1      26.934  41.103  51.727  1.00  0.00     0.244 A 
HETATM    2  N   UNL     1      26.419  41.490  50.434  1.00  0.00    -0.151 N 
HETATM    3  C   UNL     1      27.027  41.065  49.281  1.00  0.00     0.734 A 
HETATM    4  N   UNL     1      26.375  41.536  48.241  1.00  0.00    -0.060 NA
HETATM    5  C   UNL     1      25.301  42.230  48.738  1.00  0.00     0.103 A 
HETATM    6  C   UNL     1      25.296  42.209  50.129  1.00  0.00     0.083 A 
HETATM    7  C   UNL     1      24.279  42.902  48.054  1.00  0.00     0.034 A 
HETATM    8  C   UNL     1      23.273  43.530  48.797  1.00  0.00     0.002 A 
HETATM    9  C   UNL     1      23.287  43.491  50.193  1.00  0.00     0.002 A 
HETATM   10  C   UNL     1      24.302  42.831  50.895  1.00  0.00     0.033 A 
HETATM   11  N   UNL     1      28.129  40.282  49.280  1.00  0.00    -0.033 NA
HETATM   12  C   UNL     1      28.598  39.864  50.400  1.00  0.00     0.193 A 
HETATM   13  N   UNL     1      28.058  40.174  51.652  1.00  0.00    -0.339 N 
HETATM   14  H   UNL     1      28.435  39.767  52.493  1.00  0.00     0.164 HD
ENDROOT
BRANCH   1  15
HETATM   15  C   UNL     1      27.415  42.284  52.554  1.00  0.00    -0.014 A 
HETATM   16  C   UNL     1      28.643  42.205  53.233  1.00  0.00     0.020 A 
HETATM   17  C   UNL     1      29.162  43.302  53.940  1.00  0.00    -0.027 A 
HETATM   18  C   UNL     1      28.424  44.494  53.970  1.00  0.00     0.086 A 
HETATM   19  C   UNL     1      30.513  43.166  54.588  1.00  0.00     0.051 C 
HETATM   20  C   UNL     1      27.216  44.618  53.264  1.00  0.00    -0.027 A 
HETATM   21  C   UNL     1      26.442  45.909  53.252  1.00  0.00     0.051 C 
HETATM   22  C   UNL     1      26.716  43.505  52.576  1.00  0.00     0.020 A 
BRANCH  18  23
HETATM   23  O   UNL     1      28.935  45.587  54.618  1.00  0.00    -0.289 OA
BRANCH  23  24
HETATM   24  C   UNL     1      28.451  45.648  55.955  1.00  0.00     0.505 C 
HETATM   25  F   UNL     1      29.520  45.598  56.788  1.00  0.00    -0.184 F 
HETATM   26  F   UNL     1      27.879  46.868  56.121  1.00  0.00    -0.184 F 
ENDBRANCH  23  24
ENDBRANCH  18  23
ENDBRANCH   1  15
BRANCH  12  27
HETATM   27  N   UNL     1      29.678  39.062  50.490  1.00  0.00    -0.272 NA
HETATM   28  H   UNL     1      30.534  39.610  50.542  1.00  0.00     0.127 HD
HETATM   29  H   UNL     1      29.658  38.359  51.217  1.00  0.00     0.127 HD
ENDBRANCH  12  27
TORSDOF 4
ENDMDL
MODEL 9
REMARK VINA RESULT:      -8.3      7.431     10.709
REMARK  4 active torsions:
REMARK  status: ('A' for Active; 'I' for Inactive)
REMARK    1  A    between atoms: C_3  and  O_4 
REMARK    2  A    between atoms: O_4  and  C_5 
REMARK    3  A    between atoms: C_11  and  C_12 
REMARK    4  A    between atoms: C_23  and  N_24 
ROOT
HETATM    1  C   UNL     1      21.145  46.958  47.279  1.00  0.00     0.244 A 
HETATM    2  N   UNL     1      22.144  46.451  48.190  1.00  0.00    -0.151 N 
HETATM    3  C   UNL     1      22.123  45.141  48.597  1.00  0.00     0.734 A 
HETATM    4  N   UNL     1      23.130  44.917  49.410  1.00  0.00    -0.060 NA
HETATM    5  C   UNL     1      23.838  46.090  49.484  1.00  0.00     0.103 A 
HETATM    6  C   UNL     1      23.242  47.081  48.709  1.00  0.00     0.083 A 
HETATM    7  C   UNL     1      25.013  46.381  50.190  1.00  0.00     0.034 A 
HETATM    8  C   UNL     1      25.557  47.666  50.090  1.00  0.00     0.002 A 
HETATM    9  C   UNL     1      24.942  48.643  49.303  1.00  0.00     0.002 A 
HETATM   10  C   UNL     1      23.766  48.374  48.593  1.00  0.00     0.033 A 
HETATM   11  N   UNL     1      21.179  44.263  48.188  1.00  0.00    -0.033 NA
HETATM   12  C   UNL     1      20.298  44.646  47.335  1.00  0.00     0.193 A 
HETATM   13  N   UNL     1      20.223  45.934  46.796  1.00  0.00    -0.339 N 
HETATM   14  H   UNL     1      19.544  46.158  46.086  1.00  0.00     0.164 HD
ENDROOT
BRANCH   1  15
HETATM   15  C   UNL     1      20.281  48.050  47.890  1.00  0.00    -0.014 A 
HETATM   16  C   UNL     1      19.765  49.069  47.072  1.00  0.00     0.020 A 
HETATM   17  C   UNL     1      18.897  50.049  47.582  1.00  0.00    -0.027 A 
HETATM   18  C   UNL     1      18.554  50.004  48.941  1.00  0.00     0.086 A 
HETATM   19  C   UNL     1      18.332  51.073  46.635  1.00  0.00     0.051 C 
HETATM   20  C   UNL     1      19.018  48.973  49.773  1.00  0.00    -0.027 A 
HETATM   21  C   UNL     1      18.616  48.890  51.221  1.00  0.00     0.051 C 
HETATM   22  C   UNL     1      19.890  48.013  49.242  1.00  0.00     0.020 A 
BRANCH  18  23
HETATM   23  O   UNL     1      17.676  50.926  49.445  1.00  0.00    -0.289 OA
BRANCH  23  24
HETATM   24  C   UNL     1      18.371  52.071  49.927  1.00  0.00     0.505 C 
HETATM   25  F   UNL     1      19.695  51.875  49.712  1.00  0.00    -0.184 F 
HETATM   26  F   UNL     1      17.999  53.123  49.156  1.00  0.00    -0.184 F 
ENDBRANCH  23  24
ENDBRANCH  18  23
ENDBRANCH   1  15
BRANCH  12  27
HETATM   27  N   UNL     1      19.338  43.831  46.857  1.00  0.00    -0.272 NA
HETATM   28  H   UNL     1      19.350  42.933  47.338  1.00  0.00     0.127 HD
HETATM   29  H   UNL     1      18.400  44.208  46.826  1.00  0.00     0.127 HD
ENDBRANCH  12  27
TORSDOF 4
ENDMDL
MODEL 10
REMARK VINA RESULT:      -8.2     12.823     16.130
REMARK  4 active torsions:
REMARK  status: ('A' for Active; 'I' for Inactive)
REMARK    1  A    between atoms: C_3  and  O_4 
REMARK    2  A    between atoms: O_4  and  C_5 
REMARK    3  A    between atoms: C_11  and  C_12 
REMARK    4  A    between atoms: C_23  and  N_24 
ROOT
HETATM    1  C   UNL     1      16.263  50.644  46.775  1.00  0.00     0.244 A 
HETATM    2  N   UNL     1      17.158  49.989  47.699  1.00  0.00    -0.151 N 
HETATM    3  C   UNL     1      16.910  48.709  48.128  1.00  0.00     0.734 A 
HETATM    4  N   UNL     1      17.862  48.329  48.950  1.00  0.00    -0.060 NA
HETATM    5  C   UNL     1      18.762  49.363  49.007  1.00  0.00     0.103 A 
HETATM    6  C   UNL     1      18.348  50.428  48.213  1.00  0.00     0.083 A 
HETATM    7  C   UNL     1      19.969  49.458  49.714  1.00  0.00     0.034 A 
HETATM    8  C   UNL     1      20.727  50.628  49.594  1.00  0.00     0.002 A 
HETATM    9  C   UNL     1      20.291  51.682  48.788  1.00  0.00     0.002 A 
HETATM   10  C   UNL     1      19.087  51.609  48.077  1.00  0.00     0.033 A 
HETATM   11  N   UNL     1      15.830  48.001  47.730  1.00  0.00    -0.033 NA
HETATM   12  C   UNL     1      15.030  48.515  46.867  1.00  0.00     0.193 A 
HETATM   13  N   UNL     1      15.179  49.787  46.305  1.00  0.00    -0.339 N 
HETATM   14  H   UNL     1      14.550  50.112  45.588  1.00  0.00     0.164 HD
ENDROOT
BRANCH   1  15
HETATM   15  C   UNL     1      15.601  51.880  47.363  1.00  0.00    -0.014 A 
HETATM   16  C   UNL     1      15.033  52.840  46.508  1.00  0.00     0.020 A 
HETATM   17  C   UNL     1      14.341  53.953  47.013  1.00  0.00    -0.027 A 
HETATM   18  C   UNL     1      14.229  54.104  48.402  1.00  0.00     0.086 A 
HETATM   19  C   UNL     1      13.703  54.906  46.039  1.00  0.00     0.051 C 
HETATM   20  C   UNL     1      14.747  53.138  49.281  1.00  0.00    -0.027 A 
HETATM   21  C   UNL     1      14.589  53.268  50.773  1.00  0.00     0.051 C 
HETATM   22  C   UNL     1      15.442  52.043  48.752  1.00  0.00     0.020 A 
BRANCH  18  23
HETATM   23  O   UNL     1      13.521  55.160  48.912  1.00  0.00    -0.289 OA
BRANCH  23  24
HETATM   24  C   UNL     1      12.122  54.935  48.781  1.00  0.00     0.505 C 
HETATM   25  F   UNL     1      11.695  54.298  49.899  1.00  0.00    -0.184 F 
HETATM   26  F   UNL     1      11.518  56.151  48.766  1.00  0.00    -0.184 F 
ENDBRANCH  23  24
ENDBRANCH  18  23
ENDBRANCH   1  15
BRANCH  12  27
HETATM   27  N   UNL     1      13.943  47.870  46.398  1.00  0.00    -0.272 NA
HETATM   28  H   UNL     1      13.959  46.888  46.667  1.00  0.00     0.127 HD
HETATM   29  H   UNL     1      13.046  48.285  46.609  1.00  0.00     0.127 HD
ENDBRANCH  12  27
TORSDOF 4
ENDMDL
