MODEL 1
REMARK VINA RESULT:      -9.7      0.000      0.000
REMARK  6 active torsions:
REMARK  status: ('A' for Active; 'I' for Inactive)
REMARK    1  A    between atoms: C_4  and  C_5 
REMARK    2  A    between atoms: C_5  and  O_6 
REMARK    3  A    between atoms: O_6  and  C_7 
REMARK    4  A    between atoms: C_10  and  C_11 
REMARK    5  A    between atoms: C_17  and  C_18 
REMARK    6  A    between atoms: C_26  and  N_27 
ROOT
HETATM    1  C   UNL     1      25.668  47.992  49.525  1.00  0.00     0.072 A 
HETATM    2  N   UNL     1      26.492  48.957  48.982  1.00  0.00    -0.274 N 
HETATM    3  H   UNL     1      27.503  49.014  49.046  1.00  0.00     0.189 HD
HETATM    4  N   UNL     1      25.841  49.926  48.307  1.00  0.00    -0.148 NA
HETATM    5  C   UNL     1      24.574  49.563  48.445  1.00  0.00     0.199 A 
HETATM    6  C   UNL     1      24.389  48.384  49.168  1.00  0.00     0.040 A 
HETATM    7  C   UNL     1      23.025  47.821  49.375  1.00  0.00     0.108 A 
HETATM    8  C   UNL     1      21.964  48.780  48.835  1.00  0.00     0.081 A 
HETATM    9  C   UNL     1      20.604  48.456  49.122  1.00  0.00     0.100 C 
HETATM   10  N   UNL     1      19.501  48.188  49.358  1.00  0.00    -0.191 NA
HETATM   11  C   UNL     1      22.270  49.919  48.157  1.00  0.00     0.140 A 
HETATM   12  O   UNL     1      23.592  50.307  47.906  1.00  0.00    -0.277 OA
ENDROOT
BRANCH   7  13
HETATM   13  C   UNL     1      22.896  46.452  48.759  1.00  0.00    -0.020 A 
HETATM   14  C   UNL     1      22.465  46.130  47.484  1.00  0.00     0.149 A 
HETATM   15  O   UNL     1      22.477  44.787  47.292  1.00  0.00    -0.334 OA
HETATM   16  C   UNL     1      22.919  44.228  48.446  1.00  0.00     0.142 A 
HETATM   17  C   UNL     1      23.191  45.201  49.377  1.00  0.00     0.034 A 
ENDBRANCH   7  13
BRANCH  11  18
HETATM   18  N   UNL     1      21.351  50.815  47.654  1.00  0.00    -0.282 NA
HETATM   19  H   UNL     1      20.642  50.425  47.036  1.00  0.00     0.126 HD
HETATM   20  H   UNL     1      21.798  51.647  47.274  1.00  0.00     0.126 HD
ENDBRANCH  11  18
BRANCH   1  21
HETATM   21  C   UNL     1      26.170  46.848  50.277  1.00  0.00    -0.007 A 
HETATM   22  C   UNL     1      25.932  46.739  51.651  1.00  0.00     0.016 A 
HETATM   23  C   UNL     1      26.379  45.622  52.360  1.00  0.00     0.037 A 
HETATM   24  C   UNL     1      27.068  44.595  51.714  1.00  0.00     0.069 A 
HETATM   25  C   UNL     1      27.338  44.711  50.351  1.00  0.00     0.037 A 
HETATM   26  C   UNL     1      26.885  45.828  49.638  1.00  0.00     0.016 A 
BRANCH  24  27
HETATM   27  O   UNL     1      27.420  43.548  52.519  1.00  0.00    -0.347 OA
BRANCH  27  28
HETATM   28  C   UNL     1      27.185  43.698  53.920  1.00  0.00     0.214 C 
BRANCH  28  29
HETATM   29  C   UNL     1      28.488  43.981  54.632  1.00  0.00    -0.034 A 
HETATM   30  C   UNL     1      28.659  45.184  55.333  1.00  0.00     0.009 A 
HETATM   31  C   UNL     1      29.851  45.450  56.010  1.00  0.00     0.001 A 
HETATM   32  C   UNL     1      30.881  44.512  56.005  1.00  0.00     0.000 A 
HETATM   33  C   UNL     1      30.719  43.306  55.326  1.00  0.00     0.001 A 
HETATM   34  C   UNL     1      29.528  43.039  54.649  1.00  0.00     0.009 A 
ENDBRANCH  28  29
ENDBRANCH  27  28
ENDBRANCH  24  27
ENDBRANCH   1  21
TORSDOF 6
ENDMDL
MODEL 2
REMARK VINA RESULT:      -9.1      1.629      2.321
REMARK  6 active torsions:
REMARK  status: ('A' for Active; 'I' for Inactive)
REMARK    1  A    between atoms: C_4  and  C_5 
REMARK    2  A    between atoms: C_5  and  O_6 
REMARK    3  A    between atoms: O_6  and  C_7 
REMARK    4  A    between atoms: C_10  and  C_11 
REMARK    5  A    between atoms: C_17  and  C_18 
REMARK    6  A    between atoms: C_26  and  N_27 
ROOT
HETATM    1  C   UNL     1      24.446  46.718  49.636  1.00  0.00     0.072 A 
HETATM    2  N   UNL     1      24.842  48.029  49.460  1.00  0.00    -0.274 N 
HETATM    3  H   UNL     1      25.708  48.459  49.771  1.00  0.00     0.189 HD
HETATM    4  N   UNL     1      23.947  48.796  48.807  1.00  0.00    -0.148 NA
HETATM    5  C   UNL     1      22.957  47.944  48.582  1.00  0.00     0.199 A 
HETATM    6  C   UNL     1      23.193  46.652  49.050  1.00  0.00     0.040 A 
HETATM    7  C   UNL     1      22.193  45.567  48.837  1.00  0.00     0.108 A 
HETATM    8  C   UNL     1      20.916  46.134  48.213  1.00  0.00     0.081 A 
HETATM    9  C   UNL     1      19.804  45.245  48.116  1.00  0.00     0.100 C 
HETATM   10  N   UNL     1      18.905  44.518  48.038  1.00  0.00    -0.191 NA
HETATM   11  C   UNL     1      20.798  47.428  47.812  1.00  0.00     0.140 A 
HETATM   12  O   UNL     1      21.844  48.350  47.945  1.00  0.00    -0.277 OA
ENDROOT
BRANCH   7  13
HETATM   13  C   UNL     1      22.763  44.448  48.004  1.00  0.00    -0.020 A 
HETATM   14  C   UNL     1      22.948  44.417  46.633  1.00  0.00     0.149 A 
HETATM   15  O   UNL     1      23.483  43.233  46.243  1.00  0.00    -0.334 OA
HETATM   16  C   UNL     1      23.651  42.487  47.363  1.00  0.00     0.142 A 
HETATM   17  C   UNL     1      23.228  43.183  48.470  1.00  0.00     0.034 A 
ENDBRANCH   7  13
BRANCH  11  18
HETATM   18  N   UNL     1      19.671  47.985  47.248  1.00  0.00    -0.282 NA
HETATM   19  H   UNL     1      19.463  47.699  46.294  1.00  0.00     0.126 HD
HETATM   20  H   UNL     1      19.637  48.994  47.379  1.00  0.00     0.126 HD
ENDBRANCH  11  18
BRANCH   1  21
HETATM   21  C   UNL     1      25.273  45.718  50.300  1.00  0.00    -0.007 A 
HETATM   22  C   UNL     1      26.551  45.418  49.819  1.00  0.00     0.016 A 
HETATM   23  C   UNL     1      27.357  44.489  50.482  1.00  0.00     0.037 A 
HETATM   24  C   UNL     1      26.903  43.843  51.633  1.00  0.00     0.069 A 
HETATM   25  C   UNL     1      25.617  44.112  52.100  1.00  0.00     0.037 A 
HETATM   26  C   UNL     1      24.811  45.048  51.440  1.00  0.00     0.016 A 
BRANCH  24  27
HETATM   27  O   UNL     1      27.802  42.983  52.198  1.00  0.00    -0.347 OA
BRANCH  27  28
HETATM   28  C   UNL     1      27.614  42.659  53.576  1.00  0.00     0.214 C 
BRANCH  28  29
HETATM   29  C   UNL     1      28.561  43.473  54.428  1.00  0.00    -0.034 A 
HETATM   30  C   UNL     1      29.829  42.966  54.751  1.00  0.00     0.009 A 
HETATM   31  C   UNL     1      30.720  43.715  55.521  1.00  0.00     0.001 A 
HETATM   32  C   UNL     1      30.359  44.984  55.968  1.00  0.00     0.000 A 
HETATM   33  C   UNL     1      29.110  45.507  55.642  1.00  0.00     0.001 A 
HETATM   34  C   UNL     1      28.218  44.760  54.871  1.00  0.00     0.009 A 
ENDBRANCH  28  29
ENDBRANCH  27  28
ENDBRANCH  24  27
ENDBRANCH   1  21
TORSDOF 6
ENDMDL
MODEL 3
REMARK VINA RESULT:      -8.9      1.602      2.276
REMARK  6 active torsions:
REMARK  status: ('A' for Active; 'I' for Inactive)
REMARK    1  A    between atoms: C_4  and  C_5 
REMARK    2  A    between atoms: C_5  and  O_6 
REMARK    3  A    between atoms: O_6  and  C_7 
REMARK    4  A    between atoms: C_10  and  C_11 
REMARK    5  A    between atoms: C_17  and  C_18 
REMARK    6  A    between atoms: C_26  and  N_27 
ROOT
HETATM    1  C   UNL     1      23.643  48.265  48.876  1.00  0.00     0.072 A 
HETATM    2  N   UNL     1      24.351  49.291  48.281  1.00  0.00    -0.274 N 
HETATM    3  H   UNL     1      25.352  49.452  48.317  1.00  0.00     0.189 HD
HETATM    4  N   UNL     1      23.589  50.165  47.594  1.00  0.00    -0.148 NA
HETATM    5  C   UNL     1      22.369  49.680  47.776  1.00  0.00     0.199 A 
HETATM    6  C   UNL     1      22.322  48.514  48.540  1.00  0.00     0.040 A 
HETATM    7  C   UNL     1      21.028  47.822  48.800  1.00  0.00     0.108 A 
HETATM    8  C   UNL     1      19.862  48.650  48.257  1.00  0.00     0.081 A 
HETATM    9  C   UNL     1      18.550  48.200  48.590  1.00  0.00     0.100 C 
HETATM   10  N   UNL     1      17.486  47.828  48.863  1.00  0.00    -0.191 NA
HETATM   11  C   UNL     1      20.035  49.791  47.537  1.00  0.00     0.140 A 
HETATM   12  O   UNL     1      21.305  50.302  47.239  1.00  0.00    -0.277 OA
ENDROOT
BRANCH   7  13
HETATM   13  C   UNL     1      21.025  46.427  48.230  1.00  0.00    -0.020 A 
HETATM   14  C   UNL     1      20.653  45.252  48.857  1.00  0.00     0.149 A 
HETATM   15  O   UNL     1      20.792  44.191  48.023  1.00  0.00    -0.334 OA
HETATM   16  C   UNL     1      21.256  44.674  46.845  1.00  0.00     0.142 A 
HETATM   17  C   UNL     1      21.416  46.037  46.915  1.00  0.00     0.034 A 
ENDBRANCH   7  13
BRANCH  11  18
HETATM   18  N   UNL     1      19.018  50.571  47.030  1.00  0.00    -0.282 NA
HETATM   19  H   UNL     1      19.034  51.552  47.302  1.00  0.00     0.126 HD
HETATM   20  H   UNL     1      18.106  50.137  47.154  1.00  0.00     0.126 HD
ENDBRANCH  11  18
BRANCH   1  21
HETATM   21  C   UNL     1      24.275  47.204  49.649  1.00  0.00    -0.007 A 
HETATM   22  C   UNL     1      24.168  45.869  49.246  1.00  0.00     0.016 A 
HETATM   23  C   UNL     1      24.810  44.859  49.967  1.00  0.00     0.037 A 
HETATM   24  C   UNL     1      25.568  45.160  51.099  1.00  0.00     0.069 A 
HETATM   25  C   UNL     1      25.653  46.485  51.526  1.00  0.00     0.037 A 
HETATM   26  C   UNL     1      25.015  47.500  50.801  1.00  0.00     0.016 A 
BRANCH  24  27
HETATM   27  O   UNL     1      26.166  44.083  51.690  1.00  0.00    -0.347 OA
BRANCH  27  28
HETATM   28  C   UNL     1      27.519  43.809  51.322  1.00  0.00     0.214 C 
BRANCH  28  29
HETATM   29  C   UNL     1      28.386  43.757  52.559  1.00  0.00    -0.034 A 
HETATM   30  C   UNL     1      28.005  44.457  53.714  1.00  0.00     0.009 A 
HETATM   31  C   UNL     1      28.788  44.402  54.869  1.00  0.00     0.001 A 
HETATM   32  C   UNL     1      29.953  43.640  54.887  1.00  0.00     0.000 A 
HETATM   33  C   UNL     1      30.334  42.926  53.753  1.00  0.00     0.001 A 
HETATM   34  C   UNL     1      29.553  42.979  52.597  1.00  0.00     0.009 A 
ENDBRANCH  28  29
ENDBRANCH  27  28
ENDBRANCH  24  27
ENDBRANCH   1  21
TORSDOF 6
ENDMDL
MODEL 4
REMARK VINA RESULT:      -8.8     12.335     13.870
REMARK  6 active torsions:
REMARK  status: ('A' for Active; 'I' for Inactive)
REMARK    1  A    between atoms: C_4  and  C_5 
REMARK    2  A    between atoms: C_5  and  O_6 
REMARK    3  A    between atoms: O_6  and  C_7 
REMARK    4  A    between atoms: C_10  and  C_11 
REMARK    5  A    between atoms: C_17  and  C_18 
REMARK    6  A    between atoms: C_26  and  N_27 
ROOT
HETATM    1  C   UNL     1      33.656  49.266  41.292  1.00  0.00     0.072 A 
HETATM    2  N   UNL     1      33.698  47.953  41.718  1.00  0.00    -0.274 N 
HETATM    3  H   UNL     1      34.414  47.510  42.285  1.00  0.00     0.189 HD
HETATM    4  N   UNL     1      32.659  47.202  41.303  1.00  0.00    -0.148 NA
HETATM    5  C   UNL     1      31.955  48.066  40.586  1.00  0.00     0.199 A 
HETATM    6  C   UNL     1      32.495  49.351  40.542  1.00  0.00     0.040 A 
HETATM    7  C   UNL     1      31.799  50.448  39.811  1.00  0.00     0.108 A 
HETATM    8  C   UNL     1      30.586  49.901  39.057  1.00  0.00     0.081 A 
HETATM    9  C   UNL     1      29.926  50.803  38.170  1.00  0.00     0.100 C 
HETATM   10  N   UNL     1      29.393  51.540  37.451  1.00  0.00    -0.191 NA
HETATM   11  C   UNL     1      30.164  48.613  39.166  1.00  0.00     0.140 A 
HETATM   12  O   UNL     1      30.819  47.678  39.979  1.00  0.00    -0.277 OA
ENDROOT
BRANCH   7  13
HETATM   13  C   UNL     1      31.412  51.569  40.740  1.00  0.00    -0.020 A 
HETATM   14  C   UNL     1      31.661  52.922  40.591  1.00  0.00     0.149 A 
HETATM   15  O   UNL     1      31.163  53.626  41.639  1.00  0.00    -0.334 OA
HETATM   16  C   UNL     1      30.584  52.729  42.476  1.00  0.00     0.142 A 
HETATM   17  C   UNL     1      30.706  51.456  41.974  1.00  0.00     0.034 A 
ENDBRANCH   7  13
BRANCH  11  18
HETATM   18  N   UNL     1      29.081  48.073  38.507  1.00  0.00    -0.282 NA
HETATM   19  H   UNL     1      28.239  47.947  39.065  1.00  0.00     0.126 HD
HETATM   20  H   UNL     1      29.333  47.245  37.972  1.00  0.00     0.126 HD
ENDBRANCH  11  18
BRANCH   1  21
HETATM   21  C   UNL     1      34.671  50.251  41.645  1.00  0.00    -0.007 A 
HETATM   22  C   UNL     1      34.505  51.076  42.761  1.00  0.00     0.016 A 
HETATM   23  C   UNL     1      35.499  51.991  43.120  1.00  0.00     0.037 A 
HETATM   24  C   UNL     1      36.672  52.098  42.373  1.00  0.00     0.069 A 
HETATM   25  C   UNL     1      36.831  51.302  41.239  1.00  0.00     0.037 A 
HETATM   26  C   UNL     1      35.839  50.381  40.882  1.00  0.00     0.016 A 
BRANCH  24  27
HETATM   27  O   UNL     1      37.573  53.009  42.851  1.00  0.00    -0.347 OA
BRANCH  27  28
HETATM   28  C   UNL     1      38.638  52.506  43.659  1.00  0.00     0.214 C 
BRANCH  28  29
HETATM   29  C   UNL     1      38.575  53.127  45.035  1.00  0.00    -0.034 A 
HETATM   30  C   UNL     1      39.300  52.561  46.095  1.00  0.00     0.009 A 
HETATM   31  C   UNL     1      39.266  53.135  47.367  1.00  0.00     0.001 A 
HETATM   32  C   UNL     1      38.517  54.287  47.592  1.00  0.00     0.000 A 
HETATM   33  C   UNL     1      37.805  54.870  46.546  1.00  0.00     0.001 A 
HETATM   34  C   UNL     1      37.839  54.297  45.273  1.00  0.00     0.009 A 
ENDBRANCH  28  29
ENDBRANCH  27  28
ENDBRANCH  24  27
ENDBRANCH   1  21
TORSDOF 6
ENDMDL
MODEL 5
REMARK VINA RESULT:      -8.7      5.588      7.783
REMARK  6 active torsions:
REMARK  status: ('A' for Active; 'I' for Inactive)
REMARK    1  A    between atoms: C_4  and  C_5 
REMARK    2  A    between atoms: C_5  and  O_6 
REMARK    3  A    between atoms: O_6  and  C_7 
REMARK    4  A    between atoms: C_10  and  C_11 
REMARK    5  A    between atoms: C_17  and  C_18 
REMARK    6  A    between atoms: C_26  and  N_27 
ROOT
HETATM    1  C   UNL     1      28.787  40.253  51.300  1.00  0.00     0.072 A 
HETATM    2  N   UNL     1      29.250  39.050  51.795  1.00  0.00    -0.274 N 
HETATM    3  H   UNL     1      29.534  38.843  52.747  1.00  0.00     0.189 HD
HETATM    4  N   UNL     1      29.330  38.066  50.877  1.00  0.00    -0.148 NA
HETATM    5  C   UNL     1      28.919  38.676  49.774  1.00  0.00     0.199 A 
HETATM    6  C   UNL     1      28.560  40.011  49.955  1.00  0.00     0.040 A 
HETATM    7  C   UNL     1      28.038  40.823  48.819  1.00  0.00     0.108 A 
HETATM    8  C   UNL     1      28.123  40.030  47.514  1.00  0.00     0.081 A 
HETATM    9  C   UNL     1      27.824  40.742  46.314  1.00  0.00     0.100 C 
HETATM   10  N   UNL     1      27.580  41.325  45.342  1.00  0.00    -0.191 NA
HETATM   11  C   UNL     1      28.510  38.727  47.462  1.00  0.00     0.140 A 
HETATM   12  O   UNL     1      28.870  38.008  48.608  1.00  0.00    -0.277 OA
ENDROOT
BRANCH   7  13
HETATM   13  C   UNL     1      26.634  41.301  49.084  1.00  0.00    -0.020 A 
HETATM   14  C   UNL     1      25.489  40.538  49.231  1.00  0.00     0.149 A 
HETATM   15  O   UNL     1      24.406  41.325  49.453  1.00  0.00    -0.334 OA
HETATM   16  C   UNL     1      24.845  42.608  49.453  1.00  0.00     0.142 A 
HETATM   17  C   UNL     1      26.200  42.651  49.233  1.00  0.00     0.034 A 
ENDBRANCH   7  13
BRANCH  11  18
HETATM   18  N   UNL     1      28.605  37.973  46.312  1.00  0.00    -0.282 NA
HETATM   19  H   UNL     1      29.442  38.119  45.752  1.00  0.00     0.126 HD
HETATM   20  H   UNL     1      27.747  38.003  45.764  1.00  0.00     0.126 HD
ENDBRANCH  11  18
BRANCH   1  21
HETATM   21  C   UNL     1      28.608  41.439  52.128  1.00  0.00    -0.007 A 
HETATM   22  C   UNL     1      27.332  41.828  52.547  1.00  0.00     0.016 A 
HETATM   23  C   UNL     1      27.167  42.942  53.374  1.00  0.00     0.037 A 
HETATM   24  C   UNL     1      28.269  43.687  53.796  1.00  0.00     0.069 A 
HETATM   25  C   UNL     1      29.542  43.325  53.355  1.00  0.00     0.037 A 
HETATM   26  C   UNL     1      29.709  42.205  52.532  1.00  0.00     0.016 A 
BRANCH  24  27
HETATM   27  O   UNL     1      27.970  44.731  54.626  1.00  0.00    -0.347 OA
BRANCH  27  28
HETATM   28  C   UNL     1      28.991  45.708  54.835  1.00  0.00     0.214 C 
BRANCH  28  29
HETATM   29  C   UNL     1      29.745  45.398  56.108  1.00  0.00    -0.034 A 
HETATM   30  C   UNL     1      29.346  45.982  57.320  1.00  0.00     0.009 A 
HETATM   31  C   UNL     1      30.022  45.690  58.506  1.00  0.00     0.001 A 
HETATM   32  C   UNL     1      31.095  44.803  58.498  1.00  0.00     0.000 A 
HETATM   33  C   UNL     1      31.491  44.202  57.304  1.00  0.00     0.001 A 
HETATM   34  C   UNL     1      30.817  44.493  56.117  1.00  0.00     0.009 A 
ENDBRANCH  28  29
ENDBRANCH  27  28
ENDBRANCH  24  27
ENDBRANCH   1  21
TORSDOF 6
ENDMDL
MODEL 6
REMARK VINA RESULT:      -8.7     18.517     21.881
REMARK  6 active torsions:
REMARK  status: ('A' for Active; 'I' for Inactive)
REMARK    1  A    between atoms: C_4  and  C_5 
REMARK    2  A    between atoms: C_5  and  O_6 
REMARK    3  A    between atoms: O_6  and  C_7 
REMARK    4  A    between atoms: C_10  and  C_11 
REMARK    5  A    between atoms: C_17  and  C_18 
REMARK    6  A    between atoms: C_26  and  N_27 
ROOT
HETATM    1  C   UNL     1      39.162  40.851  63.204  1.00  0.00     0.072 A 
HETATM    2  N   UNL     1      39.241  40.174  62.003  1.00  0.00    -0.274 N 
HETATM    3  H   UNL     1      38.890  40.475  61.100  1.00  0.00     0.189 HD
HETATM    4  N   UNL     1      39.851  38.974  62.082  1.00  0.00    -0.148 NA
HETATM    5  C   UNL     1      40.148  38.893  63.371  1.00  0.00     0.199 A 
HETATM    6  C   UNL     1      39.768  40.007  64.120  1.00  0.00     0.040 A 
HETATM    7  C   UNL     1      40.070  40.088  65.578  1.00  0.00     0.108 A 
HETATM    8  C   UNL     1      40.669  38.770  66.071  1.00  0.00     0.081 A 
HETATM    9  C   UNL     1      40.843  38.637  67.481  1.00  0.00     0.100 C 
HETATM   10  N   UNL     1      40.983  38.534  68.628  1.00  0.00    -0.191 NA
HETATM   11  C   UNL     1      40.981  37.739  65.241  1.00  0.00     0.140 A 
HETATM   12  O   UNL     1      40.769  37.804  63.857  1.00  0.00    -0.277 OA
ENDROOT
BRANCH   7  13
HETATM   13  C   UNL     1      40.971  41.254  65.890  1.00  0.00    -0.020 A 
HETATM   14  C   UNL     1      42.337  41.351  65.691  1.00  0.00     0.149 A 
HETATM   15  O   UNL     1      42.803  42.557  66.102  1.00  0.00    -0.334 OA
HETATM   16  C   UNL     1      41.737  43.253  66.570  1.00  0.00     0.142 A 
HETATM   17  C   UNL     1      40.590  42.503  66.463  1.00  0.00     0.034 A 
ENDBRANCH   7  13
BRANCH  11  18
HETATM   18  N   UNL     1      41.519  36.534  65.638  1.00  0.00    -0.282 NA
HETATM   19  H   UNL     1      41.980  35.992  64.910  1.00  0.00     0.126 HD
HETATM   20  H   UNL     1      40.861  35.985  66.188  1.00  0.00     0.126 HD
ENDBRANCH  11  18
BRANCH   1  21
HETATM   21  C   UNL     1      38.559  42.171  63.336  1.00  0.00    -0.007 A 
HETATM   22  C   UNL     1      39.122  43.278  62.693  1.00  0.00     0.016 A 
HETATM   23  C   UNL     1      38.518  44.535  62.788  1.00  0.00     0.037 A 
HETATM   24  C   UNL     1      37.346  44.709  63.524  1.00  0.00     0.069 A 
HETATM   25  C   UNL     1      36.796  43.618  64.195  1.00  0.00     0.037 A 
HETATM   26  C   UNL     1      37.397  42.356  64.096  1.00  0.00     0.016 A 
BRANCH  24  27
HETATM   27  O   UNL     1      36.845  45.981  63.509  1.00  0.00    -0.347 OA
BRANCH  27  28
HETATM   28  C   UNL     1      36.624  46.607  64.773  1.00  0.00     0.214 C 
BRANCH  28  29
HETATM   29  C   UNL     1      37.625  47.721  64.976  1.00  0.00    -0.034 A 
HETATM   30  C   UNL     1      37.181  49.026  65.237  1.00  0.00     0.009 A 
HETATM   31  C   UNL     1      38.096  50.060  65.445  1.00  0.00     0.001 A 
HETATM   32  C   UNL     1      39.463  49.801  65.407  1.00  0.00     0.000 A 
HETATM   33  C   UNL     1      39.918  48.506  65.165  1.00  0.00     0.001 A 
HETATM   34  C   UNL     1      39.006  47.471  64.957  1.00  0.00     0.009 A 
ENDBRANCH  28  29
ENDBRANCH  27  28
ENDBRANCH  24  27
ENDBRANCH   1  21
TORSDOF 6
ENDMDL
MODEL 7
REMARK VINA RESULT:      -8.4      3.599      8.589
REMARK  6 active torsions:
REMARK  status: ('A' for Active; 'I' for Inactive)
REMARK    1  A    between atoms: C_4  and  C_5 
REMARK    2  A    between atoms: C_5  and  O_6 
REMARK    3  A    between atoms: O_6  and  C_7 
REMARK    4  A    between atoms: C_10  and  C_11 
REMARK    5  A    between atoms: C_17  and  C_18 
REMARK    6  A    between atoms: C_26  and  N_27 
ROOT
HETATM    1  C   UNL     1      23.310  44.764  48.485  1.00  0.00     0.072 A 
HETATM    2  N   UNL     1      23.806  43.603  47.926  1.00  0.00    -0.274 N 
HETATM    3  H   UNL     1      23.410  43.068  47.160  1.00  0.00     0.189 HD
HETATM    4  N   UNL     1      24.941  43.153  48.497  1.00  0.00    -0.148 NA
HETATM    5  C   UNL     1      25.153  44.051  49.450  1.00  0.00     0.199 A 
HETATM    6  C   UNL     1      24.203  45.072  49.498  1.00  0.00     0.040 A 
HETATM    7  C   UNL     1      24.324  46.181  50.486  1.00  0.00     0.108 A 
HETATM    8  C   UNL     1      25.483  45.915  51.447  1.00  0.00     0.081 A 
HETATM    9  C   UNL     1      25.608  46.803  52.558  1.00  0.00     0.100 C 
HETATM   10  N   UNL     1      25.706  47.527  53.457  1.00  0.00    -0.191 NA
HETATM   11  C   UNL     1      26.337  44.866  51.308  1.00  0.00     0.140 A 
HETATM   12  O   UNL     1      26.213  43.935  50.267  1.00  0.00    -0.277 OA
ENDROOT
BRANCH   7  13
HETATM   13  C   UNL     1      24.470  47.515  49.801  1.00  0.00    -0.020 A 
HETATM   14  C   UNL     1      25.634  48.133  49.383  1.00  0.00     0.149 A 
HETATM   15  O   UNL     1      25.367  49.335  48.811  1.00  0.00    -0.334 OA
HETATM   16  C   UNL     1      24.022  49.501  48.853  1.00  0.00     0.142 A 
HETATM   17  C   UNL     1      23.423  48.418  49.449  1.00  0.00     0.034 A 
ENDBRANCH   7  13
BRANCH  11  18
HETATM   18  N   UNL     1      27.392  44.583  52.147  1.00  0.00    -0.282 NA
HETATM   19  H   UNL     1      28.027  43.853  51.833  1.00  0.00     0.126 HD
HETATM   20  H   UNL     1      27.091  44.463  53.112  1.00  0.00     0.126 HD
ENDBRANCH  11  18
BRANCH   1  21
HETATM   21  C   UNL     1      22.104  45.427  48.005  1.00  0.00    -0.007 A 
HETATM   22  C   UNL     1      20.959  45.488  48.805  1.00  0.00     0.016 A 
HETATM   23  C   UNL     1      19.818  46.160  48.359  1.00  0.00     0.037 A 
HETATM   24  C   UNL     1      19.799  46.781  47.110  1.00  0.00     0.069 A 
HETATM   25  C   UNL     1      20.925  46.697  46.292  1.00  0.00     0.037 A 
HETATM   26  C   UNL     1      22.072  46.029  46.741  1.00  0.00     0.016 A 
BRANCH  24  27
HETATM   27  O   UNL     1      18.633  47.428  46.811  1.00  0.00    -0.347 OA
BRANCH  27  28
HETATM   28  C   UNL     1      18.737  48.777  46.353  1.00  0.00     0.214 C 
BRANCH  28  29
HETATM   29  C   UNL     1      19.141  49.678  47.498  1.00  0.00    -0.034 A 
HETATM   30  C   UNL     1      20.330  50.419  47.423  1.00  0.00     0.009 A 
HETATM   31  C   UNL     1      20.705  51.269  48.465  1.00  0.00     0.001 A 
HETATM   32  C   UNL     1      19.892  51.397  49.588  1.00  0.00     0.000 A 
HETATM   33  C   UNL     1      18.701  50.679  49.669  1.00  0.00     0.001 A 
HETATM   34  C   UNL     1      18.324  49.829  48.628  1.00  0.00     0.009 A 
ENDBRANCH  28  29
ENDBRANCH  27  28
ENDBRANCH  24  27
ENDBRANCH   1  21
TORSDOF 6
ENDMDL
MODEL 8
REMARK VINA RESULT:      -8.1      3.392      7.900
REMARK  6 active torsions:
REMARK  status: ('A' for Active; 'I' for Inactive)
REMARK    1  A    between atoms: C_4  and  C_5 
REMARK    2  A    between atoms: C_5  and  O_6 
REMARK    3  A    between atoms: O_6  and  C_7 
REMARK    4  A    between atoms: C_10  and  C_11 
REMARK    5  A    between atoms: C_17  and  C_18 
REMARK    6  A    between atoms: C_26  and  N_27 
ROOT
HETATM    1  C   UNL     1      26.388  43.344  51.326  1.00  0.00     0.072 A 
HETATM    2  N   UNL     1      27.468  42.484  51.357  1.00  0.00    -0.274 N 
HETATM    3  H   UNL     1      27.597  41.635  50.817  1.00  0.00     0.189 HD
HETATM    4  N   UNL     1      28.435  42.840  52.226  1.00  0.00    -0.148 NA
HETATM    5  C   UNL     1      27.940  43.945  52.763  1.00  0.00     0.199 A 
HETATM    6  C   UNL     1      26.696  44.323  52.256  1.00  0.00     0.040 A 
HETATM    7  C   UNL     1      26.025  45.568  52.727  1.00  0.00     0.108 A 
HETATM    8  C   UNL     1      26.812  46.194  53.879  1.00  0.00     0.081 A 
HETATM    9  C   UNL     1      26.196  47.293  54.550  1.00  0.00     0.100 C 
HETATM   10  N   UNL     1      25.690  48.186  55.091  1.00  0.00    -0.191 NA
HETATM   11  C   UNL     1      28.015  45.720  54.300  1.00  0.00     0.140 A 
HETATM   12  O   UNL     1      28.627  44.607  53.710  1.00  0.00    -0.277 OA
ENDROOT
BRANCH   7  13
HETATM   13  C   UNL     1      25.825  46.546  51.599  1.00  0.00    -0.020 A 
HETATM   14  C   UNL     1      26.700  47.520  51.152  1.00  0.00     0.149 A 
HETATM   15  O   UNL     1      26.165  48.214  50.116  1.00  0.00    -0.334 OA
HETATM   16  C   UNL     1      24.936  47.691  49.883  1.00  0.00     0.142 A 
HETATM   17  C   UNL     1      24.677  46.667  50.761  1.00  0.00     0.034 A 
ENDBRANCH   7  13
BRANCH  11  18
HETATM   18  N   UNL     1      28.759  46.248  55.333  1.00  0.00    -0.282 NA
HETATM   19  H   UNL     1      29.603  46.749  55.062  1.00  0.00     0.126 HD
HETATM   20  H   UNL     1      28.919  45.569  56.075  1.00  0.00     0.126 HD
ENDBRANCH  11  18
BRANCH   1  21
HETATM   21  C   UNL     1      25.243  43.154  50.444  1.00  0.00    -0.007 A 
HETATM   22  C   UNL     1      23.966  42.940  50.972  1.00  0.00     0.016 A 
HETATM   23  C   UNL     1      22.864  42.799  50.125  1.00  0.00     0.037 A 
HETATM   24  C   UNL     1      23.016  42.867  48.740  1.00  0.00     0.069 A 
HETATM   25  C   UNL     1      24.291  43.047  48.204  1.00  0.00     0.037 A 
HETATM   26  C   UNL     1      25.395  43.196  49.053  1.00  0.00     0.016 A 
BRANCH  24  27
HETATM   27  O   UNL     1      21.854  42.744  48.030  1.00  0.00    -0.347 OA
BRANCH  27  28
HETATM   28  C   UNL     1      21.653  43.658  46.951  1.00  0.00     0.214 C 
BRANCH  28  29
HETATM   29  C   UNL     1      21.325  45.030  47.494  1.00  0.00    -0.034 A 
HETATM   30  C   UNL     1      20.176  45.220  48.275  1.00  0.00     0.009 A 
HETATM   31  C   UNL     1      19.872  46.479  48.799  1.00  0.00     0.001 A 
HETATM   32  C   UNL     1      20.719  47.558  48.557  1.00  0.00     0.000 A 
HETATM   33  C   UNL     1      21.872  47.379  47.796  1.00  0.00     0.001 A 
HETATM   34  C   UNL     1      22.178  46.122  47.272  1.00  0.00     0.009 A 
ENDBRANCH  28  29
ENDBRANCH  27  28
ENDBRANCH  24  27
ENDBRANCH   1  21
TORSDOF 6
ENDMDL
MODEL 9
REMARK VINA RESULT:      -8.1      3.568      8.909
REMARK  6 active torsions:
REMARK  status: ('A' for Active; 'I' for Inactive)
REMARK    1  A    between atoms: C_4  and  C_5 
REMARK    2  A    between atoms: C_5  and  O_6 
REMARK    3  A    between atoms: O_6  and  C_7 
REMARK    4  A    between atoms: C_10  and  C_11 
REMARK    5  A    between atoms: C_17  and  C_18 
REMARK    6  A    between atoms: C_26  and  N_27 
ROOT
HETATM    1  C   UNL     1      24.173  43.775  48.878  1.00  0.00     0.072 A 
HETATM    2  N   UNL     1      24.417  42.773  47.960  1.00  0.00    -0.274 N 
HETATM    3  H   UNL     1      23.873  42.546  47.134  1.00  0.00     0.189 HD
HETATM    4  N   UNL     1      25.504  42.024  48.234  1.00  0.00    -0.148 NA
HETATM    5  C   UNL     1      25.943  42.564  49.361  1.00  0.00     0.199 A 
HETATM    6  C   UNL     1      25.187  43.647  49.812  1.00  0.00     0.040 A 
HETATM    7  C   UNL     1      25.576  44.390  51.044  1.00  0.00     0.108 A 
HETATM    8  C   UNL     1      26.751  43.697  51.737  1.00  0.00     0.081 A 
HETATM    9  C   UNL     1      27.116  44.194  53.023  1.00  0.00     0.100 C 
HETATM   10  N   UNL     1      27.410  44.602  54.068  1.00  0.00    -0.191 NA
HETATM   11  C   UNL     1      27.400  42.628  51.203  1.00  0.00     0.140 A 
HETATM   12  O   UNL     1      27.034  42.070  49.971  1.00  0.00    -0.277 OA
ENDROOT
BRANCH   7  13
HETATM   13  C   UNL     1      25.886  45.833  50.742  1.00  0.00    -0.020 A 
HETATM   14  C   UNL     1      25.372  46.960  51.357  1.00  0.00     0.149 A 
HETATM   15  O   UNL     1      25.885  48.090  50.807  1.00  0.00    -0.334 OA
HETATM   16  C   UNL     1      26.740  47.699  49.830  1.00  0.00     0.142 A 
HETATM   17  C   UNL     1      26.780  46.328  49.748  1.00  0.00     0.034 A 
ENDBRANCH   7  13
BRANCH  11  18
HETATM   18  N   UNL     1      28.460  41.969  51.789  1.00  0.00    -0.282 NA
HETATM   19  H   UNL     1      29.314  41.925  51.238  1.00  0.00     0.126 HD
HETATM   20  H   UNL     1      28.184  41.067  52.172  1.00  0.00     0.126 HD
ENDBRANCH  11  18
BRANCH   1  21
HETATM   21  C   UNL     1      23.060  44.709  48.760  1.00  0.00    -0.007 A 
HETATM   22  C   UNL     1      23.294  46.071  48.547  1.00  0.00     0.016 A 
HETATM   23  C   UNL     1      22.224  46.958  48.394  1.00  0.00     0.037 A 
HETATM   24  C   UNL     1      20.907  46.503  48.450  1.00  0.00     0.069 A 
HETATM   25  C   UNL     1      20.665  45.152  48.694  1.00  0.00     0.037 A 
HETATM   26  C   UNL     1      21.736  44.261  48.842  1.00  0.00     0.016 A 
BRANCH  24  27
HETATM   27  O   UNL     1      19.960  47.468  48.253  1.00  0.00    -0.347 OA
BRANCH  27  28
HETATM   28  C   UNL     1      19.368  48.044  49.419  1.00  0.00     0.214 C 
BRANCH  28  29
HETATM   29  C   UNL     1      19.242  49.540  49.244  1.00  0.00    -0.034 A 
HETATM   30  C   UNL     1      18.267  50.252  49.960  1.00  0.00     0.009 A 
HETATM   31  C   UNL     1      18.152  51.636  49.823  1.00  0.00     0.001 A 
HETATM   32  C   UNL     1      19.017  52.327  48.978  1.00  0.00     0.000 A 
HETATM   33  C   UNL     1      20.001  51.636  48.274  1.00  0.00     0.001 A 
HETATM   34  C   UNL     1      20.118  50.252  48.410  1.00  0.00     0.009 A 
ENDBRANCH  28  29
ENDBRANCH  27  28
ENDBRANCH  24  27
ENDBRANCH   1  21
TORSDOF 6
ENDMDL
MODEL 10
REMARK VINA RESULT:      -8.0      5.185      8.188
REMARK  6 active torsions:
REMARK  status: ('A' for Active; 'I' for Inactive)
REMARK    1  A    between atoms: C_4  and  C_5 
REMARK    2  A    between atoms: C_5  and  O_6 
REMARK    3  A    between atoms: O_6  and  C_7 
REMARK    4  A    between atoms: C_10  and  C_11 
REMARK    5  A    between atoms: C_17  and  C_18 
REMARK    6  A    between atoms: C_26  and  N_27 
ROOT
HETATM    1  C   UNL     1      28.660  40.267  51.087  1.00  0.00     0.072 A 
HETATM    2  N   UNL     1      29.166  39.088  51.598  1.00  0.00    -0.274 N 
HETATM    3  H   UNL     1      29.444  38.900  52.556  1.00  0.00     0.189 HD
HETATM    4  N   UNL     1      29.303  38.103  50.689  1.00  0.00    -0.148 NA
HETATM    5  C   UNL     1      28.885  38.686  49.575  1.00  0.00     0.199 A 
HETATM    6  C   UNL     1      28.465  40.006  49.740  1.00  0.00     0.040 A 
HETATM    7  C   UNL     1      27.928  40.787  48.590  1.00  0.00     0.108 A 
HETATM    8  C   UNL     1      28.068  39.989  47.292  1.00  0.00     0.081 A 
HETATM    9  C   UNL     1      27.759  40.680  46.082  1.00  0.00     0.100 C 
HETATM   10  N   UNL     1      27.505  41.245  45.103  1.00  0.00    -0.191 NA
HETATM   11  C   UNL     1      28.512  38.704  47.256  1.00  0.00     0.140 A 
HETATM   12  O   UNL     1      28.884  38.009  48.414  1.00  0.00    -0.277 OA
ENDROOT
BRANCH   7  13
HETATM   13  C   UNL     1      26.500  41.206  48.828  1.00  0.00    -0.020 A 
HETATM   14  C   UNL     1      25.365  40.415  48.798  1.00  0.00     0.149 A 
HETATM   15  O   UNL     1      24.254  41.150  49.057  1.00  0.00    -0.334 OA
HETATM   16  C   UNL     1      24.665  42.427  49.259  1.00  0.00     0.142 A 
HETATM   17  C   UNL     1      26.030  42.517  49.132  1.00  0.00     0.034 A 
ENDBRANCH   7  13
BRANCH  11  18
HETATM   18  N   UNL     1      28.657  37.947  46.114  1.00  0.00    -0.282 NA
HETATM   19  H   UNL     1      28.109  38.245  45.310  1.00  0.00     0.126 HD
HETATM   20  H   UNL     1      28.578  36.950  46.304  1.00  0.00     0.126 HD
ENDBRANCH  11  18
BRANCH   1  21
HETATM   21  C   UNL     1      28.417  41.450  51.902  1.00  0.00    -0.007 A 
HETATM   22  C   UNL     1      28.726  42.725  51.417  1.00  0.00     0.016 A 
HETATM   23  C   UNL     1      28.453  43.860  52.185  1.00  0.00     0.037 A 
HETATM   24  C   UNL     1      27.869  43.744  53.447  1.00  0.00     0.069 A 
HETATM   25  C   UNL     1      27.588  42.475  53.952  1.00  0.00     0.037 A 
HETATM   26  C   UNL     1      27.855  41.337  53.180  1.00  0.00     0.016 A 
BRANCH  24  27
HETATM   27  O   UNL     1      27.629  44.933  54.077  1.00  0.00    -0.347 OA
BRANCH  27  28
HETATM   28  C   UNL     1      26.267  45.352  54.176  1.00  0.00     0.214 C 
BRANCH  28  29
HETATM   29  C   UNL     1      25.780  45.837  52.830  1.00  0.00    -0.034 A 
HETATM   30  C   UNL     1      26.277  47.034  52.292  1.00  0.00     0.009 A 
HETATM   31  C   UNL     1      25.849  47.483  51.042  1.00  0.00     0.001 A 
HETATM   32  C   UNL     1      24.930  46.738  50.309  1.00  0.00     0.000 A 
HETATM   33  C   UNL     1      24.440  45.539  50.823  1.00  0.00     0.001 A 
HETATM   34  C   UNL     1      24.867  45.087  52.073  1.00  0.00     0.009 A 
ENDBRANCH  28  29
ENDBRANCH  27  28
ENDBRANCH  24  27
ENDBRANCH   1  21
TORSDOF 6
ENDMDL
