MODEL 1
REMARK VINA RESULT:     -11.8      0.000      0.000
REMARK  6 active torsions:
REMARK  status: ('A' for Active; 'I' for Inactive)
REMARK    1  A    between atoms: C_8  and  C_9 
REMARK    2  A    between atoms: C_9  and  C_10 
REMARK    3  A    between atoms: C_10  and  N_11 
REMARK       I    between atoms: N_11  and  C_12 
REMARK    4  A    between atoms: C_12  and  C_13 
REMARK    5  A    between atoms: C_18  and  C_19 
REMARK    6  A    between atoms: C_29  and  C_30 
ROOT
HETATM    1  C   UNL     1      26.085  47.365  50.027  1.00  0.00     0.148 A 
HETATM    2  N   UNL     1      26.446  46.175  49.489  1.00  0.00    -0.165 NA
HETATM    3  N   UNL     1      26.646  45.397  50.567  1.00  0.00    -0.240 N 
HETATM    4  C   UNL     1      26.488  46.043  51.760  1.00  0.00     0.123 A 
HETATM    5  N   UNL     1      26.760  45.432  52.930  1.00  0.00    -0.366 N 
HETATM    6  C   UNL     1      27.467  44.154  53.001  1.00  0.00     0.118 C 
HETATM    7  C   UNL     1      28.101  43.775  51.644  1.00  0.00     0.066 C 
HETATM    8  C   UNL     1      27.150  44.042  50.464  1.00  0.00     0.221 C 
HETATM    9  C   UNL     1      26.071  47.307  51.449  1.00  0.00     0.088 A 
HETATM   10  H   UNL     1      26.646  45.922  53.816  1.00  0.00     0.161 HD
ENDROOT
BRANCH   1  11
HETATM   11  C   UNL     1      25.793  48.550  49.208  1.00  0.00     0.272 C 
HETATM   12  N   UNL     1      24.453  48.861  49.140  1.00  0.00    -0.355 N 
HETATM   13  H   UNL     1      23.865  48.376  49.814  1.00  0.00     0.162 HD
HETATM   14  O   UNL     1      26.667  49.197  48.639  1.00  0.00    -0.266 OA
BRANCH  12  15
HETATM   15  C   UNL     1      23.993  50.072  48.497  1.00  0.00     0.127 C 
BRANCH  15  16
HETATM   16  C   UNL     1      22.734  49.867  47.655  1.00  0.00     0.060 C 
BRANCH  16  17
HETATM   17  C   UNL     1      21.526  49.560  48.486  1.00  0.00    -0.029 A 
HETATM   18  C   UNL     1      20.446  50.446  48.807  1.00  0.00    -0.002 A 
HETATM   19  C   UNL     1      20.155  51.791  48.503  1.00  0.00     0.014 A 
HETATM   20  C   UNL     1      19.536  49.730  49.584  1.00  0.00     0.042 A 
HETATM   21  C   UNL     1      18.972  52.367  48.982  1.00  0.00     0.001 A 
HETATM   22  C   UNL     1      18.083  51.623  49.754  1.00  0.00     0.002 A 
HETATM   23  C   UNL     1      18.349  50.288  50.071  1.00  0.00     0.030 A 
HETATM   24  N   UNL     1      20.042  48.460  49.737  1.00  0.00    -0.365 N 
HETATM   25  H   UNL     1      19.589  47.721  50.254  1.00  0.00     0.165 HD
HETATM   26  C   UNL     1      21.240  48.348  49.085  1.00  0.00     0.096 A 
ENDBRANCH  16  17
ENDBRANCH  15  16
ENDBRANCH  12  15
ENDBRANCH   1  11
BRANCH   8  27
HETATM   27  C   UNL     1      26.004  43.059  50.404  1.00  0.00     0.409 C 
HETATM   28  F   UNL     1      24.887  43.526  51.002  1.00  0.00    -0.169 F 
HETATM   29  F   UNL     1      25.675  42.825  49.105  1.00  0.00    -0.169 F 
HETATM   30  F   UNL     1      26.293  41.858  50.947  1.00  0.00    -0.169 F 
ENDBRANCH   8  27
BRANCH   6  31
HETATM   31  C   UNL     1      28.509  44.249  54.104  1.00  0.00    -0.033 A 
HETATM   32  C   UNL     1      28.420  45.251  55.092  1.00  0.00     0.049 A 
HETATM   33  C   UNL     1      29.366  45.274  56.092  1.00  0.00     0.105 A 
HETATM   34  C   UNL     1      30.379  44.350  56.151  1.00  0.00     0.105 A 
HETATM   35  O   UNL     1      29.414  46.167  57.116  1.00  0.00    -0.323 OA
HETATM   36  O   UNL     1      31.195  44.543  57.222  1.00  0.00    -0.323 OA
HETATM   37  C   UNL     1      30.504  43.351  55.210  1.00  0.00     0.040 A 
HETATM   38  C   UNL     1      30.573  45.691  57.834  1.00  0.00     0.352 A 
HETATM   39  C   UNL     1      29.559  43.303  54.178  1.00  0.00     0.012 A 
ENDBRANCH   6  31
TORSDOF 6
ENDMDL
MODEL 2
REMARK VINA RESULT:     -11.1      2.991     10.435
REMARK  6 active torsions:
REMARK  status: ('A' for Active; 'I' for Inactive)
REMARK    1  A    between atoms: C_8  and  C_9 
REMARK    2  A    between atoms: C_9  and  C_10 
REMARK    3  A    between atoms: C_10  and  N_11 
REMARK       I    between atoms: N_11  and  C_12 
REMARK    4  A    between atoms: C_12  and  C_13 
REMARK    5  A    between atoms: C_18  and  C_19 
REMARK    6  A    between atoms: C_29  and  C_30 
ROOT
HETATM    1  C   UNL     1      24.664  44.632  51.443  1.00  0.00     0.148 A 
HETATM    2  N   UNL     1      23.662  43.968  50.819  1.00  0.00    -0.165 NA
HETATM    3  N   UNL     1      23.267  44.830  49.866  1.00  0.00    -0.240 N 
HETATM    4  C   UNL     1      23.924  46.027  49.888  1.00  0.00     0.123 A 
HETATM    5  N   UNL     1      23.569  47.037  49.069  1.00  0.00    -0.366 N 
HETATM    6  C   UNL     1      22.329  47.021  48.296  1.00  0.00     0.118 C 
HETATM    7  C   UNL     1      21.381  45.892  48.760  1.00  0.00     0.066 C 
HETATM    8  C   UNL     1      22.129  44.570  49.006  1.00  0.00     0.221 C 
HETATM    9  C   UNL     1      24.875  45.914  50.864  1.00  0.00     0.088 A 
HETATM   10  H   UNL     1      24.060  47.930  49.096  1.00  0.00     0.161 HD
ENDROOT
BRANCH   1  11
HETATM   11  C   UNL     1      25.387  44.075  52.596  1.00  0.00     0.272 C 
HETATM   12  N   UNL     1      26.569  43.452  52.261  1.00  0.00    -0.355 N 
HETATM   13  H   UNL     1      26.894  43.630  51.313  1.00  0.00     0.162 HD
HETATM   14  O   UNL     1      24.971  44.161  53.746  1.00  0.00    -0.266 OA
BRANCH  12  15
HETATM   15  C   UNL     1      27.480  42.970  53.276  1.00  0.00     0.127 C 
BRANCH  15  16
HETATM   16  C   UNL     1      28.811  43.720  53.296  1.00  0.00     0.060 C 
BRANCH  16  17
HETATM   17  C   UNL     1      28.991  44.549  54.531  1.00  0.00    -0.029 A 
HETATM   18  C   UNL     1      29.914  44.317  55.603  1.00  0.00    -0.002 A 
HETATM   19  C   UNL     1      30.882  43.329  55.870  1.00  0.00     0.014 A 
HETATM   20  C   UNL     1      29.745  45.348  56.527  1.00  0.00     0.042 A 
HETATM   21  C   UNL     1      31.643  43.407  57.043  1.00  0.00     0.001 A 
HETATM   22  C   UNL     1      31.452  44.452  57.945  1.00  0.00     0.002 A 
HETATM   23  C   UNL     1      30.497  45.444  57.704  1.00  0.00     0.030 A 
HETATM   24  N   UNL     1      28.756  46.172  56.042  1.00  0.00    -0.365 N 
HETATM   25  H   UNL     1      28.427  47.006  56.506  1.00  0.00     0.165 HD
HETATM   26  C   UNL     1      28.292  45.698  54.846  1.00  0.00     0.096 A 
ENDBRANCH  16  17
ENDBRANCH  15  16
ENDBRANCH  12  15
ENDBRANCH   1  11
BRANCH   8  27
HETATM   27  C   UNL     1      22.580  43.907  47.726  1.00  0.00     0.409 C 
HETATM   28  F   UNL     1      22.527  42.560  47.792  1.00  0.00    -0.169 F 
HETATM   29  F   UNL     1      21.756  44.275  46.709  1.00  0.00    -0.169 F 
HETATM   30  F   UNL     1      23.828  44.254  47.349  1.00  0.00    -0.169 F 
ENDBRANCH   8  27
BRANCH   6  31
HETATM   31  C   UNL     1      21.677  48.389  48.416  1.00  0.00    -0.033 A 
HETATM   32  C   UNL     1      20.488  48.555  49.155  1.00  0.00     0.049 A 
HETATM   33  C   UNL     1      19.954  49.820  49.268  1.00  0.00     0.105 A 
HETATM   34  C   UNL     1      20.552  50.911  48.688  1.00  0.00     0.105 A 
HETATM   35  O   UNL     1      18.823  50.145  49.948  1.00  0.00    -0.323 OA
HETATM   36  O   UNL     1      19.873  52.064  48.930  1.00  0.00    -0.323 OA
HETATM   37  C   UNL     1      21.718  50.797  47.961  1.00  0.00     0.040 A 
HETATM   38  C   UNL     1      18.782  51.572  49.736  1.00  0.00     0.352 A 
HETATM   39  C   UNL     1      22.282  49.523  47.825  1.00  0.00     0.012 A 
ENDBRANCH   6  31
TORSDOF 6
ENDMDL
MODEL 3
REMARK VINA RESULT:     -10.9      2.618      4.126
REMARK  6 active torsions:
REMARK  status: ('A' for Active; 'I' for Inactive)
REMARK    1  A    between atoms: C_8  and  C_9 
REMARK    2  A    between atoms: C_9  and  C_10 
REMARK    3  A    between atoms: C_10  and  N_11 
REMARK       I    between atoms: N_11  and  C_12 
REMARK    4  A    between atoms: C_12  and  C_13 
REMARK    5  A    between atoms: C_18  and  C_19 
REMARK    6  A    between atoms: C_29  and  C_30 
ROOT
HETATM    1  C   UNL     1      24.483  43.952  49.511  1.00  0.00     0.148 A 
HETATM    2  N   UNL     1      25.422  43.108  49.021  1.00  0.00    -0.165 NA
HETATM    3  N   UNL     1      26.049  42.669  50.126  1.00  0.00    -0.240 N 
HETATM    4  C   UNL     1      25.598  43.233  51.286  1.00  0.00     0.123 A 
HETATM    5  N   UNL     1      26.196  42.981  52.467  1.00  0.00    -0.366 N 
HETATM    6  C   UNL     1      27.490  42.309  52.563  1.00  0.00     0.118 C 
HETATM    7  C   UNL     1      28.187  42.213  51.187  1.00  0.00     0.066 C 
HETATM    8  C   UNL     1      27.212  41.806  50.070  1.00  0.00     0.221 C 
HETATM    9  C   UNL     1      24.545  44.029  50.930  1.00  0.00     0.088 A 
HETATM   10  H   UNL     1      25.858  43.411  53.328  1.00  0.00     0.161 HD
ENDROOT
BRANCH   1  11
HETATM   11  C   UNL     1      23.562  44.703  48.644  1.00  0.00     0.272 C 
HETATM   12  N   UNL     1      22.957  45.771  49.270  1.00  0.00    -0.355 N 
HETATM   13  H   UNL     1      23.366  46.030  50.165  1.00  0.00     0.162 HD
HETATM   14  O   UNL     1      23.356  44.401  47.473  1.00  0.00    -0.266 OA
BRANCH  12  15
HETATM   15  C   UNL     1      22.131  46.703  48.536  1.00  0.00     0.127 C 
BRANCH  15  16
HETATM   16  C   UNL     1      22.123  48.107  49.141  1.00  0.00     0.060 C 
BRANCH  16  17
HETATM   17  C   UNL     1      23.261  48.953  48.656  1.00  0.00    -0.029 A 
HETATM   18  C   UNL     1      24.649  48.803  48.974  1.00  0.00    -0.002 A 
HETATM   19  C   UNL     1      25.383  47.909  49.781  1.00  0.00     0.014 A 
HETATM   20  C   UNL     1      25.345  49.796  48.284  1.00  0.00     0.042 A 
HETATM   21  C   UNL     1      26.774  48.039  49.867  1.00  0.00     0.001 A 
HETATM   22  C   UNL     1      27.438  49.041  49.163  1.00  0.00     0.002 A 
HETATM   23  C   UNL     1      26.735  49.941  48.357  1.00  0.00     0.030 A 
HETATM   24  N   UNL     1      24.417  50.526  47.579  1.00  0.00    -0.365 N 
HETATM   25  H   UNL     1      24.639  51.311  46.984  1.00  0.00     0.165 HD
HETATM   26  C   UNL     1      23.160  50.032  47.798  1.00  0.00     0.096 A 
ENDBRANCH  16  17
ENDBRANCH  15  16
ENDBRANCH  12  15
ENDBRANCH   1  11
BRANCH   8  27
HETATM   27  C   UNL     1      26.793  40.357  50.158  1.00  0.00     0.409 C 
HETATM   28  F   UNL     1      27.761  39.566  50.667  1.00  0.00    -0.169 F 
HETATM   29  F   UNL     1      25.725  40.243  50.991  1.00  0.00    -0.169 F 
HETATM   30  F   UNL     1      26.411  39.832  48.974  1.00  0.00    -0.169 F 
ENDBRANCH   8  27
BRANCH   6  31
HETATM   31  C   UNL     1      28.341  43.060  53.575  1.00  0.00    -0.033 A 
HETATM   32  C   UNL     1      27.811  44.156  54.286  1.00  0.00     0.049 A 
HETATM   33  C   UNL     1      28.607  44.781  55.220  1.00  0.00     0.105 A 
HETATM   34  C   UNL     1      29.889  44.362  55.475  1.00  0.00     0.105 A 
HETATM   35  O   UNL     1      28.242  45.841  55.989  1.00  0.00    -0.323 OA
HETATM   36  O   UNL     1      30.496  45.105  56.438  1.00  0.00    -0.323 OA
HETATM   37  C   UNL     1      30.447  43.293  54.807  1.00  0.00     0.040 A 
HETATM   38  C   UNL     1      29.443  46.036  56.766  1.00  0.00     0.352 A 
HETATM   39  C   UNL     1      29.664  42.639  53.849  1.00  0.00     0.012 A 
ENDBRANCH   6  31
TORSDOF 6
ENDMDL
MODEL 4
REMARK VINA RESULT:     -10.7      1.407      1.757
REMARK  6 active torsions:
REMARK  status: ('A' for Active; 'I' for Inactive)
REMARK    1  A    between atoms: C_8  and  C_9 
REMARK    2  A    between atoms: C_9  and  C_10 
REMARK    3  A    between atoms: C_10  and  N_11 
REMARK       I    between atoms: N_11  and  C_12 
REMARK    4  A    between atoms: C_12  and  C_13 
REMARK    5  A    between atoms: C_18  and  C_19 
REMARK    6  A    between atoms: C_29  and  C_30 
ROOT
HETATM    1  C   UNL     1      25.089  46.379  50.383  1.00  0.00     0.148 A 
HETATM    2  N   UNL     1      25.767  45.386  49.760  1.00  0.00    -0.165 NA
HETATM    3  N   UNL     1      26.250  44.655  50.779  1.00  0.00    -0.240 N 
HETATM    4  C   UNL     1      25.965  45.162  52.015  1.00  0.00     0.123 A 
HETATM    5  N   UNL     1      26.470  44.607  53.135  1.00  0.00    -0.366 N 
HETATM    6  C   UNL     1      27.535  43.607  53.102  1.00  0.00     0.118 C 
HETATM    7  C   UNL     1      28.184  43.509  51.703  1.00  0.00     0.066 C 
HETATM    8  C   UNL     1      27.138  43.527  50.575  1.00  0.00     0.221 C 
HETATM    9  C   UNL     1      25.166  46.250  51.798  1.00  0.00     0.088 A 
HETATM   10  H   UNL     1      26.258  44.995  54.053  1.00  0.00     0.161 HD
ENDROOT
BRANCH   1  11
HETATM   11  C   UNL     1      24.407  47.456  49.650  1.00  0.00     0.272 C 
HETATM   12  N   UNL     1      23.285  47.039  48.968  1.00  0.00    -0.355 N 
HETATM   13  H   UNL     1      22.953  46.109  49.216  1.00  0.00     0.162 HD
HETATM   14  O   UNL     1      24.806  48.616  49.649  1.00  0.00    -0.266 OA
BRANCH  12  15
HETATM   15  C   UNL     1      22.412  47.983  48.308  1.00  0.00     0.127 C 
BRANCH  15  16
HETATM   16  C   UNL     1      20.929  47.661  48.488  1.00  0.00     0.060 C 
BRANCH  16  17
HETATM   17  C   UNL     1      20.037  48.589  47.720  1.00  0.00    -0.029 A 
HETATM   18  C   UNL     1      19.668  49.927  48.075  1.00  0.00    -0.002 A 
HETATM   19  C   UNL     1      19.964  50.772  49.164  1.00  0.00     0.014 A 
HETATM   20  C   UNL     1      18.842  50.414  47.062  1.00  0.00     0.042 A 
HETATM   21  C   UNL     1      19.429  52.066  49.198  1.00  0.00     0.001 A 
HETATM   22  C   UNL     1      18.610  52.523  48.168  1.00  0.00     0.002 A 
HETATM   23  C   UNL     1      18.300  51.704  47.079  1.00  0.00     0.030 A 
HETATM   24  N   UNL     1      18.709  49.412  46.129  1.00  0.00    -0.365 N 
HETATM   25  H   UNL     1      18.167  49.488  45.281  1.00  0.00     0.165 HD
HETATM   26  C   UNL     1      19.419  48.309  46.517  1.00  0.00     0.096 A 
ENDBRANCH  16  17
ENDBRANCH  15  16
ENDBRANCH  12  15
ENDBRANCH   1  11
BRANCH   8  27
HETATM   27  C   UNL     1      26.344  42.244  50.493  1.00  0.00     0.409 C 
HETATM   28  F   UNL     1      26.198  41.804  49.225  1.00  0.00    -0.169 F 
HETATM   29  F   UNL     1      26.998  41.262  51.168  1.00  0.00    -0.169 F 
HETATM   30  F   UNL     1      25.116  42.333  51.044  1.00  0.00    -0.169 F 
ENDBRANCH   8  27
BRANCH   6  31
HETATM   31  C   UNL     1      28.554  43.964  54.172  1.00  0.00    -0.033 A 
HETATM   32  C   UNL     1      28.293  44.996  55.096  1.00  0.00     0.049 A 
HETATM   33  C   UNL     1      29.230  45.259  56.072  1.00  0.00     0.105 A 
HETATM   34  C   UNL     1      30.396  44.540  56.166  1.00  0.00     0.105 A 
HETATM   35  O   UNL     1      29.124  46.212  57.035  1.00  0.00    -0.323 OA
HETATM   36  O   UNL     1      31.174  44.950  57.204  1.00  0.00    -0.323 OA
HETATM   37  C   UNL     1      30.691  43.520  55.288  1.00  0.00     0.040 A 
HETATM   38  C   UNL     1      30.358  46.004  57.755  1.00  0.00     0.352 A 
HETATM   39  C   UNL     1      29.760  43.232  54.283  1.00  0.00     0.012 A 
ENDBRANCH   6  31
TORSDOF 6
ENDMDL
MODEL 5
REMARK VINA RESULT:     -10.1      2.301      2.824
REMARK  6 active torsions:
REMARK  status: ('A' for Active; 'I' for Inactive)
REMARK    1  A    between atoms: C_8  and  C_9 
REMARK    2  A    between atoms: C_9  and  C_10 
REMARK    3  A    between atoms: C_10  and  N_11 
REMARK       I    between atoms: N_11  and  C_12 
REMARK    4  A    between atoms: C_12  and  C_13 
REMARK    5  A    between atoms: C_18  and  C_19 
REMARK    6  A    between atoms: C_29  and  C_30 
ROOT
HETATM    1  C   UNL     1      24.128  44.166  49.461  1.00  0.00     0.148 A 
HETATM    2  N   UNL     1      25.143  43.415  48.972  1.00  0.00    -0.165 NA
HETATM    3  N   UNL     1      25.780  42.997  50.080  1.00  0.00    -0.240 N 
HETATM    4  C   UNL     1      25.260  43.491  51.242  1.00  0.00     0.123 A 
HETATM    5  N   UNL     1      25.851  43.255  52.430  1.00  0.00    -0.366 N 
HETATM    6  C   UNL     1      27.194  42.688  52.539  1.00  0.00     0.118 C 
HETATM    7  C   UNL     1      27.926  42.686  51.178  1.00  0.00     0.066 C 
HETATM    8  C   UNL     1      27.011  42.233  50.028  1.00  0.00     0.221 C 
HETATM    9  C   UNL     1      24.154  44.209  50.883  1.00  0.00     0.088 A 
HETATM   10  H   UNL     1      25.461  43.632  53.294  1.00  0.00     0.161 HD
ENDROOT
BRANCH   1  11
HETATM   11  C   UNL     1      23.169  44.865  48.593  1.00  0.00     0.272 C 
HETATM   12  N   UNL     1      22.471  45.867  49.230  1.00  0.00    -0.355 N 
HETATM   13  H   UNL     1      22.841  46.136  50.139  1.00  0.00     0.162 HD
HETATM   14  O   UNL     1      23.009  44.575  47.411  1.00  0.00    -0.266 OA
BRANCH  12  15
HETATM   15  C   UNL     1      21.588  46.750  48.501  1.00  0.00     0.127 C 
BRANCH  15  16
HETATM   16  C   UNL     1      22.302  47.971  47.921  1.00  0.00     0.060 C 
BRANCH  16  17
HETATM   17  C   UNL     1      21.800  49.261  48.493  1.00  0.00    -0.029 A 
HETATM   18  C   UNL     1      20.686  50.037  48.034  1.00  0.00    -0.002 A 
HETATM   19  C   UNL     1      19.756  49.898  46.984  1.00  0.00     0.014 A 
HETATM   20  C   UNL     1      20.575  51.145  48.875  1.00  0.00     0.042 A 
HETATM   21  C   UNL     1      18.756  50.862  46.815  1.00  0.00     0.001 A 
HETATM   22  C   UNL     1      18.672  51.956  47.674  1.00  0.00     0.002 A 
HETATM   23  C   UNL     1      19.581  52.118  48.722  1.00  0.00     0.030 A 
HETATM   24  N   UNL     1      21.584  51.051  49.805  1.00  0.00    -0.365 N 
HETATM   25  H   UNL     1      21.744  51.719  50.546  1.00  0.00     0.165 HD
HETATM   26  C   UNL     1      22.329  49.926  49.582  1.00  0.00     0.096 A 
ENDBRANCH  16  17
ENDBRANCH  15  16
ENDBRANCH  12  15
ENDBRANCH   1  11
BRANCH   8  27
HETATM   27  C   UNL     1      26.710  40.753  50.068  1.00  0.00     0.409 C 
HETATM   28  F   UNL     1      27.642  40.051  50.746  1.00  0.00    -0.169 F 
HETATM   29  F   UNL     1      25.530  40.547  50.712  1.00  0.00    -0.169 F 
HETATM   30  F   UNL     1      26.579  40.195  48.846  1.00  0.00    -0.169 F 
ENDBRANCH   8  27
BRANCH   6  31
HETATM   31  C   UNL     1      27.959  43.476  53.590  1.00  0.00    -0.033 A 
HETATM   32  C   UNL     1      29.126  42.946  54.176  1.00  0.00     0.049 A 
HETATM   33  C   UNL     1      29.808  43.714  55.095  1.00  0.00     0.105 A 
HETATM   34  C   UNL     1      29.383  44.972  55.444  1.00  0.00     0.105 A 
HETATM   35  O   UNL     1      30.947  43.350  55.741  1.00  0.00    -0.323 OA
HETATM   36  O   UNL     1      30.202  45.561  56.355  1.00  0.00    -0.323 OA
HETATM   37  C   UNL     1      28.250  45.532  54.893  1.00  0.00     0.040 A 
HETATM   38  C   UNL     1      31.196  44.531  56.533  1.00  0.00     0.352 A 
HETATM   39  C   UNL     1      27.534  44.775  53.958  1.00  0.00     0.012 A 
ENDBRANCH   6  31
TORSDOF 6
ENDMDL
MODEL 6
REMARK VINA RESULT:     -10.0      3.368     10.929
REMARK  6 active torsions:
REMARK  status: ('A' for Active; 'I' for Inactive)
REMARK    1  A    between atoms: C_8  and  C_9 
REMARK    2  A    between atoms: C_9  and  C_10 
REMARK    3  A    between atoms: C_10  and  N_11 
REMARK       I    between atoms: N_11  and  C_12 
REMARK    4  A    between atoms: C_12  and  C_13 
REMARK    5  A    between atoms: C_18  and  C_19 
REMARK    6  A    between atoms: C_29  and  C_30 
ROOT
HETATM    1  C   UNL     1      24.189  47.114  49.790  1.00  0.00     0.148 A 
HETATM    2  N   UNL     1      23.324  46.095  49.571  1.00  0.00    -0.165 NA
HETATM    3  N   UNL     1      22.419  46.632  48.735  1.00  0.00    -0.240 N 
HETATM    4  C   UNL     1      22.629  47.953  48.457  1.00  0.00     0.123 A 
HETATM    5  N   UNL     1      21.750  48.664  47.724  1.00  0.00    -0.366 N 
HETATM    6  C   UNL     1      20.418  48.162  47.394  1.00  0.00     0.118 C 
HETATM    7  C   UNL     1      20.059  46.906  48.219  1.00  0.00     0.066 C 
HETATM    8  C   UNL     1      21.233  45.916  48.308  1.00  0.00     0.221 C 
HETATM    9  C   UNL     1      23.799  48.285  49.081  1.00  0.00     0.088 A 
HETATM   10  H   UNL     1      21.910  49.651  47.526  1.00  0.00     0.161 HD
ENDROOT
BRANCH   1  11
HETATM   11  C   UNL     1      25.348  46.993  50.686  1.00  0.00     0.272 C 
HETATM   12  N   UNL     1      25.409  45.790  51.355  1.00  0.00    -0.355 N 
HETATM   13  H   UNL     1      24.781  45.071  51.002  1.00  0.00     0.162 HD
HETATM   14  O   UNL     1      26.180  47.884  50.821  1.00  0.00    -0.266 OA
BRANCH  12  15
HETATM   15  C   UNL     1      26.551  45.439  52.170  1.00  0.00     0.127 C 
BRANCH  15  16
HETATM   16  C   UNL     1      26.256  44.323  53.172  1.00  0.00     0.060 C 
BRANCH  16  17
HETATM   17  C   UNL     1      27.493  43.606  53.619  1.00  0.00    -0.029 A 
HETATM   18  C   UNL     1      28.520  44.106  54.484  1.00  0.00    -0.002 A 
HETATM   19  C   UNL     1      28.733  45.327  55.155  1.00  0.00     0.014 A 
HETATM   20  C   UNL     1      29.465  43.090  54.640  1.00  0.00     0.042 A 
HETATM   21  C   UNL     1      29.872  45.487  55.953  1.00  0.00     0.001 A 
HETATM   22  C   UNL     1      30.794  44.452  56.089  1.00  0.00     0.002 A 
HETATM   23  C   UNL     1      30.608  43.232  55.434  1.00  0.00     0.030 A 
HETATM   24  N   UNL     1      29.034  42.017  53.895  1.00  0.00    -0.365 N 
HETATM   25  H   UNL     1      29.522  41.137  53.825  1.00  0.00     0.165 HD
HETATM   26  C   UNL     1      27.852  42.317  53.274  1.00  0.00     0.096 A 
ENDBRANCH  16  17
ENDBRANCH  15  16
ENDBRANCH  12  15
ENDBRANCH   1  11
BRANCH   8  27
HETATM   27  C   UNL     1      21.495  45.201  47.003  1.00  0.00     0.409 C 
HETATM   28  F   UNL     1      22.454  45.799  46.266  1.00  0.00    -0.169 F 
HETATM   29  F   UNL     1      21.935  43.940  47.257  1.00  0.00    -0.169 F 
HETATM   30  F   UNL     1      20.398  45.072  46.228  1.00  0.00    -0.169 F 
ENDBRANCH   8  27
BRANCH   6  31
HETATM   31  C   UNL     1      19.418  49.287  47.616  1.00  0.00    -0.033 A 
HETATM   32  C   UNL     1      18.978  49.608  48.916  1.00  0.00     0.049 A 
HETATM   33  C   UNL     1      18.102  50.660  49.072  1.00  0.00     0.105 A 
HETATM   34  C   UNL     1      17.658  51.397  48.002  1.00  0.00     0.105 A 
HETATM   35  O   UNL     1      17.592  51.097  50.254  1.00  0.00    -0.323 OA
HETATM   36  O   UNL     1      16.812  52.393  48.375  1.00  0.00    -0.323 OA
HETATM   37  C   UNL     1      18.066  51.121  46.715  1.00  0.00     0.040 A 
HETATM   38  C   UNL     1      16.780  52.203  49.804  1.00  0.00     0.352 A 
HETATM   39  C   UNL     1      18.953  50.056  46.523  1.00  0.00     0.012 A 
ENDBRANCH   6  31
TORSDOF 6
ENDMDL
MODEL 7
REMARK VINA RESULT:      -9.8      4.402     11.860
REMARK  6 active torsions:
REMARK  status: ('A' for Active; 'I' for Inactive)
REMARK    1  A    between atoms: C_8  and  C_9 
REMARK    2  A    between atoms: C_9  and  C_10 
REMARK    3  A    between atoms: C_10  and  N_11 
REMARK       I    between atoms: N_11  and  C_12 
REMARK    4  A    between atoms: C_12  and  C_13 
REMARK    5  A    between atoms: C_18  and  C_19 
REMARK    6  A    between atoms: C_29  and  C_30 
ROOT
HETATM    1  C   UNL     1      23.681  48.341  49.411  1.00  0.00     0.148 A 
HETATM    2  N   UNL     1      23.304  49.625  49.619  1.00  0.00    -0.165 NA
HETATM    3  N   UNL     1      22.038  49.652  49.168  1.00  0.00    -0.240 N 
HETATM    4  C   UNL     1      21.611  48.470  48.632  1.00  0.00     0.123 A 
HETATM    5  N   UNL     1      20.406  48.365  48.039  1.00  0.00    -0.366 N 
HETATM    6  C   UNL     1      19.592  49.532  47.704  1.00  0.00     0.118 C 
HETATM    7  C   UNL     1      20.396  50.845  47.832  1.00  0.00     0.066 C 
HETATM    8  C   UNL     1      21.262  50.874  49.103  1.00  0.00     0.221 C 
HETATM    9  C   UNL     1      22.632  47.582  48.822  1.00  0.00     0.088 A 
HETATM   10  H   UNL     1      20.096  47.481  47.635  1.00  0.00     0.161 HD
ENDROOT
BRANCH   1  11
HETATM   11  C   UNL     1      25.029  47.848  49.732  1.00  0.00     0.272 C 
HETATM   12  N   UNL     1      25.047  46.874  50.706  1.00  0.00    -0.355 N 
HETATM   13  H   UNL     1      24.138  46.475  50.930  1.00  0.00     0.162 HD
HETATM   14  O   UNL     1      26.040  48.271  49.180  1.00  0.00    -0.266 OA
BRANCH  12  15
HETATM   15  C   UNL     1      26.266  46.176  51.049  1.00  0.00     0.127 C 
BRANCH  15  16
HETATM   16  C   UNL     1      26.119  45.274  52.275  1.00  0.00     0.060 C 
BRANCH  16  17
HETATM   17  C   UNL     1      27.268  44.326  52.437  1.00  0.00    -0.029 A 
HETATM   18  C   UNL     1      28.239  44.313  53.491  1.00  0.00    -0.002 A 
HETATM   19  C   UNL     1      28.458  45.106  54.636  1.00  0.00     0.014 A 
HETATM   20  C   UNL     1      29.106  43.248  53.245  1.00  0.00     0.042 A 
HETATM   21  C   UNL     1      29.527  44.806  55.488  1.00  0.00     0.001 A 
HETATM   22  C   UNL     1      30.374  43.734  55.215  1.00  0.00     0.002 A 
HETATM   23  C   UNL     1      30.179  42.933  54.087  1.00  0.00     0.030 A 
HETATM   24  N   UNL     1      28.684  42.640  52.086  1.00  0.00    -0.365 N 
HETATM   25  H   UNL     1      29.127  41.834  51.669  1.00  0.00     0.165 HD
HETATM   26  C   UNL     1      27.584  43.282  51.589  1.00  0.00     0.096 A 
ENDBRANCH  16  17
ENDBRANCH  15  16
ENDBRANCH  12  15
ENDBRANCH   1  11
BRANCH   8  27
HETATM   27  C   UNL     1      20.445  51.043  50.363  1.00  0.00     0.409 C 
HETATM   28  F   UNL     1      21.188  51.452  51.414  1.00  0.00    -0.169 F 
HETATM   29  F   UNL     1      19.500  52.000  50.166  1.00  0.00    -0.169 F 
HETATM   30  F   UNL     1      19.785  49.926  50.733  1.00  0.00    -0.169 F 
ENDBRANCH   8  27
BRANCH   6  31
HETATM   31  C   UNL     1      19.044  49.341  46.299  1.00  0.00    -0.033 A 
HETATM   32  C   UNL     1      18.738  50.455  45.490  1.00  0.00     0.049 A 
HETATM   33  C   UNL     1      18.281  50.233  44.210  1.00  0.00     0.105 A 
HETATM   34  C   UNL     1      18.124  48.965  43.708  1.00  0.00     0.105 A 
HETATM   35  O   UNL     1      17.950  51.195  43.309  1.00  0.00    -0.323 OA
HETATM   36  O   UNL     1      17.674  48.968  42.425  1.00  0.00    -0.323 OA
HETATM   37  C   UNL     1      18.414  47.847  44.460  1.00  0.00     0.040 A 
HETATM   38  C   UNL     1      17.574  50.385  42.175  1.00  0.00     0.352 A 
HETATM   39  C   UNL     1      18.878  48.040  45.767  1.00  0.00     0.012 A 
ENDBRANCH   6  31
TORSDOF 6
ENDMDL
MODEL 8
REMARK VINA RESULT:      -9.5     12.378     16.142
REMARK  6 active torsions:
REMARK  status: ('A' for Active; 'I' for Inactive)
REMARK    1  A    between atoms: C_8  and  C_9 
REMARK    2  A    between atoms: C_9  and  C_10 
REMARK    3  A    between atoms: C_10  and  N_11 
REMARK       I    between atoms: N_11  and  C_12 
REMARK    4  A    between atoms: C_12  and  C_13 
REMARK    5  A    between atoms: C_18  and  C_19 
REMARK    6  A    between atoms: C_29  and  C_30 
ROOT
HETATM    1  C   UNL     1      33.638  51.248  42.288  1.00  0.00     0.148 A 
HETATM    2  N   UNL     1      33.118  52.041  41.320  1.00  0.00    -0.165 NA
HETATM    3  N   UNL     1      31.834  51.649  41.258  1.00  0.00    -0.240 N 
HETATM    4  C   UNL     1      31.525  50.612  42.090  1.00  0.00     0.123 A 
HETATM    5  N   UNL     1      30.309  50.032  42.066  1.00  0.00    -0.366 N 
HETATM    6  C   UNL     1      29.338  50.289  41.004  1.00  0.00     0.118 C 
HETATM    7  C   UNL     1      29.980  51.034  39.811  1.00  0.00     0.066 C 
HETATM    8  C   UNL     1      30.910  52.170  40.270  1.00  0.00     0.221 C 
HETATM    9  C   UNL     1      32.658  50.362  42.813  1.00  0.00     0.088 A 
HETATM   10  H   UNL     1      30.087  49.253  42.686  1.00  0.00     0.161 HD
ENDROOT
BRANCH   1  11
HETATM   11  C   UNL     1      35.053  51.304  42.684  1.00  0.00     0.272 C 
HETATM   12  N   UNL     1      35.336  52.296  43.597  1.00  0.00    -0.355 N 
HETATM   13  H   UNL     1      34.521  52.720  44.034  1.00  0.00     0.162 HD
HETATM   14  O   UNL     1      35.899  50.535  42.237  1.00  0.00    -0.266 OA
BRANCH  12  15
HETATM   15  C   UNL     1      36.643  52.409  44.204  1.00  0.00     0.127 C 
BRANCH  15  16
HETATM   16  C   UNL     1      37.072  53.856  44.446  1.00  0.00     0.060 C 
BRANCH  16  17
HETATM   17  C   UNL     1      38.478  53.966  44.952  1.00  0.00    -0.029 A 
HETATM   18  C   UNL     1      38.911  53.949  46.318  1.00  0.00    -0.002 A 
HETATM   19  C   UNL     1      38.250  53.845  47.558  1.00  0.00     0.014 A 
HETATM   20  C   UNL     1      40.302  54.058  46.315  1.00  0.00     0.042 A 
HETATM   21  C   UNL     1      38.997  53.851  48.742  1.00  0.00     0.001 A 
HETATM   22  C   UNL     1      40.386  53.960  48.704  1.00  0.00     0.002 A 
HETATM   23  C   UNL     1      41.065  54.066  47.488  1.00  0.00     0.030 A 
HETATM   24  N   UNL     1      40.700  54.144  45.001  1.00  0.00    -0.365 N 
HETATM   25  H   UNL     1      41.660  54.229  44.699  1.00  0.00     0.165 HD
HETATM   26  C   UNL     1      39.612  54.095  44.174  1.00  0.00     0.096 A 
ENDBRANCH  16  17
ENDBRANCH  15  16
ENDBRANCH  12  15
ENDBRANCH   1  11
BRANCH   8  27
HETATM   27  C   UNL     1      30.155  53.353  40.831  1.00  0.00     0.409 C 
HETATM   28  F   UNL     1      30.812  54.519  40.657  1.00  0.00    -0.169 F 
HETATM   29  F   UNL     1      28.966  53.481  40.185  1.00  0.00    -0.169 F 
HETATM   30  F   UNL     1      29.865  53.235  42.143  1.00  0.00    -0.169 F 
ENDBRANCH   8  27
BRANCH   6  31
HETATM   31  C   UNL     1      28.735  48.960  40.579  1.00  0.00    -0.033 A 
HETATM   32  C   UNL     1      29.563  47.855  40.293  1.00  0.00     0.049 A 
HETATM   33  C   UNL     1      28.970  46.660  39.950  1.00  0.00     0.105 A 
HETATM   34  C   UNL     1      27.605  46.522  39.886  1.00  0.00     0.105 A 
HETATM   35  O   UNL     1      29.625  45.507  39.653  1.00  0.00    -0.323 OA
HETATM   36  O   UNL     1      27.228  45.262  39.542  1.00  0.00    -0.323 OA
HETATM   37  C   UNL     1      26.757  47.573  40.162  1.00  0.00     0.040 A 
HETATM   38  C   UNL     1      28.513  44.621  39.403  1.00  0.00     0.352 A 
HETATM   39  C   UNL     1      27.331  48.801  40.511  1.00  0.00     0.012 A 
ENDBRANCH   6  31
TORSDOF 6
ENDMDL
MODEL 9
REMARK VINA RESULT:      -9.3     17.905     21.735
REMARK  6 active torsions:
REMARK  status: ('A' for Active; 'I' for Inactive)
REMARK    1  A    between atoms: C_8  and  C_9 
REMARK    2  A    between atoms: C_9  and  C_10 
REMARK    3  A    between atoms: C_10  and  N_11 
REMARK       I    between atoms: N_11  and  C_12 
REMARK    4  A    between atoms: C_12  and  C_13 
REMARK    5  A    between atoms: C_18  and  C_19 
REMARK    6  A    between atoms: C_29  and  C_30 
ROOT
HETATM    1  C   UNL     1      38.174  41.552  63.783  1.00  0.00     0.148 A 
HETATM    2  N   UNL     1      37.430  41.418  64.907  1.00  0.00    -0.165 NA
HETATM    3  N   UNL     1      36.749  42.575  64.966  1.00  0.00    -0.240 N 
HETATM    4  C   UNL     1      37.063  43.460  63.974  1.00  0.00     0.123 A 
HETATM    5  N   UNL     1      36.549  44.705  63.956  1.00  0.00    -0.366 N 
HETATM    6  C   UNL     1      35.838  45.277  65.099  1.00  0.00     0.118 C 
HETATM    7  C   UNL     1      36.021  44.420  66.372  1.00  0.00     0.066 C 
HETATM    8  C   UNL     1      35.888  42.915  66.082  1.00  0.00     0.221 C 
HETATM    9  C   UNL     1      37.944  42.808  63.157  1.00  0.00     0.088 A 
HETATM   10  H   UNL     1      36.792  45.363  63.216  1.00  0.00     0.161 HD
ENDROOT
BRANCH   1  11
HETATM   11  C   UNL     1      39.117  40.520  63.328  1.00  0.00     0.272 C 
HETATM   12  N   UNL     1      39.858  39.957  64.344  1.00  0.00    -0.355 N 
HETATM   13  H   UNL     1      39.525  40.166  65.282  1.00  0.00     0.162 HD
HETATM   14  O   UNL     1      39.229  40.195  62.150  1.00  0.00    -0.266 OA
BRANCH  12  15
HETATM   15  C   UNL     1      40.732  38.831  64.103  1.00  0.00     0.127 C 
BRANCH  15  16
HETATM   16  C   UNL     1      41.634  38.503  65.292  1.00  0.00     0.060 C 
BRANCH  16  17
HETATM   17  C   UNL     1      41.865  37.031  65.455  1.00  0.00    -0.029 A 
HETATM   18  C   UNL     1      40.934  36.057  65.940  1.00  0.00    -0.002 A 
HETATM   19  C   UNL     1      39.604  36.113  66.404  1.00  0.00     0.014 A 
HETATM   20  C   UNL     1      41.571  34.816  65.902  1.00  0.00     0.042 A 
HETATM   21  C   UNL     1      38.963  34.935  66.808  1.00  0.00     0.001 A 
HETATM   22  C   UNL     1      39.627  33.712  66.755  1.00  0.00     0.002 A 
HETATM   23  C   UNL     1      40.946  33.629  66.300  1.00  0.00     0.030 A 
HETATM   24  N   UNL     1      42.841  35.027  65.418  1.00  0.00    -0.365 N 
HETATM   25  H   UNL     1      43.528  34.301  65.280  1.00  0.00     0.165 HD
HETATM   26  C   UNL     1      43.030  36.355  65.151  1.00  0.00     0.096 A 
ENDBRANCH  16  17
ENDBRANCH  15  16
ENDBRANCH  12  15
ENDBRANCH   1  11
BRANCH   8  27
HETATM   27  C   UNL     1      34.465  42.498  65.791  1.00  0.00     0.409 C 
HETATM   28  F   UNL     1      34.390  41.499  64.886  1.00  0.00    -0.169 F 
HETATM   29  F   UNL     1      33.888  42.030  66.929  1.00  0.00    -0.169 F 
HETATM   30  F   UNL     1      33.685  43.509  65.356  1.00  0.00    -0.169 F 
ENDBRANCH   8  27
BRANCH   6  31
HETATM   31  C   UNL     1      36.333  46.700  65.302  1.00  0.00    -0.033 A 
HETATM   32  C   UNL     1      36.293  47.298  66.578  1.00  0.00     0.049 A 
HETATM   33  C   UNL     1      36.788  48.576  66.721  1.00  0.00     0.105 A 
HETATM   34  C   UNL     1      37.318  49.269  65.661  1.00  0.00     0.105 A 
HETATM   35  O   UNL     1      36.827  49.285  67.880  1.00  0.00    -0.323 OA
HETATM   36  O   UNL     1      37.760  50.504  66.019  1.00  0.00    -0.323 OA
HETATM   37  C   UNL     1      37.381  48.723  64.397  1.00  0.00     0.040 A 
HETATM   38  C   UNL     1      37.453  50.504  67.429  1.00  0.00     0.352 A 
HETATM   39  C   UNL     1      36.883  47.426  64.220  1.00  0.00     0.012 A 
ENDBRANCH   6  31
TORSDOF 6
ENDMDL
MODEL 10
REMARK VINA RESULT:      -9.2      4.035      5.293
REMARK  6 active torsions:
REMARK  status: ('A' for Active; 'I' for Inactive)
REMARK    1  A    between atoms: C_8  and  C_9 
REMARK    2  A    between atoms: C_9  and  C_10 
REMARK    3  A    between atoms: C_10  and  N_11 
REMARK       I    between atoms: N_11  and  C_12 
REMARK    4  A    between atoms: C_12  and  C_13 
REMARK    5  A    between atoms: C_18  and  C_19 
REMARK    6  A    between atoms: C_29  and  C_30 
ROOT
HETATM    1  C   UNL     1      22.690  44.609  48.517  1.00  0.00     0.148 A 
HETATM    2  N   UNL     1      22.927  45.116  49.751  1.00  0.00    -0.165 NA
HETATM    3  N   UNL     1      24.216  44.804  49.970  1.00  0.00    -0.240 N 
HETATM    4  C   UNL     1      24.793  44.076  48.969  1.00  0.00     0.123 A 
HETATM    5  N   UNL     1      26.045  43.592  49.086  1.00  0.00    -0.366 N 
HETATM    6  C   UNL     1      26.769  43.589  50.356  1.00  0.00     0.118 C 
HETATM    7  C   UNL     1      25.837  43.911  51.545  1.00  0.00     0.066 C 
HETATM    8  C   UNL     1      24.876  45.071  51.233  1.00  0.00     0.221 C 
HETATM    9  C   UNL     1      23.848  43.978  47.986  1.00  0.00     0.088 A 
HETATM   10  H   UNL     1      26.468  43.045  48.337  1.00  0.00     0.161 HD
ENDROOT
BRANCH   1  11
HETATM   11  C   UNL     1      21.374  44.688  47.866  1.00  0.00     0.272 C 
HETATM   12  N   UNL     1      20.829  45.953  47.868  1.00  0.00    -0.355 N 
HETATM   13  H   UNL     1      21.474  46.698  48.125  1.00  0.00     0.162 HD
HETATM   14  O   UNL     1      20.818  43.714  47.369  1.00  0.00    -0.266 OA
BRANCH  12  15
HETATM   15  C   UNL     1      19.608  46.248  47.152  1.00  0.00     0.127 C 
BRANCH  15  16
HETATM   16  C   UNL     1      19.344  47.746  47.001  1.00  0.00     0.060 C 
BRANCH  16  17
HETATM   17  C   UNL     1      19.788  48.535  48.195  1.00  0.00    -0.029 A 
HETATM   18  C   UNL     1      20.966  49.342  48.310  1.00  0.00    -0.002 A 
HETATM   19  C   UNL     1      22.035  49.652  47.444  1.00  0.00     0.014 A 
HETATM   20  C   UNL     1      20.963  49.904  49.587  1.00  0.00     0.042 A 
HETATM   21  C   UNL     1      23.052  50.508  47.882  1.00  0.00     0.001 A 
HETATM   22  C   UNL     1      23.018  51.054  49.163  1.00  0.00     0.002 A 
HETATM   23  C   UNL     1      21.971  50.762  50.041  1.00  0.00     0.030 A 
HETATM   24  N   UNL     1      19.832  49.454  50.226  1.00  0.00    -0.365 N 
HETATM   25  H   UNL     1      19.569  49.705  51.168  1.00  0.00     0.165 HD
HETATM   26  C   UNL     1      19.120  48.627  49.400  1.00  0.00     0.096 A 
ENDBRANCH  16  17
ENDBRANCH  15  16
ENDBRANCH  12  15
ENDBRANCH   1  11
BRANCH   8  27
HETATM   27  C   UNL     1      25.573  46.411  51.186  1.00  0.00     0.409 C 
HETATM   28  F   UNL     1      26.116  46.673  49.978  1.00  0.00    -0.169 F 
HETATM   29  F   UNL     1      24.671  47.400  51.424  1.00  0.00    -0.169 F 
HETATM   30  F   UNL     1      26.542  46.548  52.114  1.00  0.00    -0.169 F 
ENDBRANCH   8  27
BRANCH   6  31
HETATM   31  C   UNL     1      27.440  42.234  50.516  1.00  0.00    -0.033 A 
HETATM   32  C   UNL     1      27.538  41.348  49.425  1.00  0.00     0.049 A 
HETATM   33  C   UNL     1      28.188  40.148  49.608  1.00  0.00     0.105 A 
HETATM   34  C   UNL     1      28.742  39.802  50.816  1.00  0.00     0.105 A 
HETATM   35  O   UNL     1      28.372  39.193  48.658  1.00  0.00    -0.323 OA
HETATM   36  O   UNL     1      29.346  38.584  50.780  1.00  0.00    -0.323 OA
HETATM   37  C   UNL     1      28.674  40.638  51.909  1.00  0.00     0.040 A 
HETATM   38  C   UNL     1      29.115  38.207  49.406  1.00  0.00     0.352 A 
HETATM   39  C   UNL     1      28.016  41.864  51.755  1.00  0.00     0.012 A 
ENDBRANCH   6  31
TORSDOF 6
ENDMDL
