MODEL 1
REMARK VINA RESULT:      -9.4      0.000      0.000
REMARK  6 active torsions:
REMARK  status: ('A' for Active; 'I' for Inactive)
REMARK    1  A    between atoms: C_4  and  C_5 
REMARK    2  A    between atoms: C_6  and  O_7 
REMARK    3  A    between atoms: O_7  and  C_8 
REMARK    4  A    between atoms: C_8  and  C_9 
REMARK       I    between atoms: C_9  and  N_10 
REMARK    5  A    between atoms: N_10  and  N_11 
REMARK    6  A    between atoms: C_12  and  C_13 
ROOT
HETATM    1  O   UNL     1      27.280  44.616  55.052  1.00  0.00    -0.341 OA
ENDROOT
BRANCH   1   2
HETATM    2  C   UNL     1      28.087  43.836  54.259  1.00  0.00     0.080 A 
HETATM    3  C   UNL     1      29.436  43.673  54.632  1.00  0.00     0.007 A 
HETATM    4  C   UNL     1      30.265  42.919  53.782  1.00  0.00     0.015 A 
HETATM    5  C   UNL     1      29.774  42.359  52.599  1.00  0.00     0.001 A 
HETATM    6  C   UNL     1      28.443  42.551  52.239  1.00  0.00     0.003 A 
HETATM    7  C   UNL     1      27.600  43.295  53.064  1.00  0.00     0.037 A 
BRANCH   3   8
HETATM    8  C   UNL     1      29.991  44.247  55.870  1.00  0.00    -0.023 A 
HETATM    9  C   UNL     1      29.520  45.470  56.378  1.00  0.00     0.012 A 
HETATM   10  C   UNL     1      30.040  46.006  57.558  1.00  0.00     0.001 A 
HETATM   11  C   UNL     1      31.033  45.324  58.256  1.00  0.00     0.000 A 
HETATM   12  C   UNL     1      31.510  44.108  57.773  1.00  0.00     0.001 A 
HETATM   13  C   UNL     1      30.993  43.575  56.588  1.00  0.00     0.012 A 
ENDBRANCH   3   8
ENDBRANCH   1   2
BRANCH   1  14
HETATM   14  C   UNL     1      25.998  44.855  54.463  1.00  0.00     0.280 C 
BRANCH  14  15
HETATM   15  C   UNL     1      25.951  46.228  53.799  1.00  0.00     0.261 C 
HETATM   16  N   UNL     1      26.116  46.176  52.424  1.00  0.00    -0.246 N 
HETATM   17  H   UNL     1      26.300  45.273  51.989  1.00  0.00     0.192 HD
HETATM   18  O   UNL     1      25.762  47.251  54.455  1.00  0.00    -0.269 OA
BRANCH  16  19
HETATM   19  N   UNL     1      26.069  47.315  51.680  1.00  0.00    -0.182 NA
HETATM   20  C   UNL     1      26.104  47.146  50.397  1.00  0.00     0.168 C 
BRANCH  20  21
HETATM   21  C   UNL     1      26.059  48.297  49.537  1.00  0.00     0.051 A 
HETATM   22  N   UNL     1      24.886  48.843  49.064  1.00  0.00    -0.365 N 
HETATM   23  H   UNL     1      23.968  48.474  49.283  1.00  0.00     0.165 HD
HETATM   24  C   UNL     1      25.161  49.930  48.279  1.00  0.00     0.088 A 
HETATM   25  C   UNL     1      26.528  50.084  48.232  1.00  0.00     0.019 A 
HETATM   26  C   UNL     1      27.095  49.056  49.025  1.00  0.00     0.032 A 
ENDBRANCH  20  21
ENDBRANCH  16  19
ENDBRANCH  14  15
ENDBRANCH   1  14
TORSDOF 6
ENDMDL
MODEL 2
REMARK VINA RESULT:      -9.3      1.618      3.948
REMARK  6 active torsions:
REMARK  status: ('A' for Active; 'I' for Inactive)
REMARK    1  A    between atoms: C_4  and  C_5 
REMARK    2  A    between atoms: C_6  and  O_7 
REMARK    3  A    between atoms: O_7  and  C_8 
REMARK    4  A    between atoms: C_8  and  C_9 
REMARK       I    between atoms: C_9  and  N_10 
REMARK    5  A    between atoms: N_10  and  N_11 
REMARK    6  A    between atoms: C_12  and  C_13 
ROOT
HETATM    1  O   UNL     1      27.683  45.559  54.848  1.00  0.00    -0.341 OA
ENDROOT
BRANCH   1   2
HETATM    2  C   UNL     1      28.871  45.068  55.332  1.00  0.00     0.080 A 
HETATM    3  C   UNL     1      29.391  43.889  54.761  1.00  0.00     0.007 A 
HETATM    4  C   UNL     1      30.579  43.366  55.303  1.00  0.00     0.015 A 
HETATM    5  C   UNL     1      31.219  43.985  56.381  1.00  0.00     0.001 A 
HETATM    6  C   UNL     1      30.676  45.136  56.945  1.00  0.00     0.003 A 
HETATM    7  C   UNL     1      29.498  45.674  56.426  1.00  0.00     0.037 A 
BRANCH   3   8
HETATM    8  C   UNL     1      28.747  43.208  53.624  1.00  0.00    -0.023 A 
HETATM    9  C   UNL     1      28.454  41.834  53.671  1.00  0.00     0.012 A 
HETATM   10  C   UNL     1      27.833  41.194  52.597  1.00  0.00     0.001 A 
HETATM   11  C   UNL     1      27.485  41.918  51.460  1.00  0.00     0.000 A 
HETATM   12  C   UNL     1      27.761  43.282  51.395  1.00  0.00     0.001 A 
HETATM   13  C   UNL     1      28.388  43.921  52.469  1.00  0.00     0.012 A 
ENDBRANCH   3   8
ENDBRANCH   1   2
BRANCH   1  14
HETATM   14  C   UNL     1      27.577  46.978  54.992  1.00  0.00     0.280 C 
BRANCH  14  15
HETATM   15  C   UNL     1      26.384  47.517  54.207  1.00  0.00     0.261 C 
HETATM   16  N   UNL     1      26.298  47.002  52.923  1.00  0.00    -0.246 N 
HETATM   17  H   UNL     1      27.032  46.374  52.600  1.00  0.00     0.192 HD
HETATM   18  O   UNL     1      25.592  48.312  54.710  1.00  0.00    -0.269 OA
BRANCH  16  19
HETATM   19  N   UNL     1      25.271  47.360  52.103  1.00  0.00    -0.182 NA
HETATM   20  C   UNL     1      25.440  47.095  50.849  1.00  0.00     0.168 C 
BRANCH  20  21
HETATM   21  C   UNL     1      24.406  47.442  49.913  1.00  0.00     0.051 A 
HETATM   22  N   UNL     1      23.387  46.584  49.561  1.00  0.00    -0.365 N 
HETATM   23  H   UNL     1      23.291  45.646  49.931  1.00  0.00     0.165 HD
HETATM   24  C   UNL     1      22.553  47.193  48.662  1.00  0.00     0.088 A 
HETATM   25  C   UNL     1      23.044  48.456  48.418  1.00  0.00     0.019 A 
HETATM   26  C   UNL     1      24.211  48.614  49.206  1.00  0.00     0.032 A 
ENDBRANCH  20  21
ENDBRANCH  16  19
ENDBRANCH  14  15
ENDBRANCH   1  14
TORSDOF 6
ENDMDL
MODEL 3
REMARK VINA RESULT:      -8.9      3.481      6.367
REMARK  6 active torsions:
REMARK  status: ('A' for Active; 'I' for Inactive)
REMARK    1  A    between atoms: C_4  and  C_5 
REMARK    2  A    between atoms: C_6  and  O_7 
REMARK    3  A    between atoms: O_7  and  C_8 
REMARK    4  A    between atoms: C_8  and  C_9 
REMARK       I    between atoms: C_9  and  N_10 
REMARK    5  A    between atoms: N_10  and  N_11 
REMARK    6  A    between atoms: C_12  and  C_13 
ROOT
HETATM    1  O   UNL     1      26.558  44.382  53.608  1.00  0.00    -0.341 OA
ENDROOT
BRANCH   1   2
HETATM    2  C   UNL     1      26.724  45.672  54.052  1.00  0.00     0.080 A 
HETATM    3  C   UNL     1      27.893  45.988  54.772  1.00  0.00     0.007 A 
HETATM    4  C   UNL     1      28.025  47.298  55.268  1.00  0.00     0.015 A 
HETATM    5  C   UNL     1      27.024  48.253  55.068  1.00  0.00     0.001 A 
HETATM    6  C   UNL     1      25.866  47.913  54.374  1.00  0.00     0.003 A 
HETATM    7  C   UNL     1      25.712  46.621  53.871  1.00  0.00     0.037 A 
BRANCH   3   8
HETATM    8  C   UNL     1      28.970  45.009  55.003  1.00  0.00    -0.023 A 
HETATM    9  C   UNL     1      29.829  45.121  56.109  1.00  0.00     0.012 A 
HETATM   10  C   UNL     1      30.841  44.186  56.332  1.00  0.00     0.001 A 
HETATM   11  C   UNL     1      31.007  43.115  55.457  1.00  0.00     0.000 A 
HETATM   12  C   UNL     1      30.163  42.983  54.357  1.00  0.00     0.001 A 
HETATM   13  C   UNL     1      29.153  43.923  54.132  1.00  0.00     0.012 A 
ENDBRANCH   3   8
ENDBRANCH   1   2
BRANCH   1  14
HETATM   14  C   UNL     1      25.576  44.280  52.573  1.00  0.00     0.280 C 
BRANCH  14  15
HETATM   15  C   UNL     1      25.928  43.160  51.597  1.00  0.00     0.261 C 
HETATM   16  N   UNL     1      26.677  42.147  52.176  1.00  0.00    -0.246 N 
HETATM   17  H   UNL     1      26.966  42.249  53.147  1.00  0.00     0.192 HD
HETATM   18  O   UNL     1      25.546  43.185  50.429  1.00  0.00    -0.269 OA
BRANCH  16  19
HETATM   19  N   UNL     1      27.047  41.059  51.445  1.00  0.00    -0.182 NA
HETATM   20  C   UNL     1      28.321  40.853  51.357  1.00  0.00     0.168 C 
BRANCH  20  21
HETATM   21  C   UNL     1      28.798  39.726  50.603  1.00  0.00     0.051 A 
HETATM   22  N   UNL     1      29.530  38.700  51.158  1.00  0.00    -0.365 N 
HETATM   23  H   UNL     1      29.790  38.663  52.137  1.00  0.00     0.165 HD
HETATM   24  C   UNL     1      29.834  37.771  50.200  1.00  0.00     0.088 A 
HETATM   25  C   UNL     1      29.303  38.206  49.006  1.00  0.00     0.019 A 
HETATM   26  C   UNL     1      28.649  39.437  49.259  1.00  0.00     0.032 A 
ENDBRANCH  20  21
ENDBRANCH  16  19
ENDBRANCH  14  15
ENDBRANCH   1  14
TORSDOF 6
ENDMDL
MODEL 4
REMARK VINA RESULT:      -8.8      2.029      2.685
REMARK  6 active torsions:
REMARK  status: ('A' for Active; 'I' for Inactive)
REMARK    1  A    between atoms: C_4  and  C_5 
REMARK    2  A    between atoms: C_6  and  O_7 
REMARK    3  A    between atoms: O_7  and  C_8 
REMARK    4  A    between atoms: C_8  and  C_9 
REMARK       I    between atoms: C_9  and  N_10 
REMARK    5  A    between atoms: N_10  and  N_11 
REMARK    6  A    between atoms: C_12  and  C_13 
ROOT
HETATM    1  O   UNL     1      26.956  44.764  52.643  1.00  0.00    -0.341 OA
ENDROOT
BRANCH   1   2
HETATM    2  C   UNL     1      27.380  43.458  52.593  1.00  0.00     0.080 A 
HETATM    3  C   UNL     1      28.416  43.057  53.460  1.00  0.00     0.007 A 
HETATM    4  C   UNL     1      28.879  41.732  53.359  1.00  0.00     0.015 A 
HETATM    5  C   UNL     1      28.341  40.845  52.423  1.00  0.00     0.001 A 
HETATM    6  C   UNL     1      27.333  41.269  51.561  1.00  0.00     0.003 A 
HETATM    7  C   UNL     1      26.857  42.578  51.641  1.00  0.00     0.037 A 
BRANCH   3   8
HETATM    8  C   UNL     1      29.008  43.963  54.460  1.00  0.00    -0.023 A 
HETATM    9  C   UNL     1      28.361  45.152  54.837  1.00  0.00     0.012 A 
HETATM   10  C   UNL     1      28.919  46.002  55.793  1.00  0.00     0.001 A 
HETATM   11  C   UNL     1      30.130  45.675  56.396  1.00  0.00     0.000 A 
HETATM   12  C   UNL     1      30.786  44.498  56.040  1.00  0.00     0.001 A 
HETATM   13  C   UNL     1      30.229  43.650  55.079  1.00  0.00     0.012 A 
ENDBRANCH   3   8
ENDBRANCH   1   2
BRANCH   1  14
HETATM   14  C   UNL     1      26.724  45.316  51.344  1.00  0.00     0.280 C 
BRANCH  14  15
HETATM   15  C   UNL     1      25.954  46.631  51.440  1.00  0.00     0.261 C 
HETATM   16  N   UNL     1      25.074  46.827  50.387  1.00  0.00    -0.246 N 
HETATM   17  H   UNL     1      25.049  46.137  49.639  1.00  0.00     0.192 HD
HETATM   18  O   UNL     1      26.115  47.399  52.387  1.00  0.00    -0.269 OA
BRANCH  16  19
HETATM   19  N   UNL     1      24.290  47.939  50.342  1.00  0.00    -0.182 NA
HETATM   20  C   UNL     1      23.692  48.155  49.215  1.00  0.00     0.168 C 
BRANCH  20  21
HETATM   21  C   UNL     1      22.845  49.308  49.080  1.00  0.00     0.051 A 
HETATM   22  N   UNL     1      21.899  49.664  50.016  1.00  0.00    -0.365 N 
HETATM   23  H   UNL     1      21.726  49.141  50.866  1.00  0.00     0.165 HD
HETATM   24  C   UNL     1      21.256  50.807  49.618  1.00  0.00     0.088 A 
HETATM   25  C   UNL     1      21.784  51.188  48.406  1.00  0.00     0.019 A 
HETATM   26  C   UNL     1      22.786  50.246  48.065  1.00  0.00     0.032 A 
ENDBRANCH  20  21
ENDBRANCH  16  19
ENDBRANCH  14  15
ENDBRANCH   1  14
TORSDOF 6
ENDMDL
MODEL 5
REMARK VINA RESULT:      -8.7      3.103      4.777
REMARK  6 active torsions:
REMARK  status: ('A' for Active; 'I' for Inactive)
REMARK    1  A    between atoms: C_4  and  C_5 
REMARK    2  A    between atoms: C_6  and  O_7 
REMARK    3  A    between atoms: O_7  and  C_8 
REMARK    4  A    between atoms: C_8  and  C_9 
REMARK       I    between atoms: C_9  and  N_10 
REMARK    5  A    between atoms: N_10  and  N_11 
REMARK    6  A    between atoms: C_12  and  C_13 
ROOT
HETATM    1  O   UNL     1      30.008  43.783  54.172  1.00  0.00    -0.341 OA
ENDROOT
BRANCH   1   2
HETATM    2  C   UNL     1      30.282  44.098  55.481  1.00  0.00     0.080 A 
HETATM    3  C   UNL     1      29.525  45.113  56.099  1.00  0.00     0.007 A 
HETATM    4  C   UNL     1      29.853  45.464  57.421  1.00  0.00     0.015 A 
HETATM    5  C   UNL     1      30.904  44.838  58.098  1.00  0.00     0.001 A 
HETATM    6  C   UNL     1      31.654  43.853  57.461  1.00  0.00     0.003 A 
HETATM    7  C   UNL     1      31.348  43.488  56.150  1.00  0.00     0.037 A 
BRANCH   3   8
HETATM    8  C   UNL     1      28.410  45.796  55.419  1.00  0.00    -0.023 A 
HETATM    9  C   UNL     1      28.493  47.156  55.074  1.00  0.00     0.012 A 
HETATM   10  C   UNL     1      27.440  47.797  54.419  1.00  0.00     0.001 A 
HETATM   11  C   UNL     1      26.289  47.088  54.089  1.00  0.00     0.000 A 
HETATM   12  C   UNL     1      26.188  45.738  54.417  1.00  0.00     0.001 A 
HETATM   13  C   UNL     1      27.241  45.098  55.078  1.00  0.00     0.012 A 
ENDBRANCH   3   8
ENDBRANCH   1   2
BRANCH   1  14
HETATM   14  C   UNL     1      29.678  42.402  53.997  1.00  0.00     0.280 C 
BRANCH  14  15
HETATM   15  C   UNL     1      28.438  42.245  53.120  1.00  0.00     0.261 C 
HETATM   16  N   UNL     1      28.333  43.223  52.144  1.00  0.00    -0.246 N 
HETATM   17  H   UNL     1      29.029  43.966  52.121  1.00  0.00     0.192 HD
HETATM   18  O   UNL     1      27.650  41.316  53.286  1.00  0.00    -0.269 OA
BRANCH  16  19
HETATM   19  N   UNL     1      27.298  43.206  51.259  1.00  0.00    -0.182 NA
HETATM   20  C   UNL     1      26.506  44.228  51.307  1.00  0.00     0.168 C 
BRANCH  20  21
HETATM   21  C   UNL     1      25.386  44.290  50.408  1.00  0.00     0.051 A 
HETATM   22  N   UNL     1      25.494  44.084  49.050  1.00  0.00    -0.365 N 
HETATM   23  H   UNL     1      26.369  43.877  48.582  1.00  0.00     0.165 HD
HETATM   24  C   UNL     1      24.264  44.199  48.461  1.00  0.00     0.088 A 
HETATM   25  C   UNL     1      23.349  44.496  49.446  1.00  0.00     0.019 A 
HETATM   26  C   UNL     1      24.055  44.553  50.674  1.00  0.00     0.032 A 
ENDBRANCH  20  21
ENDBRANCH  16  19
ENDBRANCH  14  15
ENDBRANCH   1  14
TORSDOF 6
ENDMDL
MODEL 6
REMARK VINA RESULT:      -8.6      3.402      6.380
REMARK  6 active torsions:
REMARK  status: ('A' for Active; 'I' for Inactive)
REMARK    1  A    between atoms: C_4  and  C_5 
REMARK    2  A    between atoms: C_6  and  O_7 
REMARK    3  A    between atoms: O_7  and  C_8 
REMARK    4  A    between atoms: C_8  and  C_9 
REMARK       I    between atoms: C_9  and  N_10 
REMARK    5  A    between atoms: N_10  and  N_11 
REMARK    6  A    between atoms: C_12  and  C_13 
ROOT
HETATM    1  O   UNL     1      25.720  45.035  52.595  1.00  0.00    -0.341 OA
ENDROOT
BRANCH   1   2
HETATM    2  C   UNL     1      26.370  45.802  53.531  1.00  0.00     0.080 A 
HETATM    3  C   UNL     1      27.497  45.257  54.178  1.00  0.00     0.007 A 
HETATM    4  C   UNL     1      28.120  46.031  55.174  1.00  0.00     0.015 A 
HETATM    5  C   UNL     1      27.632  47.294  55.522  1.00  0.00     0.001 A 
HETATM    6  C   UNL     1      26.503  47.804  54.886  1.00  0.00     0.003 A 
HETATM    7  C   UNL     1      25.868  47.056  53.895  1.00  0.00     0.037 A 
BRANCH   3   8
HETATM    8  C   UNL     1      28.041  43.930  53.839  1.00  0.00    -0.023 A 
HETATM    9  C   UNL     1      27.385  42.753  54.236  1.00  0.00     0.012 A 
HETATM   10  C   UNL     1      27.896  41.497  53.903  1.00  0.00     0.001 A 
HETATM   11  C   UNL     1      29.069  41.396  53.159  1.00  0.00     0.000 A 
HETATM   12  C   UNL     1      29.732  42.551  52.751  1.00  0.00     0.001 A 
HETATM   13  C   UNL     1      29.222  43.808  53.090  1.00  0.00     0.012 A 
ENDBRANCH   3   8
ENDBRANCH   1   2
BRANCH   1  14
HETATM   14  C   UNL     1      25.875  45.542  51.266  1.00  0.00     0.280 C 
BRANCH  14  15
HETATM   15  C   UNL     1      26.752  44.615  50.428  1.00  0.00     0.261 C 
HETATM   16  N   UNL     1      26.546  43.272  50.704  1.00  0.00    -0.246 N 
HETATM   17  H   UNL     1      25.895  43.021  51.446  1.00  0.00     0.192 HD
HETATM   18  O   UNL     1      27.533  45.059  49.589  1.00  0.00    -0.269 OA
BRANCH  16  19
HETATM   19  N   UNL     1      27.230  42.315  50.019  1.00  0.00    -0.182 NA
HETATM   20  C   UNL     1      26.917  41.093  50.304  1.00  0.00     0.168 C 
BRANCH  20  21
HETATM   21  C   UNL     1      27.593  40.020  49.628  1.00  0.00     0.051 A 
HETATM   22  N   UNL     1      27.804  38.783  50.196  1.00  0.00    -0.365 N 
HETATM   23  H   UNL     1      27.504  38.537  51.132  1.00  0.00     0.165 HD
HETATM   24  C   UNL     1      28.463  37.969  49.313  1.00  0.00     0.088 A 
HETATM   25  C   UNL     1      28.692  38.691  48.163  1.00  0.00     0.019 A 
HETATM   26  C   UNL     1      28.143  39.983  48.360  1.00  0.00     0.032 A 
ENDBRANCH  20  21
ENDBRANCH  16  19
ENDBRANCH  14  15
ENDBRANCH   1  14
TORSDOF 6
ENDMDL
MODEL 7
REMARK VINA RESULT:      -8.5      3.996      6.912
REMARK  6 active torsions:
REMARK  status: ('A' for Active; 'I' for Inactive)
REMARK    1  A    between atoms: C_4  and  C_5 
REMARK    2  A    between atoms: C_6  and  O_7 
REMARK    3  A    between atoms: O_7  and  C_8 
REMARK    4  A    between atoms: C_8  and  C_9 
REMARK       I    between atoms: C_9  and  N_10 
REMARK    5  A    between atoms: N_10  and  N_11 
REMARK    6  A    between atoms: C_12  and  C_13 
ROOT
HETATM    1  O   UNL     1      29.715  43.545  53.900  1.00  0.00    -0.341 OA
ENDROOT
BRANCH   1   2
HETATM    2  C   UNL     1      30.081  43.889  55.179  1.00  0.00     0.080 A 
HETATM    3  C   UNL     1      29.392  44.943  55.812  1.00  0.00     0.007 A 
HETATM    4  C   UNL     1      29.814  45.323  57.099  1.00  0.00     0.015 A 
HETATM    5  C   UNL     1      30.889  44.687  57.727  1.00  0.00     0.001 A 
HETATM    6  C   UNL     1      31.570  43.664  57.074  1.00  0.00     0.003 A 
HETATM    7  C   UNL     1      31.171  43.269  55.797  1.00  0.00     0.037 A 
BRANCH   3   8
HETATM    8  C   UNL     1      28.255  45.637  55.183  1.00  0.00    -0.023 A 
HETATM    9  C   UNL     1      27.066  44.953  54.874  1.00  0.00     0.012 A 
HETATM   10  C   UNL     1      25.986  45.616  54.289  1.00  0.00     0.001 A 
HETATM   11  C   UNL     1      26.071  46.977  54.009  1.00  0.00     0.000 A 
HETATM   12  C   UNL     1      27.238  47.675  54.311  1.00  0.00     0.001 A 
HETATM   13  C   UNL     1      28.321  47.009  54.893  1.00  0.00     0.012 A 
ENDBRANCH   3   8
ENDBRANCH   1   2
BRANCH   1  14
HETATM   14  C   UNL     1      29.172  42.223  53.822  1.00  0.00     0.280 C 
BRANCH  14  15
HETATM   15  C   UNL     1      28.623  41.942  52.426  1.00  0.00     0.261 C 
HETATM   16  N   UNL     1      28.705  40.606  52.066  1.00  0.00    -0.246 N 
HETATM   17  H   UNL     1      29.152  39.955  52.708  1.00  0.00     0.192 HD
HETATM   18  O   UNL     1      28.145  42.838  51.733  1.00  0.00    -0.269 OA
BRANCH  16  19
HETATM   19  N   UNL     1      28.229  40.186  50.861  1.00  0.00    -0.182 NA
HETATM   20  C   UNL     1      28.886  39.219  50.308  1.00  0.00     0.168 C 
BRANCH  20  21
HETATM   21  C   UNL     1      28.452  38.715  49.034  1.00  0.00     0.051 A 
HETATM   22  N   UNL     1      28.493  39.457  47.873  1.00  0.00    -0.365 N 
HETATM   23  H   UNL     1      28.828  40.412  47.830  1.00  0.00     0.165 HD
HETATM   24  C   UNL     1      28.023  38.711  46.825  1.00  0.00     0.088 A 
HETATM   25  C   UNL     1      27.663  37.476  47.314  1.00  0.00     0.019 A 
HETATM   26  C   UNL     1      27.933  37.476  48.705  1.00  0.00     0.032 A 
ENDBRANCH  20  21
ENDBRANCH  16  19
ENDBRANCH  14  15
ENDBRANCH   1  14
TORSDOF 6
ENDMDL
MODEL 8
REMARK VINA RESULT:      -8.5      2.233      3.232
REMARK  6 active torsions:
REMARK  status: ('A' for Active; 'I' for Inactive)
REMARK    1  A    between atoms: C_4  and  C_5 
REMARK    2  A    between atoms: C_6  and  O_7 
REMARK    3  A    between atoms: O_7  and  C_8 
REMARK    4  A    between atoms: C_8  and  C_9 
REMARK       I    between atoms: C_9  and  N_10 
REMARK    5  A    between atoms: N_10  and  N_11 
REMARK    6  A    between atoms: C_12  and  C_13 
ROOT
HETATM    1  O   UNL     1      26.080  43.556  52.775  1.00  0.00    -0.341 OA
ENDROOT
BRANCH   1   2
HETATM    2  C   UNL     1      27.370  43.144  53.003  1.00  0.00     0.080 A 
HETATM    3  C   UNL     1      28.232  44.002  53.714  1.00  0.00     0.007 A 
HETATM    4  C   UNL     1      29.566  43.593  53.892  1.00  0.00     0.015 A 
HETATM    5  C   UNL     1      30.029  42.382  53.371  1.00  0.00     0.001 A 
HETATM    6  C   UNL     1      29.166  41.559  52.652  1.00  0.00     0.003 A 
HETATM    7  C   UNL     1      27.839  41.942  52.462  1.00  0.00     0.037 A 
BRANCH   3   8
HETATM    8  C   UNL     1      27.782  45.287  54.279  1.00  0.00    -0.023 A 
HETATM    9  C   UNL     1      28.266  45.746  55.516  1.00  0.00     0.012 A 
HETATM   10  C   UNL     1      27.847  46.969  56.044  1.00  0.00     0.001 A 
HETATM   11  C   UNL     1      26.942  47.759  55.339  1.00  0.00     0.000 A 
HETATM   12  C   UNL     1      26.454  47.325  54.109  1.00  0.00     0.001 A 
HETATM   13  C   UNL     1      26.870  46.097  53.585  1.00  0.00     0.012 A 
ENDBRANCH   3   8
ENDBRANCH   1   2
BRANCH   1  14
HETATM   14  C   UNL     1      25.715  43.479  51.394  1.00  0.00     0.280 C 
BRANCH  14  15
HETATM   15  C   UNL     1      24.630  44.500  51.060  1.00  0.00     0.261 C 
HETATM   16  N   UNL     1      25.139  45.723  50.651  1.00  0.00    -0.246 N 
HETATM   17  H   UNL     1      26.149  45.857  50.656  1.00  0.00     0.192 HD
HETATM   18  O   UNL     1      23.437  44.216  51.138  1.00  0.00    -0.269 OA
BRANCH  16  19
HETATM   19  N   UNL     1      24.301  46.732  50.288  1.00  0.00    -0.182 NA
HETATM   20  C   UNL     1      24.841  47.688  49.603  1.00  0.00     0.168 C 
BRANCH  20  21
HETATM   21  C   UNL     1      24.027  48.794  49.179  1.00  0.00     0.051 A 
HETATM   22  N   UNL     1      22.767  49.040  49.678  1.00  0.00    -0.365 N 
HETATM   23  H   UNL     1      22.318  48.460  50.378  1.00  0.00     0.165 HD
HETATM   24  C   UNL     1      22.243  50.162  49.093  1.00  0.00     0.088 A 
HETATM   25  C   UNL     1      23.170  50.642  48.195  1.00  0.00     0.019 A 
HETATM   26  C   UNL     1      24.295  49.781  48.249  1.00  0.00     0.032 A 
ENDBRANCH  20  21
ENDBRANCH  16  19
ENDBRANCH  14  15
ENDBRANCH   1  14
TORSDOF 6
ENDMDL
MODEL 9
REMARK VINA RESULT:      -8.5      2.824      4.286
REMARK  6 active torsions:
REMARK  status: ('A' for Active; 'I' for Inactive)
REMARK    1  A    between atoms: C_4  and  C_5 
REMARK    2  A    between atoms: C_6  and  O_7 
REMARK    3  A    between atoms: O_7  and  C_8 
REMARK    4  A    between atoms: C_8  and  C_9 
REMARK       I    between atoms: C_9  and  N_10 
REMARK    5  A    between atoms: N_10  and  N_11 
REMARK    6  A    between atoms: C_12  and  C_13 
ROOT
HETATM    1  O   UNL     1      26.666  45.340  51.269  1.00  0.00    -0.341 OA
ENDROOT
BRANCH   1   2
HETATM    2  C   UNL     1      26.333  44.046  50.950  1.00  0.00     0.080 A 
HETATM    3  C   UNL     1      27.024  42.999  51.590  1.00  0.00     0.007 A 
HETATM    4  C   UNL     1      26.713  41.679  51.214  1.00  0.00     0.015 A 
HETATM    5  C   UNL     1      25.759  41.413  50.228  1.00  0.00     0.001 A 
HETATM    6  C   UNL     1      25.104  42.463  49.591  1.00  0.00     0.003 A 
HETATM    7  C   UNL     1      25.395  43.780  49.946  1.00  0.00     0.037 A 
BRANCH   3   8
HETATM    8  C   UNL     1      28.036  43.239  52.635  1.00  0.00    -0.023 A 
HETATM    9  C   UNL     1      27.739  44.014  53.769  1.00  0.00     0.012 A 
HETATM   10  C   UNL     1      28.695  44.230  54.763  1.00  0.00     0.001 A 
HETATM   11  C   UNL     1      29.964  43.669  54.644  1.00  0.00     0.000 A 
HETATM   12  C   UNL     1      30.278  42.894  53.530  1.00  0.00     0.001 A 
HETATM   13  C   UNL     1      29.320  42.683  52.533  1.00  0.00     0.012 A 
ENDBRANCH   3   8
ENDBRANCH   1   2
BRANCH   1  14
HETATM   14  C   UNL     1      26.483  46.240  50.172  1.00  0.00     0.280 C 
BRANCH  14  15
HETATM   15  C   UNL     1      25.464  47.322  50.519  1.00  0.00     0.261 C 
HETATM   16  N   UNL     1      24.998  48.010  49.409  1.00  0.00    -0.246 N 
HETATM   17  H   UNL     1      25.392  47.787  48.497  1.00  0.00     0.192 HD
HETATM   18  O   UNL     1      25.105  47.515  51.679  1.00  0.00    -0.269 OA
BRANCH  16  19
HETATM   19  N   UNL     1      24.060  48.987  49.547  1.00  0.00    -0.182 NA
HETATM   20  C   UNL     1      22.883  48.699  49.094  1.00  0.00     0.168 C 
BRANCH  20  21
HETATM   21  C   UNL     1      21.834  49.675  49.198  1.00  0.00     0.051 A 
HETATM   22  N   UNL     1      20.738  49.522  50.019  1.00  0.00    -0.365 N 
HETATM   23  H   UNL     1      20.587  48.712  50.608  1.00  0.00     0.165 HD
HETATM   24  C   UNL     1      19.918  50.614  49.912  1.00  0.00     0.088 A 
HETATM   25  C   UNL     1      20.482  51.478  49.002  1.00  0.00     0.019 A 
HETATM   26  C   UNL     1      21.690  50.889  48.552  1.00  0.00     0.032 A 
ENDBRANCH  20  21
ENDBRANCH  16  19
ENDBRANCH  14  15
ENDBRANCH   1  14
TORSDOF 6
ENDMDL
MODEL 10
REMARK VINA RESULT:      -8.5      3.888      6.541
REMARK  6 active torsions:
REMARK  status: ('A' for Active; 'I' for Inactive)
REMARK    1  A    between atoms: C_4  and  C_5 
REMARK    2  A    between atoms: C_6  and  O_7 
REMARK    3  A    between atoms: O_7  and  C_8 
REMARK    4  A    between atoms: C_8  and  C_9 
REMARK       I    between atoms: C_9  and  N_10 
REMARK    5  A    between atoms: N_10  and  N_11 
REMARK    6  A    between atoms: C_12  and  C_13 
ROOT
HETATM    1  O   UNL     1      28.330  43.586  53.976  1.00  0.00    -0.341 OA
ENDROOT
BRANCH   1   2
HETATM    2  C   UNL     1      27.940  44.896  54.109  1.00  0.00     0.080 A 
HETATM    3  C   UNL     1      28.508  45.662  55.147  1.00  0.00     0.007 A 
HETATM    4  C   UNL     1      28.059  46.986  55.308  1.00  0.00     0.015 A 
HETATM    5  C   UNL     1      27.072  47.522  54.476  1.00  0.00     0.001 A 
HETATM    6  C   UNL     1      26.508  46.741  53.471  1.00  0.00     0.003 A 
HETATM    7  C   UNL     1      26.936  45.426  53.291  1.00  0.00     0.037 A 
BRANCH   3   8
HETATM    8  C   UNL     1      29.550  45.132  56.044  1.00  0.00    -0.023 A 
HETATM    9  C   UNL     1      30.417  44.108  55.625  1.00  0.00     0.012 A 
HETATM   10  C   UNL     1      31.411  43.616  56.473  1.00  0.00     0.001 A 
HETATM   11  C   UNL     1      31.561  44.145  57.752  1.00  0.00     0.000 A 
HETATM   12  C   UNL     1      30.716  45.163  58.185  1.00  0.00     0.001 A 
HETATM   13  C   UNL     1      29.717  45.651  57.337  1.00  0.00     0.012 A 
ENDBRANCH   3   8
ENDBRANCH   1   2
BRANCH   1  14
HETATM   14  C   UNL     1      28.692  43.255  52.631  1.00  0.00     0.280 C 
BRANCH  14  15
HETATM   15  C   UNL     1      28.333  41.806  52.312  1.00  0.00     0.261 C 
HETATM   16  N   UNL     1      28.565  41.465  50.989  1.00  0.00    -0.246 N 
HETATM   17  H   UNL     1      28.892  42.188  50.349  1.00  0.00     0.192 HD
HETATM   18  O   UNL     1      27.905  41.046  53.179  1.00  0.00    -0.269 OA
BRANCH  16  19
HETATM   19  N   UNL     1      28.325  40.199  50.551  1.00  0.00    -0.182 NA
HETATM   20  C   UNL     1      27.302  40.062  49.771  1.00  0.00     0.168 C 
BRANCH  20  21
HETATM   21  C   UNL     1      26.976  38.758  49.263  1.00  0.00     0.051 A 
HETATM   22  N   UNL     1      26.096  38.549  48.224  1.00  0.00    -0.365 N 
HETATM   23  H   UNL     1      25.611  39.296  47.742  1.00  0.00     0.165 HD
HETATM   24  C   UNL     1      25.994  37.209  47.960  1.00  0.00     0.088 A 
HETATM   25  C   UNL     1      26.808  36.541  48.847  1.00  0.00     0.019 A 
HETATM   26  C   UNL     1      27.428  37.515  49.668  1.00  0.00     0.032 A 
ENDBRANCH  20  21
ENDBRANCH  16  19
ENDBRANCH  14  15
ENDBRANCH   1  14
TORSDOF 6
ENDMDL
