MODEL 1
REMARK VINA RESULT:      -8.3      0.000      0.000
REMARK  11 active torsions:
REMARK  status: ('A' for Active; 'I' for Inactive)
REMARK    1  A    between atoms: C_3  and  C_4 
REMARK    2  A    between atoms: C_4  and  O_5 
REMARK    3  A    between atoms: C_12  and  C_13 
REMARK    4  A    between atoms: C_13  and  C_14 
REMARK    5  A    between atoms: C_15  and  C_16 
REMARK    6  A    between atoms: C_18  and  N_19 
REMARK    7  A    between atoms: N_25  and  C_26 
REMARK    8  A    between atoms: C_26  and  C_27 
REMARK    9  A    between atoms: C_27  and  C_28 
REMARK   10  A    between atoms: C_28  and  N_29 
REMARK   11  A    between atoms: C_38  and  O_39 
ROOT
HETATM    1  C   UNL     1      27.071  41.683  50.101  1.00  0.00     0.059 C 
HETATM    2  C   UNL     1      27.638  42.980  50.629  1.00  0.00     0.161 C 
HETATM    3  N   UNL     1      27.965  42.623  52.001  1.00  0.00    -0.333 N 
HETATM    4  C   UNL     1      27.717  41.288  52.234  1.00  0.00     0.278 C 
HETATM    5  O   UNL     1      28.079  40.667  53.223  1.00  0.00    -0.265 OA
HETATM    6  C   UNL     1      27.005  40.740  51.054  1.00  0.00     0.146 C 
ENDROOT
BRANCH   1   7
HETATM    7  C   UNL     1      26.719  41.672  48.660  1.00  0.00     0.196 C 
HETATM    8  O   UNL     1      27.462  42.208  47.846  1.00  0.00    -0.287 OA
BRANCH   7   9
HETATM    9  C   UNL     1      25.487  41.005  48.248  1.00  0.00     0.045 A 
HETATM   10  C   UNL     1      24.215  41.657  48.043  1.00  0.00    -0.013 A 
HETATM   11  C   UNL     1      23.932  43.106  48.277  1.00  0.00     0.052 C 
HETATM   12  C   UNL     1      23.329  40.706  47.544  1.00  0.00     0.115 A 
HETATM   13  N   UNL     1      24.010  39.512  47.501  1.00  0.00    -0.354 N 
HETATM   14  H   UNL     1      23.593  38.653  47.156  1.00  0.00     0.166 HD
HETATM   15  C   UNL     1      25.328  39.685  47.844  1.00  0.00     0.020 A 
HETATM   16  C   UNL     1      26.282  38.551  47.687  1.00  0.00     0.069 C 
BRANCH  12  17
HETATM   17  C   UNL     1      21.957  40.777  47.082  1.00  0.00     0.310 C 
HETATM   18  O   UNL     1      21.572  41.559  46.223  1.00  0.00    -0.258 OA
BRANCH  17  19
HETATM   19  O   UNL     1      21.169  39.900  47.755  1.00  0.00    -0.321 OA
HETATM   20  C   UNL     1      20.401  39.039  46.913  1.00  0.00     0.213 C 
ENDBRANCH  17  19
ENDBRANCH  12  17
ENDBRANCH   7   9
ENDBRANCH   1   7
BRANCH   2  21
HETATM   21  C   UNL     1      26.705  44.181  50.605  1.00  0.00    -0.028 A 
HETATM   22  C   UNL     1      27.069  45.399  50.002  1.00  0.00     0.045 A 
HETATM   23  C   UNL     1      26.186  46.491  50.027  1.00  0.00     0.103 A 
HETATM   24  C   UNL     1      24.927  46.379  50.626  1.00  0.00     0.036 A 
HETATM   25  C   UNL     1      24.554  45.169  51.208  1.00  0.00     0.003 A 
HETATM   26  C   UNL     1      25.434  44.083  51.199  1.00  0.00     0.010 A 
BRANCH  23  27
HETATM   27  N   UNL     1      26.591  47.762  49.412  1.00  0.00    -0.116 N 
HETATM   28  O   UNL     1      27.685  47.789  48.831  1.00  0.00    -0.532 OA
HETATM   29  O   UNL     1      25.808  48.718  49.490  1.00  0.00    -0.532 OA
ENDBRANCH  23  27
ENDBRANCH   2  21
BRANCH   6  30
HETATM   30  O   UNL     1      26.498  39.478  51.049  1.00  0.00    -0.355 OA
HETATM   31  H   UNL     1      25.536  39.496  51.196  1.00  0.00     0.218 HD
ENDBRANCH   6  30
BRANCH   3  32
HETATM   32  C   UNL     1      28.874  43.418  52.807  1.00  0.00     0.129 C 
BRANCH  32  33
HETATM   33  C   UNL     1      28.253  44.003  54.081  1.00  0.00     0.048 C 
BRANCH  33  34
HETATM   34  C   UNL     1      29.035  45.079  54.842  1.00  0.00     0.236 C 
BRANCH  34  35
HETATM   35  N   UNL     1      29.722  44.578  56.082  1.00  0.00    -0.067 N 
HETATM   36  H   UNL     1      28.989  44.074  56.624  1.00  0.00     0.280 HD
HETATM   37  C   UNL     1      30.922  43.679  55.850  1.00  0.00     0.261 C 
HETATM   38  C   UNL     1      31.487  43.209  57.195  1.00  0.00     0.195 C 
HETATM   39  O   UNL     1      31.842  44.321  58.022  1.00  0.00    -0.388 OA
HETATM   40  C   UNL     1      30.705  45.145  58.309  1.00  0.00     0.195 C 
HETATM   41  C   UNL     1      30.112  45.724  57.018  1.00  0.00     0.261 C 
ENDBRANCH  34  35
ENDBRANCH  33  34
ENDBRANCH  32  33
ENDBRANCH   3  32
TORSDOF 11
ENDMDL
MODEL 2
REMARK VINA RESULT:      -8.1     12.720     16.689
REMARK  11 active torsions:
REMARK  status: ('A' for Active; 'I' for Inactive)
REMARK    1  A    between atoms: C_3  and  C_4 
REMARK    2  A    between atoms: C_4  and  O_5 
REMARK    3  A    between atoms: C_12  and  C_13 
REMARK    4  A    between atoms: C_13  and  C_14 
REMARK    5  A    between atoms: C_15  and  C_16 
REMARK    6  A    between atoms: C_18  and  N_19 
REMARK    7  A    between atoms: N_25  and  C_26 
REMARK    8  A    between atoms: C_26  and  C_27 
REMARK    9  A    between atoms: C_27  and  C_28 
REMARK   10  A    between atoms: C_28  and  N_29 
REMARK   11  A    between atoms: C_38  and  O_39 
ROOT
HETATM    1  C   UNL     1      33.756  50.361  41.730  1.00  0.00     0.059 C 
HETATM    2  C   UNL     1      32.298  50.427  42.119  1.00  0.00     0.161 C 
HETATM    3  N   UNL     1      31.850  49.076  41.815  1.00  0.00    -0.333 N 
HETATM    4  C   UNL     1      32.903  48.292  41.395  1.00  0.00     0.278 C 
HETATM    5  O   UNL     1      32.867  47.077  41.264  1.00  0.00    -0.265 OA
HETATM    6  C   UNL     1      34.082  49.171  41.203  1.00  0.00     0.146 C 
ENDROOT
BRANCH   1   7
HETATM    7  C   UNL     1      34.555  51.580  42.013  1.00  0.00     0.196 C 
HETATM    8  O   UNL     1      34.320  52.244  43.016  1.00  0.00    -0.287 OA
BRANCH   7   9
HETATM    9  C   UNL     1      35.615  51.951  41.080  1.00  0.00     0.045 A 
HETATM   10  C   UNL     1      35.438  52.754  39.894  1.00  0.00    -0.013 A 
HETATM   11  C   UNL     1      34.134  53.285  39.388  1.00  0.00     0.052 C 
HETATM   12  C   UNL     1      36.697  52.979  39.345  1.00  0.00     0.115 A 
HETATM   13  N   UNL     1      37.600  52.297  40.126  1.00  0.00    -0.354 N 
HETATM   14  H   UNL     1      38.600  52.310  39.952  1.00  0.00     0.166 HD
HETATM   15  C   UNL     1      36.982  51.738  41.218  1.00  0.00     0.020 A 
HETATM   16  C   UNL     1      37.807  51.109  42.286  1.00  0.00     0.069 C 
BRANCH  12  17
HETATM   17  C   UNL     1      37.160  53.764  38.218  1.00  0.00     0.310 C 
HETATM   18  O   UNL     1      37.189  53.346  37.068  1.00  0.00    -0.258 OA
BRANCH  17  19
HETATM   19  O   UNL     1      37.591  54.988  38.618  1.00  0.00    -0.321 OA
HETATM   20  C   UNL     1      36.755  56.068  38.200  1.00  0.00     0.213 C 
ENDBRANCH  17  19
ENDBRANCH  12  17
ENDBRANCH   7   9
ENDBRANCH   1   7
BRANCH   2  21
HETATM   21  C   UNL     1      31.447  51.443  41.373  1.00  0.00    -0.028 A 
HETATM   22  C   UNL     1      31.044  51.247  40.040  1.00  0.00     0.045 A 
HETATM   23  C   UNL     1      30.279  52.225  39.382  1.00  0.00     0.103 A 
HETATM   24  C   UNL     1      29.887  53.392  40.046  1.00  0.00     0.036 A 
HETATM   25  C   UNL     1      30.268  53.582  41.373  1.00  0.00     0.003 A 
HETATM   26  C   UNL     1      31.040  52.619  42.028  1.00  0.00     0.010 A 
BRANCH  23  27
HETATM   27  N   UNL     1      29.886  52.014  37.983  1.00  0.00    -0.116 N 
HETATM   28  O   UNL     1      30.544  51.197  37.324  1.00  0.00    -0.532 OA
HETATM   29  O   UNL     1      28.910  52.645  37.555  1.00  0.00    -0.532 OA
ENDBRANCH  23  27
ENDBRANCH   2  21
BRANCH   6  30
HETATM   30  O   UNL     1      35.236  48.707  40.653  1.00  0.00    -0.355 OA
HETATM   31  H   UNL     1      35.171  48.697  39.681  1.00  0.00     0.218 HD
ENDBRANCH   6  30
BRANCH   3  32
HETATM   32  C   UNL     1      30.619  48.533  42.361  1.00  0.00     0.129 C 
BRANCH  32  33
HETATM   33  C   UNL     1      29.518  48.282  41.324  1.00  0.00     0.048 C 
BRANCH  33  34
HETATM   34  C   UNL     1      28.256  49.151  41.380  1.00  0.00     0.236 C 
BRANCH  34  35
HETATM   35  N   UNL     1      27.423  49.104  40.129  1.00  0.00    -0.067 N 
HETATM   36  H   UNL     1      26.602  48.506  40.361  1.00  0.00     0.280 HD
HETATM   37  C   UNL     1      26.967  50.448  39.593  1.00  0.00     0.261 C 
HETATM   38  C   UNL     1      26.092  50.243  38.351  1.00  0.00     0.195 C 
HETATM   39  O   UNL     1      26.794  49.509  37.342  1.00  0.00    -0.388 OA
HETATM   40  C   UNL     1      27.174  48.208  37.809  1.00  0.00     0.195 C 
HETATM   41  C   UNL     1      28.116  48.315  39.015  1.00  0.00     0.261 C 
ENDBRANCH  34  35
ENDBRANCH  33  34
ENDBRANCH  32  33
ENDBRANCH   3  32
TORSDOF 11
ENDMDL
MODEL 3
REMARK VINA RESULT:      -8.0      1.780      2.291
REMARK  11 active torsions:
REMARK  status: ('A' for Active; 'I' for Inactive)
REMARK    1  A    between atoms: C_3  and  C_4 
REMARK    2  A    between atoms: C_4  and  O_5 
REMARK    3  A    between atoms: C_12  and  C_13 
REMARK    4  A    between atoms: C_13  and  C_14 
REMARK    5  A    between atoms: C_15  and  C_16 
REMARK    6  A    between atoms: C_18  and  N_19 
REMARK    7  A    between atoms: N_25  and  C_26 
REMARK    8  A    between atoms: C_26  and  C_27 
REMARK    9  A    between atoms: C_27  and  C_28 
REMARK   10  A    between atoms: C_28  and  N_29 
REMARK   11  A    between atoms: C_38  and  O_39 
ROOT
HETATM    1  C   UNL     1      27.375  41.342  49.771  1.00  0.00     0.059 C 
HETATM    2  C   UNL     1      27.741  42.678  50.372  1.00  0.00     0.161 C 
HETATM    3  N   UNL     1      28.204  42.291  51.696  1.00  0.00    -0.333 N 
HETATM    4  C   UNL     1      28.203  40.919  51.835  1.00  0.00     0.278 C 
HETATM    5  O   UNL     1      28.723  40.305  52.755  1.00  0.00    -0.265 OA
HETATM    6  C   UNL     1      27.528  40.338  50.650  1.00  0.00     0.146 C 
ENDROOT
BRANCH   1   7
HETATM    7  C   UNL     1      26.946  41.369  48.351  1.00  0.00     0.196 C 
HETATM    8  O   UNL     1      27.660  41.900  47.508  1.00  0.00    -0.287 OA
BRANCH   7   9
HETATM    9  C   UNL     1      25.675  40.745  47.995  1.00  0.00     0.045 A 
HETATM   10  C   UNL     1      24.429  41.446  47.799  1.00  0.00    -0.013 A 
HETATM   11  C   UNL     1      24.216  42.914  47.989  1.00  0.00     0.052 C 
HETATM   12  C   UNL     1      23.488  40.520  47.357  1.00  0.00     0.115 A 
HETATM   13  N   UNL     1      24.114  39.295  47.338  1.00  0.00    -0.354 N 
HETATM   14  H   UNL     1      23.650  38.445  47.034  1.00  0.00     0.166 HD
HETATM   15  C   UNL     1      25.447  39.420  47.642  1.00  0.00     0.020 A 
HETATM   16  C   UNL     1      26.345  38.239  47.501  1.00  0.00     0.069 C 
BRANCH  12  17
HETATM   17  C   UNL     1      22.109  40.637  46.927  1.00  0.00     0.310 C 
HETATM   18  O   UNL     1      21.746  41.354  46.003  1.00  0.00    -0.258 OA
BRANCH  17  19
HETATM   19  O   UNL     1      21.288  39.888  47.707  1.00  0.00    -0.321 OA
HETATM   20  C   UNL     1      20.356  39.089  46.978  1.00  0.00     0.213 C 
ENDBRANCH  17  19
ENDBRANCH  12  17
ENDBRANCH   7   9
ENDBRANCH   1   7
BRANCH   2  21
HETATM   21  C   UNL     1      26.617  43.697  50.485  1.00  0.00    -0.028 A 
HETATM   22  C   UNL     1      26.730  44.997  49.961  1.00  0.00     0.045 A 
HETATM   23  C   UNL     1      25.676  45.913  50.112  1.00  0.00     0.103 A 
HETATM   24  C   UNL     1      24.493  45.542  50.760  1.00  0.00     0.036 A 
HETATM   25  C   UNL     1      24.369  44.249  51.264  1.00  0.00     0.003 A 
HETATM   26  C   UNL     1      25.420  43.338  51.129  1.00  0.00     0.010 A 
BRANCH  23  27
HETATM   27  N   UNL     1      25.819  47.274  49.577  1.00  0.00    -0.116 N 
HETATM   28  O   UNL     1      26.936  47.603  49.152  1.00  0.00    -0.532 OA
HETATM   29  O   UNL     1      24.816  47.999  49.563  1.00  0.00    -0.532 OA
ENDBRANCH  23  27
ENDBRANCH   2  21
BRANCH   6  30
HETATM   30  O   UNL     1      27.245  39.010  50.569  1.00  0.00    -0.355 OA
HETATM   31  H   UNL     1      26.304  38.849  50.761  1.00  0.00     0.218 HD
ENDBRANCH   6  30
BRANCH   3  32
HETATM   32  C   UNL     1      29.009  43.175  52.519  1.00  0.00     0.129 C 
BRANCH  32  33
HETATM   33  C   UNL     1      28.386  43.528  53.875  1.00  0.00     0.048 C 
BRANCH  33  34
HETATM   34  C   UNL     1      28.900  44.773  54.608  1.00  0.00     0.236 C 
BRANCH  34  35
HETATM   35  N   UNL     1      28.032  45.988  54.436  1.00  0.00    -0.067 N 
HETATM   36  H   UNL     1      28.569  46.631  53.816  1.00  0.00     0.280 HD
HETATM   37  C   UNL     1      26.649  45.733  53.865  1.00  0.00     0.261 C 
HETATM   38  C   UNL     1      25.901  47.060  53.702  1.00  0.00     0.195 C 
HETATM   39  O   UNL     1      25.811  47.758  54.947  1.00  0.00    -0.388 OA
HETATM   40  C   UNL     1      27.110  48.069  55.469  1.00  0.00     0.195 C 
HETATM   41  C   UNL     1      27.912  46.788  55.734  1.00  0.00     0.261 C 
ENDBRANCH  34  35
ENDBRANCH  33  34
ENDBRANCH  32  33
ENDBRANCH   3  32
TORSDOF 11
ENDMDL
MODEL 4
REMARK VINA RESULT:      -7.8     11.466     15.847
REMARK  11 active torsions:
REMARK  status: ('A' for Active; 'I' for Inactive)
REMARK    1  A    between atoms: C_3  and  C_4 
REMARK    2  A    between atoms: C_4  and  O_5 
REMARK    3  A    between atoms: C_12  and  C_13 
REMARK    4  A    between atoms: C_13  and  C_14 
REMARK    5  A    between atoms: C_15  and  C_16 
REMARK    6  A    between atoms: C_18  and  N_19 
REMARK    7  A    between atoms: N_25  and  C_26 
REMARK    8  A    between atoms: C_26  and  C_27 
REMARK    9  A    between atoms: C_27  and  C_28 
REMARK   10  A    between atoms: C_28  and  N_29 
REMARK   11  A    between atoms: C_38  and  O_39 
ROOT
HETATM    1  C   UNL     1      30.742  50.838  41.789  1.00  0.00     0.059 C 
HETATM    2  C   UNL     1      30.566  50.299  40.389  1.00  0.00     0.161 C 
HETATM    3  N   UNL     1      29.665  51.282  39.805  1.00  0.00    -0.333 N 
HETATM    4  C   UNL     1      29.412  52.305  40.692  1.00  0.00     0.278 C 
HETATM    5  O   UNL     1      28.858  53.358  40.412  1.00  0.00    -0.265 OA
HETATM    6  C   UNL     1      29.987  51.927  42.006  1.00  0.00     0.146 C 
ENDROOT
BRANCH   1   7
HETATM    7  C   UNL     1      31.706  50.104  42.646  1.00  0.00     0.196 C 
HETATM    8  O   UNL     1      31.440  48.972  43.033  1.00  0.00    -0.287 OA
BRANCH   7   9
HETATM    9  C   UNL     1      32.963  50.758  42.999  1.00  0.00     0.045 A 
HETATM   10  C   UNL     1      34.175  50.709  42.217  1.00  0.00    -0.013 A 
HETATM   11  C   UNL     1      34.366  49.932  40.954  1.00  0.00     0.052 C 
HETATM   12  C   UNL     1      35.104  51.549  42.826  1.00  0.00     0.115 A 
HETATM   13  N   UNL     1      34.508  52.046  43.961  1.00  0.00    -0.354 N 
HETATM   14  H   UNL     1      34.968  52.703  44.582  1.00  0.00     0.166 HD
HETATM   15  C   UNL     1      33.196  51.646  44.042  1.00  0.00     0.020 A 
HETATM   16  C   UNL     1      32.318  52.221  45.100  1.00  0.00     0.069 C 
BRANCH  12  17
HETATM   17  C   UNL     1      36.446  51.964  42.470  1.00  0.00     0.310 C 
HETATM   18  O   UNL     1      37.430  51.244  42.581  1.00  0.00    -0.258 OA
BRANCH  17  19
HETATM   19  O   UNL     1      36.463  53.255  42.047  1.00  0.00    -0.321 OA
HETATM   20  C   UNL     1      37.436  54.071  42.699  1.00  0.00     0.213 C 
ENDBRANCH  17  19
ENDBRANCH  12  17
ENDBRANCH   7   9
ENDBRANCH   1   7
BRANCH   2  21
HETATM   21  C   UNL     1      29.970  48.905  40.273  1.00  0.00    -0.028 A 
HETATM   22  C   UNL     1      28.682  48.599  40.748  1.00  0.00     0.045 A 
HETATM   23  C   UNL     1      28.182  47.290  40.642  1.00  0.00     0.103 A 
HETATM   24  C   UNL     1      28.943  46.280  40.044  1.00  0.00     0.036 A 
HETATM   25  C   UNL     1      30.212  46.582  39.555  1.00  0.00     0.003 A 
HETATM   26  C   UNL     1      30.720  47.879  39.669  1.00  0.00     0.010 A 
BRANCH  23  27
HETATM   27  N   UNL     1      26.844  46.984  41.163  1.00  0.00    -0.116 N 
HETATM   28  O   UNL     1      25.975  47.861  41.051  1.00  0.00    -0.532 OA
HETATM   29  O   UNL     1      26.658  45.866  41.660  1.00  0.00    -0.532 OA
ENDBRANCH  23  27
ENDBRANCH   2  21
BRANCH   6  30
HETATM   30  O   UNL     1      29.772  52.674  43.121  1.00  0.00    -0.355 OA
HETATM   31  H   UNL     1      29.814  53.624  42.909  1.00  0.00     0.218 HD
ENDBRANCH   6  30
BRANCH   3  32
HETATM   32  C   UNL     1      29.494  51.410  38.369  1.00  0.00     0.129 C 
BRANCH  32  33
HETATM   33  C   UNL     1      28.236  50.733  37.813  1.00  0.00     0.048 C 
BRANCH  33  34
HETATM   34  C   UNL     1      26.943  50.818  38.632  1.00  0.00     0.236 C 
BRANCH  34  35
HETATM   35  N   UNL     1      26.088  49.584  38.560  1.00  0.00    -0.067 N 
HETATM   36  H   UNL     1      26.239  49.085  39.462  1.00  0.00     0.280 HD
HETATM   37  C   UNL     1      24.608  49.822  38.327  1.00  0.00     0.261 C 
HETATM   38  C   UNL     1      23.860  48.484  38.325  1.00  0.00     0.195 C 
HETATM   39  O   UNL     1      24.390  47.599  37.335  1.00  0.00    -0.388 OA
HETATM   40  C   UNL     1      25.773  47.307  37.577  1.00  0.00     0.195 C 
HETATM   41  C   UNL     1      26.617  48.587  37.526  1.00  0.00     0.261 C 
ENDBRANCH  34  35
ENDBRANCH  33  34
ENDBRANCH  32  33
ENDBRANCH   3  32
TORSDOF 11
ENDMDL
MODEL 5
REMARK VINA RESULT:      -7.7      6.413      8.603
REMARK  11 active torsions:
REMARK  status: ('A' for Active; 'I' for Inactive)
REMARK    1  A    between atoms: C_3  and  C_4 
REMARK    2  A    between atoms: C_4  and  O_5 
REMARK    3  A    between atoms: C_12  and  C_13 
REMARK    4  A    between atoms: C_13  and  C_14 
REMARK    5  A    between atoms: C_15  and  C_16 
REMARK    6  A    between atoms: C_18  and  N_19 
REMARK    7  A    between atoms: N_25  and  C_26 
REMARK    8  A    between atoms: C_26  and  C_27 
REMARK    9  A    between atoms: C_27  and  C_28 
REMARK   10  A    between atoms: C_28  and  N_29 
REMARK   11  A    between atoms: C_38  and  O_39 
ROOT
HETATM    1  C   UNL     1      20.836  46.459  47.143  1.00  0.00     0.059 C 
HETATM    2  C   UNL     1      21.890  47.472  47.521  1.00  0.00     0.161 C 
HETATM    3  N   UNL     1      22.701  46.718  48.464  1.00  0.00    -0.333 N 
HETATM    4  C   UNL     1      22.255  45.418  48.566  1.00  0.00     0.278 C 
HETATM    5  O   UNL     1      22.856  44.510  49.122  1.00  0.00    -0.265 OA
HETATM    6  C   UNL     1      20.972  45.313  47.830  1.00  0.00     0.146 C 
ENDROOT
BRANCH   1   7
HETATM    7  C   UNL     1      19.878  46.885  46.093  1.00  0.00     0.196 C 
HETATM    8  O   UNL     1      20.244  46.960  44.926  1.00  0.00    -0.287 OA
BRANCH   7   9
HETATM    9  C   UNL     1      18.506  47.197  46.486  1.00  0.00     0.045 A 
HETATM   10  C   UNL     1      17.925  48.518  46.506  1.00  0.00    -0.013 A 
HETATM   11  C   UNL     1      18.645  49.790  46.190  1.00  0.00     0.052 C 
HETATM   12  C   UNL     1      16.576  48.381  46.820  1.00  0.00     0.115 A 
HETATM   13  N   UNL     1      16.353  47.042  47.040  1.00  0.00    -0.354 N 
HETATM   14  H   UNL     1      15.438  46.667  47.271  1.00  0.00     0.166 HD
HETATM   15  C   UNL     1      17.479  46.304  46.768  1.00  0.00     0.020 A 
HETATM   16  C   UNL     1      17.399  44.817  46.769  1.00  0.00     0.069 C 
BRANCH  12  17
HETATM   17  C   UNL     1      15.480  49.324  46.909  1.00  0.00     0.310 C 
HETATM   18  O   UNL     1      14.598  49.421  46.065  1.00  0.00    -0.258 OA
BRANCH  17  19
HETATM   19  O   UNL     1      15.591  50.101  48.018  1.00  0.00    -0.321 OA
HETATM   20  C   UNL     1      15.688  51.499  47.745  1.00  0.00     0.213 C 
ENDBRANCH  17  19
ENDBRANCH  12  17
ENDBRANCH   7   9
ENDBRANCH   1   7
BRANCH   2  21
HETATM   21  C   UNL     1      21.389  48.755  48.167  1.00  0.00    -0.028 A 
HETATM   22  C   UNL     1      20.342  48.762  49.105  1.00  0.00     0.045 A 
HETATM   23  C   UNL     1      19.895  49.974  49.657  1.00  0.00     0.103 A 
HETATM   24  C   UNL     1      20.497  51.186  49.303  1.00  0.00     0.036 A 
HETATM   25  C   UNL     1      21.548  51.183  48.388  1.00  0.00     0.003 A 
HETATM   26  C   UNL     1      21.988  49.981  47.826  1.00  0.00     0.010 A 
BRANCH  23  27
HETATM   27  N   UNL     1      18.786  49.965  50.620  1.00  0.00    -0.116 N 
HETATM   28  O   UNL     1      18.855  49.159  51.559  1.00  0.00    -0.532 OA
HETATM   29  O   UNL     1      17.864  50.773  50.449  1.00  0.00    -0.532 OA
ENDBRANCH  23  27
ENDBRANCH   2  21
BRANCH   6  30
HETATM   30  O   UNL     1      20.216  44.184  47.871  1.00  0.00    -0.355 OA
HETATM   31  H   UNL     1      19.995  43.954  48.792  1.00  0.00     0.218 HD
ENDBRANCH   6  30
BRANCH   3  32
HETATM   32  C   UNL     1      24.046  47.130  48.824  1.00  0.00     0.129 C 
BRANCH  32  33
HETATM   33  C   UNL     1      24.249  47.411  50.317  1.00  0.00     0.048 C 
BRANCH  33  34
HETATM   34  C   UNL     1      25.681  47.434  50.864  1.00  0.00     0.236 C 
BRANCH  34  35
HETATM   35  N   UNL     1      25.913  46.496  52.016  1.00  0.00    -0.067 N 
HETATM   36  H   UNL     1      26.849  46.072  51.849  1.00  0.00     0.280 HD
HETATM   37  C   UNL     1      25.854  47.123  53.397  1.00  0.00     0.261 C 
HETATM   38  C   UNL     1      26.155  46.064  54.463  1.00  0.00     0.195 C 
HETATM   39  O   UNL     1      25.244  44.965  54.369  1.00  0.00    -0.388 OA
HETATM   40  C   UNL     1      25.334  44.316  53.094  1.00  0.00     0.195 C 
HETATM   41  C   UNL     1      24.976  45.287  51.961  1.00  0.00     0.261 C 
ENDBRANCH  34  35
ENDBRANCH  33  34
ENDBRANCH  32  33
ENDBRANCH   3  32
TORSDOF 11
ENDMDL
MODEL 6
REMARK VINA RESULT:      -7.7     12.655     16.638
REMARK  11 active torsions:
REMARK  status: ('A' for Active; 'I' for Inactive)
REMARK    1  A    between atoms: C_3  and  C_4 
REMARK    2  A    between atoms: C_4  and  O_5 
REMARK    3  A    between atoms: C_12  and  C_13 
REMARK    4  A    between atoms: C_13  and  C_14 
REMARK    5  A    between atoms: C_15  and  C_16 
REMARK    6  A    between atoms: C_18  and  N_19 
REMARK    7  A    between atoms: N_25  and  C_26 
REMARK    8  A    between atoms: C_26  and  C_27 
REMARK    9  A    between atoms: C_27  and  C_28 
REMARK   10  A    between atoms: C_28  and  N_29 
REMARK   11  A    between atoms: C_38  and  O_39 
ROOT
HETATM    1  C   UNL     1      33.669  50.329  41.763  1.00  0.00     0.059 C 
HETATM    2  C   UNL     1      32.204  50.403  42.124  1.00  0.00     0.161 C 
HETATM    3  N   UNL     1      31.748  49.063  41.788  1.00  0.00    -0.333 N 
HETATM    4  C   UNL     1      32.801  48.275  41.374  1.00  0.00     0.278 C 
HETATM    5  O   UNL     1      32.755  47.063  41.221  1.00  0.00    -0.265 OA
HETATM    6  C   UNL     1      33.993  49.144  41.222  1.00  0.00     0.146 C 
ENDROOT
BRANCH   1   7
HETATM    7  C   UNL     1      34.474  51.534  42.083  1.00  0.00     0.196 C 
HETATM    8  O   UNL     1      34.322  52.102  43.159  1.00  0.00    -0.287 OA
BRANCH   7   9
HETATM    9  C   UNL     1      35.442  52.007  41.098  1.00  0.00     0.045 A 
HETATM   10  C   UNL     1      36.851  51.695  41.099  1.00  0.00    -0.013 A 
HETATM   11  C   UNL     1      37.565  50.892  42.139  1.00  0.00     0.052 C 
HETATM   12  C   UNL     1      37.403  52.233  39.940  1.00  0.00     0.115 A 
HETATM   13  N   UNL     1      36.390  52.895  39.286  1.00  0.00    -0.354 N 
HETATM   14  H   UNL     1      36.523  53.364  38.396  1.00  0.00     0.166 HD
HETATM   15  C   UNL     1      35.188  52.705  39.923  1.00  0.00     0.020 A 
HETATM   16  C   UNL     1      33.934  53.186  39.280  1.00  0.00     0.069 C 
BRANCH  12  17
HETATM   17  C   UNL     1      38.730  52.182  39.359  1.00  0.00     0.310 C 
HETATM   18  O   UNL     1      39.446  53.165  39.218  1.00  0.00    -0.258 OA
BRANCH  17  19
HETATM   19  O   UNL     1      39.041  50.922  38.959  1.00  0.00    -0.321 OA
HETATM   20  C   UNL     1      38.627  50.612  37.628  1.00  0.00     0.213 C 
ENDBRANCH  17  19
ENDBRANCH  12  17
ENDBRANCH   7   9
ENDBRANCH   1   7
BRANCH   2  21
HETATM   21  C   UNL     1      31.379  51.441  41.379  1.00  0.00    -0.028 A 
HETATM   22  C   UNL     1      30.991  51.268  40.038  1.00  0.00     0.045 A 
HETATM   23  C   UNL     1      30.250  52.265  39.383  1.00  0.00     0.103 A 
HETATM   24  C   UNL     1      29.866  53.430  40.055  1.00  0.00     0.036 A 
HETATM   25  C   UNL     1      30.232  53.599  41.389  1.00  0.00     0.003 A 
HETATM   26  C   UNL     1      30.981  52.616  42.043  1.00  0.00     0.010 A 
BRANCH  23  27
HETATM   27  N   UNL     1      29.871  52.077  37.976  1.00  0.00    -0.116 N 
HETATM   28  O   UNL     1      28.953  52.783  37.535  1.00  0.00    -0.532 OA
HETATM   29  O   UNL     1      30.505  51.246  37.312  1.00  0.00    -0.532 OA
ENDBRANCH  23  27
ENDBRANCH   2  21
BRANCH   6  30
HETATM   30  O   UNL     1      35.153  48.678  40.687  1.00  0.00    -0.355 OA
HETATM   31  H   UNL     1      35.020  48.419  39.757  1.00  0.00     0.218 HD
ENDBRANCH   6  30
BRANCH   3  32
HETATM   32  C   UNL     1      30.501  48.523  42.299  1.00  0.00     0.129 C 
BRANCH  32  33
HETATM   33  C   UNL     1      29.326  48.593  41.317  1.00  0.00     0.048 C 
BRANCH  33  34
HETATM   34  C   UNL     1      29.421  47.794  40.012  1.00  0.00     0.236 C 
BRANCH  34  35
HETATM   35  N   UNL     1      28.464  48.247  38.944  1.00  0.00    -0.067 N 
HETATM   36  H   UNL     1      29.060  48.568  38.152  1.00  0.00     0.280 HD
HETATM   37  C   UNL     1      27.468  47.205  38.469  1.00  0.00     0.261 C 
HETATM   38  C   UNL     1      26.596  47.791  37.353  1.00  0.00     0.195 C 
HETATM   39  O   UNL     1      25.919  48.972  37.794  1.00  0.00    -0.388 OA
HETATM   40  C   UNL     1      26.847  49.993  38.182  1.00  0.00     0.195 C 
HETATM   41  C   UNL     1      27.721  49.520  39.351  1.00  0.00     0.261 C 
ENDBRANCH  34  35
ENDBRANCH  33  34
ENDBRANCH  32  33
ENDBRANCH   3  32
TORSDOF 11
ENDMDL
MODEL 7
REMARK VINA RESULT:      -7.7     10.758     14.508
REMARK  11 active torsions:
REMARK  status: ('A' for Active; 'I' for Inactive)
REMARK    1  A    between atoms: C_3  and  C_4 
REMARK    2  A    between atoms: C_4  and  O_5 
REMARK    3  A    between atoms: C_12  and  C_13 
REMARK    4  A    between atoms: C_13  and  C_14 
REMARK    5  A    between atoms: C_15  and  C_16 
REMARK    6  A    between atoms: C_18  and  N_19 
REMARK    7  A    between atoms: N_25  and  C_26 
REMARK    8  A    between atoms: C_26  and  C_27 
REMARK    9  A    between atoms: C_27  and  C_28 
REMARK   10  A    between atoms: C_28  and  N_29 
REMARK   11  A    between atoms: C_38  and  O_39 
ROOT
HETATM    1  C   UNL     1      16.057  51.690  45.915  1.00  0.00     0.059 C 
HETATM    2  C   UNL     1      15.971  51.456  47.404  1.00  0.00     0.161 C 
HETATM    3  N   UNL     1      15.299  52.666  47.855  1.00  0.00    -0.333 N 
HETATM    4  C   UNL     1      14.953  53.463  46.785  1.00  0.00     0.278 C 
HETATM    5  O   UNL     1      14.211  54.433  46.842  1.00  0.00    -0.265 OA
HETATM    6  C   UNL     1      15.580  52.895  45.567  1.00  0.00     0.146 C 
ENDROOT
BRANCH   1   7
HETATM    7  C   UNL     1      16.618  50.571  45.117  1.00  0.00     0.196 C 
HETATM    8  O   UNL     1      17.230  50.806  44.082  1.00  0.00    -0.287 OA
BRANCH   7   9
HETATM    9  C   UNL     1      16.428  49.206  45.601  1.00  0.00     0.045 A 
HETATM   10  C   UNL     1      17.479  48.338  46.076  1.00  0.00    -0.013 A 
HETATM   11  C   UNL     1      18.938  48.664  46.092  1.00  0.00     0.052 C 
HETATM   12  C   UNL     1      16.881  47.175  46.556  1.00  0.00     0.115 A 
HETATM   13  N   UNL     1      15.530  47.301  46.332  1.00  0.00    -0.354 N 
HETATM   14  H   UNL     1      14.858  46.593  46.608  1.00  0.00     0.166 HD
HETATM   15  C   UNL     1      15.228  48.545  45.833  1.00  0.00     0.020 A 
HETATM   16  C   UNL     1      13.802  48.952  45.690  1.00  0.00     0.069 C 
BRANCH  12  17
HETATM   17  C   UNL     1      17.401  45.993  47.214  1.00  0.00     0.310 C 
HETATM   18  O   UNL     1      17.210  45.738  48.396  1.00  0.00    -0.258 OA
BRANCH  17  19
HETATM   19  O   UNL     1      18.151  45.249  46.362  1.00  0.00    -0.321 OA
HETATM   20  C   UNL     1      17.392  44.380  45.520  1.00  0.00     0.213 C 
ENDBRANCH  17  19
ENDBRANCH  12  17
ENDBRANCH   7   9
ENDBRANCH   1   7
BRANCH   2  21
HETATM   21  C   UNL     1      17.292  51.283  48.138  1.00  0.00    -0.028 A 
HETATM   22  C   UNL     1      17.528  50.206  49.010  1.00  0.00     0.045 A 
HETATM   23  C   UNL     1      18.755  50.100  49.686  1.00  0.00     0.103 A 
HETATM   24  C   UNL     1      19.766  51.046  49.486  1.00  0.00     0.036 A 
HETATM   25  C   UNL     1      19.544  52.105  48.608  1.00  0.00     0.003 A 
HETATM   26  C   UNL     1      18.320  52.223  47.943  1.00  0.00     0.010 A 
BRANCH  23  27
HETATM   27  N   UNL     1      18.977  48.980  50.610  1.00  0.00    -0.116 N 
HETATM   28  O   UNL     1      18.746  49.179  51.811  1.00  0.00    -0.532 OA
HETATM   29  O   UNL     1      19.357  47.903  50.133  1.00  0.00    -0.532 OA
ENDBRANCH  23  27
ENDBRANCH   2  21
BRANCH   6  30
HETATM   30  O   UNL     1      15.537  53.545  44.373  1.00  0.00    -0.355 OA
HETATM   31  H   UNL     1      16.184  54.274  44.358  1.00  0.00     0.218 HD
ENDBRANCH   6  30
BRANCH   3  32
HETATM   32  C   UNL     1      14.656  52.751  49.154  1.00  0.00     0.129 C 
BRANCH  32  33
HETATM   33  C   UNL     1      15.359  53.676  50.154  1.00  0.00     0.048 C 
BRANCH  33  34
HETATM   34  C   UNL     1      14.572  54.152  51.381  1.00  0.00     0.236 C 
BRANCH  34  35
HETATM   35  N   UNL     1      14.553  55.644  51.557  1.00  0.00    -0.067 N 
HETATM   36  H   UNL     1      13.552  55.922  51.494  1.00  0.00     0.280 HD
HETATM   37  C   UNL     1      15.168  56.162  52.845  1.00  0.00     0.261 C 
HETATM   38  C   UNL     1      15.035  57.687  52.908  1.00  0.00     0.195 C 
HETATM   39  O   UNL     1      15.648  58.305  51.773  1.00  0.00    -0.388 OA
HETATM   40  C   UNL     1      15.035  57.880  50.549  1.00  0.00     0.195 C 
HETATM   41  C   UNL     1      15.183  56.365  50.363  1.00  0.00     0.261 C 
ENDBRANCH  34  35
ENDBRANCH  33  34
ENDBRANCH  32  33
ENDBRANCH   3  32
TORSDOF 11
ENDMDL
MODEL 8
REMARK VINA RESULT:      -7.5      8.823     13.075
REMARK  11 active torsions:
REMARK  status: ('A' for Active; 'I' for Inactive)
REMARK    1  A    between atoms: C_3  and  C_4 
REMARK    2  A    between atoms: C_4  and  O_5 
REMARK    3  A    between atoms: C_12  and  C_13 
REMARK    4  A    between atoms: C_13  and  C_14 
REMARK    5  A    between atoms: C_15  and  C_16 
REMARK    6  A    between atoms: C_18  and  N_19 
REMARK    7  A    between atoms: N_25  and  C_26 
REMARK    8  A    between atoms: C_26  and  C_27 
REMARK    9  A    between atoms: C_27  and  C_28 
REMARK   10  A    between atoms: C_28  and  N_29 
REMARK   11  A    between atoms: C_38  and  O_39 
ROOT
HETATM    1  C   UNL     1      17.063  48.957  46.606  1.00  0.00     0.059 C 
HETATM    2  C   UNL     1      17.393  50.402  46.893  1.00  0.00     0.161 C 
HETATM    3  N   UNL     1      17.423  50.970  45.554  1.00  0.00    -0.333 N 
HETATM    4  C   UNL     1      17.073  50.027  44.612  1.00  0.00     0.278 C 
HETATM    5  O   UNL     1      16.821  50.264  43.440  1.00  0.00    -0.265 OA
HETATM    6  C   UNL     1      16.994  48.710  45.288  1.00  0.00     0.146 C 
ENDROOT
BRANCH   1   7
HETATM    7  C   UNL     1      16.856  48.093  47.795  1.00  0.00     0.196 C 
HETATM    8  O   UNL     1      15.738  47.991  48.288  1.00  0.00    -0.287 OA
BRANCH   7   9
HETATM    9  C   UNL     1      18.003  47.375  48.344  1.00  0.00     0.045 A 
HETATM   10  C   UNL     1      18.728  46.325  47.669  1.00  0.00    -0.013 A 
HETATM   11  C   UNL     1      18.389  45.755  46.328  1.00  0.00     0.052 C 
HETATM   12  C   UNL     1      19.815  45.982  48.467  1.00  0.00     0.115 A 
HETATM   13  N   UNL     1      19.728  46.746  49.607  1.00  0.00    -0.354 N 
HETATM   14  H   UNL     1      20.415  46.703  50.353  1.00  0.00     0.166 HD
HETATM   15  C   UNL     1      18.693  47.645  49.519  1.00  0.00     0.020 A 
HETATM   16  C   UNL     1      18.537  48.689  50.570  1.00  0.00     0.069 C 
BRANCH  12  17
HETATM   17  C   UNL     1      20.925  45.067  48.290  1.00  0.00     0.310 C 
HETATM   18  O   UNL     1      21.281  44.261  49.139  1.00  0.00    -0.258 OA
BRANCH  17  19
HETATM   19  O   UNL     1      21.530  45.259  47.089  1.00  0.00    -0.321 OA
HETATM   20  C   UNL     1      22.763  44.555  46.936  1.00  0.00     0.213 C 
ENDBRANCH  17  19
ENDBRANCH  12  17
ENDBRANCH   7   9
ENDBRANCH   1   7
BRANCH   2  21
HETATM   21  C   UNL     1      18.711  50.664  47.606  1.00  0.00    -0.028 A 
HETATM   22  C   UNL     1      19.910  50.041  47.214  1.00  0.00     0.045 A 
HETATM   23  C   UNL     1      21.099  50.294  47.918  1.00  0.00     0.103 A 
HETATM   24  C   UNL     1      21.117  51.182  48.998  1.00  0.00     0.036 A 
HETATM   25  C   UNL     1      19.935  51.815  49.378  1.00  0.00     0.003 A 
HETATM   26  C   UNL     1      18.746  51.558  48.691  1.00  0.00     0.010 A 
BRANCH  23  27
HETATM   27  N   UNL     1      22.338  49.618  47.509  1.00  0.00    -0.116 N 
HETATM   28  O   UNL     1      22.333  48.379  47.497  1.00  0.00    -0.532 OA
HETATM   29  O   UNL     1      23.300  50.324  47.179  1.00  0.00    -0.532 OA
ENDBRANCH  23  27
ENDBRANCH   2  21
BRANCH   6  30
HETATM   30  O   UNL     1      16.809  47.558  44.589  1.00  0.00    -0.355 OA
HETATM   31  H   UNL     1      17.099  46.790  45.113  1.00  0.00     0.218 HD
ENDBRANCH   6  30
BRANCH   3  32
HETATM   32  C   UNL     1      17.332  52.401  45.323  1.00  0.00     0.129 C 
BRANCH  32  33
HETATM   33  C   UNL     1      15.901  52.944  45.242  1.00  0.00     0.048 C 
BRANCH  33  34
HETATM   34  C   UNL     1      14.942  52.638  46.399  1.00  0.00     0.236 C 
BRANCH  34  35
HETATM   35  N   UNL     1      15.073  53.574  47.568  1.00  0.00    -0.067 N 
HETATM   36  H   UNL     1      15.974  54.074  47.427  1.00  0.00     0.280 HD
HETATM   37  C   UNL     1      13.937  54.565  47.747  1.00  0.00     0.261 C 
HETATM   38  C   UNL     1      14.229  55.479  48.942  1.00  0.00     0.195 C 
HETATM   39  O   UNL     1      14.427  54.718  50.137  1.00  0.00    -0.388 OA
HETATM   40  C   UNL     1      15.540  53.823  50.011  1.00  0.00     0.195 C 
HETATM   41  C   UNL     1      15.304  52.816  48.878  1.00  0.00     0.261 C 
ENDBRANCH  34  35
ENDBRANCH  33  34
ENDBRANCH  32  33
ENDBRANCH   3  32
TORSDOF 11
ENDMDL
MODEL 9
REMARK VINA RESULT:      -7.5     11.732     15.187
REMARK  11 active torsions:
REMARK  status: ('A' for Active; 'I' for Inactive)
REMARK    1  A    between atoms: C_3  and  C_4 
REMARK    2  A    between atoms: C_4  and  O_5 
REMARK    3  A    between atoms: C_12  and  C_13 
REMARK    4  A    between atoms: C_13  and  C_14 
REMARK    5  A    between atoms: C_15  and  C_16 
REMARK    6  A    between atoms: C_18  and  N_19 
REMARK    7  A    between atoms: N_25  and  C_26 
REMARK    8  A    between atoms: C_26  and  C_27 
REMARK    9  A    between atoms: C_27  and  C_28 
REMARK   10  A    between atoms: C_28  and  N_29 
REMARK   11  A    between atoms: C_38  and  O_39 
ROOT
HETATM    1  C   UNL     1      15.546  52.133  46.838  1.00  0.00     0.059 C 
HETATM    2  C   UNL     1      15.577  51.742  48.296  1.00  0.00     0.161 C 
HETATM    3  N   UNL     1      14.974  52.907  48.927  1.00  0.00    -0.333 N 
HETATM    4  C   UNL     1      14.560  53.819  47.981  1.00  0.00     0.278 C 
HETATM    5  O   UNL     1      13.848  54.788  48.202  1.00  0.00    -0.265 OA
HETATM    6  C   UNL     1      15.070  53.376  46.661  1.00  0.00     0.146 C 
ENDROOT
BRANCH   1   7
HETATM    7  C   UNL     1      16.012  51.097  45.882  1.00  0.00     0.196 C 
HETATM    8  O   UNL     1      16.912  51.357  45.091  1.00  0.00    -0.287 OA
BRANCH   7   9
HETATM    9  C   UNL     1      15.383  49.780  45.920  1.00  0.00     0.045 A 
HETATM   10  C   UNL     1      14.090  49.458  45.365  1.00  0.00    -0.013 A 
HETATM   11  C   UNL     1      13.154  50.429  44.719  1.00  0.00     0.052 C 
HETATM   12  C   UNL     1      13.903  48.086  45.499  1.00  0.00     0.115 A 
HETATM   13  N   UNL     1      15.007  47.596  46.158  1.00  0.00    -0.354 N 
HETATM   14  H   UNL     1      15.131  46.611  46.367  1.00  0.00     0.166 HD
HETATM   15  C   UNL     1      15.943  48.583  46.350  1.00  0.00     0.020 A 
HETATM   16  C   UNL     1      17.287  48.225  46.883  1.00  0.00     0.069 C 
BRANCH  12  17
HETATM   17  C   UNL     1      12.855  47.182  45.068  1.00  0.00     0.310 C 
HETATM   18  O   UNL     1      12.124  46.576  45.841  1.00  0.00    -0.258 OA
BRANCH  17  19
HETATM   19  O   UNL     1      12.830  47.071  43.715  1.00  0.00    -0.321 OA
HETATM   20  C   UNL     1      11.519  46.952  43.162  1.00  0.00     0.213 C 
ENDBRANCH  17  19
ENDBRANCH  12  17
ENDBRANCH   7   9
ENDBRANCH   1   7
BRANCH   2  21
HETATM   21  C   UNL     1      16.949  51.472  48.893  1.00  0.00    -0.028 A 
HETATM   22  C   UNL     1      17.220  50.322  49.656  1.00  0.00     0.045 A 
HETATM   23  C   UNL     1      18.497  50.127  50.210  1.00  0.00     0.103 A 
HETATM   24  C   UNL     1      19.521  51.054  49.992  1.00  0.00     0.036 A 
HETATM   25  C   UNL     1      19.263  52.186  49.221  1.00  0.00     0.003 A 
HETATM   26  C   UNL     1      17.991  52.393  48.679  1.00  0.00     0.010 A 
BRANCH  23  27
HETATM   27  N   UNL     1      18.756  48.931  51.022  1.00  0.00    -0.116 N 
HETATM   28  O   UNL     1      18.635  49.041  52.251  1.00  0.00    -0.532 OA
HETATM   29  O   UNL     1      19.057  47.884  50.433  1.00  0.00    -0.532 OA
ENDBRANCH  23  27
ENDBRANCH   2  21
BRANCH   6  30
HETATM   30  O   UNL     1      14.945  54.151  45.550  1.00  0.00    -0.355 OA
HETATM   31  H   UNL     1      14.007  54.341  45.371  1.00  0.00     0.218 HD
ENDBRANCH   6  30
BRANCH   3  32
HETATM   32  C   UNL     1      14.443  52.861  50.278  1.00  0.00     0.129 C 
BRANCH  32  33
HETATM   33  C   UNL     1      14.685  54.131  51.101  1.00  0.00     0.048 C 
BRANCH  33  34
HETATM   34  C   UNL     1      13.476  54.999  51.472  1.00  0.00     0.236 C 
BRANCH  34  35
HETATM   35  N   UNL     1      13.787  56.098  52.449  1.00  0.00    -0.067 N 
HETATM   36  H   UNL     1      13.642  56.987  51.926  1.00  0.00     0.280 HD
HETATM   37  C   UNL     1      12.967  56.093  53.726  1.00  0.00     0.261 C 
HETATM   38  C   UNL     1      13.357  57.291  54.599  1.00  0.00     0.195 C 
HETATM   39  O   UNL     1      14.756  57.278  54.898  1.00  0.00    -0.388 OA
HETATM   40  C   UNL     1      15.548  57.351  53.705  1.00  0.00     0.195 C 
HETATM   41  C   UNL     1      15.276  56.145  52.796  1.00  0.00     0.261 C 
ENDBRANCH  34  35
ENDBRANCH  33  34
ENDBRANCH  32  33
ENDBRANCH   3  32
TORSDOF 11
ENDMDL
MODEL 10
REMARK VINA RESULT:      -7.4      7.153     10.319
REMARK  11 active torsions:
REMARK  status: ('A' for Active; 'I' for Inactive)
REMARK    1  A    between atoms: C_3  and  C_4 
REMARK    2  A    between atoms: C_4  and  O_5 
REMARK    3  A    between atoms: C_12  and  C_13 
REMARK    4  A    between atoms: C_13  and  C_14 
REMARK    5  A    between atoms: C_15  and  C_16 
REMARK    6  A    between atoms: C_18  and  N_19 
REMARK    7  A    between atoms: N_25  and  C_26 
REMARK    8  A    between atoms: C_26  and  C_27 
REMARK    9  A    between atoms: C_27  and  C_28 
REMARK   10  A    between atoms: C_28  and  N_29 
REMARK   11  A    between atoms: C_38  and  O_39 
ROOT
HETATM    1  C   UNL     1      18.777  48.867  49.229  1.00  0.00     0.059 C 
HETATM    2  C   UNL     1      19.454  49.601  48.097  1.00  0.00     0.161 C 
HETATM    3  N   UNL     1      20.316  50.526  48.817  1.00  0.00    -0.333 N 
HETATM    4  C   UNL     1      20.236  50.314  50.177  1.00  0.00     0.278 C 
HETATM    5  O   UNL     1      20.988  50.799  51.010  1.00  0.00    -0.265 OA
HETATM    6  C   UNL     1      19.135  49.353  50.428  1.00  0.00     0.146 C 
ENDROOT
BRANCH   1   7
HETATM    7  C   UNL     1      17.878  47.754  48.831  1.00  0.00     0.196 C 
HETATM    8  O   UNL     1      16.864  47.527  49.480  1.00  0.00    -0.287 OA
BRANCH   7   9
HETATM    9  C   UNL     1      18.230  46.960  47.657  1.00  0.00     0.045 A 
HETATM   10  C   UNL     1      19.289  45.981  47.601  1.00  0.00    -0.013 A 
HETATM   11  C   UNL     1      20.241  45.663  48.709  1.00  0.00     0.052 C 
HETATM   12  C   UNL     1      19.226  45.363  46.355  1.00  0.00     0.115 A 
HETATM   13  N   UNL     1      18.211  45.975  45.658  1.00  0.00    -0.354 N 
HETATM   14  H   UNL     1      17.942  45.697  44.719  1.00  0.00     0.166 HD
HETATM   15  C   UNL     1      17.548  46.882  46.448  1.00  0.00     0.020 A 
HETATM   16  C   UNL     1      16.302  47.523  45.943  1.00  0.00     0.069 C 
BRANCH  12  17
HETATM   17  C   UNL     1      19.962  44.269  45.754  1.00  0.00     0.310 C 
HETATM   18  O   UNL     1      20.712  44.402  44.796  1.00  0.00    -0.258 OA
BRANCH  17  19
HETATM   19  O   UNL     1      19.672  43.090  46.364  1.00  0.00    -0.321 OA
HETATM   20  C   UNL     1      20.224  41.944  45.715  1.00  0.00     0.213 C 
ENDBRANCH  17  19
ENDBRANCH  12  17
ENDBRANCH   7   9
ENDBRANCH   1   7
BRANCH   2  21
HETATM   21  C   UNL     1      18.542  50.364  47.147  1.00  0.00    -0.028 A 
HETATM   22  C   UNL     1      17.450  51.122  47.606  1.00  0.00     0.045 A 
HETATM   23  C   UNL     1      16.620  51.790  46.691  1.00  0.00     0.103 A 
HETATM   24  C   UNL     1      16.877  51.732  45.317  1.00  0.00     0.036 A 
HETATM   25  C   UNL     1      17.969  50.997  44.859  1.00  0.00     0.003 A 
HETATM   26  C   UNL     1      18.791  50.320  45.764  1.00  0.00     0.010 A 
BRANCH  23  27
HETATM   27  N   UNL     1      15.471  52.560  47.186  1.00  0.00    -0.116 N 
HETATM   28  O   UNL     1      15.291  52.589  48.412  1.00  0.00    -0.532 OA
HETATM   29  O   UNL     1      14.768  53.150  46.355  1.00  0.00    -0.532 OA
ENDBRANCH  23  27
ENDBRANCH   2  21
BRANCH   6  30
HETATM   30  O   UNL     1      18.719  49.056  51.689  1.00  0.00    -0.355 OA
HETATM   31  H   UNL     1      19.366  49.374  52.345  1.00  0.00     0.218 HD
ENDBRANCH   6  30
BRANCH   3  32
HETATM   32  C   UNL     1      21.438  51.189  48.178  1.00  0.00     0.129 C 
BRANCH  32  33
HETATM   33  C   UNL     1      22.490  50.240  47.591  1.00  0.00     0.048 C 
BRANCH  33  34
HETATM   34  C   UNL     1      23.970  50.549  47.845  1.00  0.00     0.236 C 
BRANCH  34  35
HETATM   35  N   UNL     1      24.760  49.381  48.366  1.00  0.00    -0.067 N 
HETATM   36  H   UNL     1      24.741  48.668  47.607  1.00  0.00     0.280 HD
HETATM   37  C   UNL     1      26.190  49.684  48.774  1.00  0.00     0.261 C 
HETATM   38  C   UNL     1      26.883  48.397  49.235  1.00  0.00     0.195 C 
HETATM   39  O   UNL     1      26.170  47.787  50.315  1.00  0.00    -0.388 OA
HETATM   40  C   UNL     1      24.836  47.431  49.928  1.00  0.00     0.195 C 
HETATM   41  C   UNL     1      24.038  48.674  49.515  1.00  0.00     0.261 C 
ENDBRANCH  34  35
ENDBRANCH  33  34
ENDBRANCH  32  33
ENDBRANCH   3  32
TORSDOF 11
ENDMDL
