MODEL 1
REMARK VINA RESULT:     -11.1      0.000      0.000
REMARK  7 active torsions:
REMARK  status: ('A' for Active; 'I' for Inactive)
REMARK    1  A    between atoms: C_4  and  N_5 
REMARK    2  A    between atoms: N_8  and  C_10 
REMARK    3  A    between atoms: C_10  and  C_11 
REMARK    4  A    between atoms: C_11  and  C_12 
REMARK    5  A    between atoms: C_12  and  N_13 
REMARK       I    between atoms: N_13  and  C_14 
REMARK    6  A    between atoms: C_14  and  C_15 
REMARK    7  A    between atoms: C_21  and  C_22 
ROOT
HETATM    1  N   UNL     1      23.558  47.123  49.714  1.00  0.00    -0.357 N 
HETATM    2  C   UNL     1      23.554  48.438  49.294  1.00  0.00     0.251 C 
HETATM    3  O   UNL     1      24.585  48.980  48.897  1.00  0.00    -0.268 OA
HETATM    4  H   UNL     1      22.691  46.654  49.950  1.00  0.00     0.162 HD
ENDROOT
BRANCH   2   5
HETATM    5  C   UNL     1      22.233  49.128  49.211  1.00  0.00     0.034 A 
HETATM    6  C   UNL     1      21.036  48.460  48.925  1.00  0.00     0.048 A 
HETATM    7  C   UNL     1      19.839  49.178  48.765  1.00  0.00     0.053 A 
HETATM    8  C   UNL     1      19.825  50.565  48.903  1.00  0.00     0.032 A 
HETATM    9  N   UNL     1      18.687  48.459  48.448  1.00  0.00    -0.321 N 
HETATM   10  S   UNL     1      18.385  51.555  48.653  1.00  0.00    -0.083 SA
HETATM   11  C   UNL     1      21.017  51.226  49.227  1.00  0.00     0.022 A 
HETATM   12  C   UNL     1      17.122  50.390  48.498  1.00  0.00     0.074 C 
HETATM   13  C   UNL     1      15.817  50.731  48.516  1.00  0.00     0.036 C 
HETATM   14  C   UNL     1      17.417  48.935  48.297  1.00  0.00     0.263 C 
HETATM   15  O   UNL     1      16.537  48.122  48.012  1.00  0.00    -0.267 OA
HETATM   16  C   UNL     1      22.211  50.516  49.383  1.00  0.00     0.018 A 
HETATM   17  H   UNL     1      18.735  47.455  48.325  1.00  0.00     0.169 HD
BRANCH  13  18
HETATM   18  C   UNL     1      15.283  52.086  48.701  1.00  0.00    -0.035 A 
HETATM   19  C   UNL     1      15.076  52.587  49.990  1.00  0.00     0.011 A 
HETATM   20  C   UNL     1      14.554  53.869  50.168  1.00  0.00     0.001 A 
HETATM   21  C   UNL     1      14.240  54.656  49.060  1.00  0.00     0.000 A 
HETATM   22  C   UNL     1      14.451  54.163  47.773  1.00  0.00     0.001 A 
HETATM   23  C   UNL     1      14.973  52.881  47.593  1.00  0.00     0.011 A 
ENDBRANCH  13  18
ENDBRANCH   2   5
BRANCH   1  24
HETATM   24  C   UNL     1      24.769  46.331  49.742  1.00  0.00     0.124 C 
BRANCH  24  25
HETATM   25  C   UNL     1      24.645  45.098  50.636  1.00  0.00     0.047 C 
BRANCH  25  26
HETATM   26  C   UNL     1      25.562  43.918  50.305  1.00  0.00     0.236 C 
BRANCH  26  27
HETATM   27  N   UNL     1      26.431  43.477  51.457  1.00  0.00    -0.068 N 
HETATM   28  C   UNL     1      27.896  43.871  51.276  1.00  0.00     0.254 C 
HETATM   29  C   UNL     1      28.753  43.610  52.534  1.00  0.00     0.150 C 
HETATM   30  N   UNL     1      28.106  44.232  53.697  1.00  0.00    -0.377 N 
HETATM   31  C   UNL     1      26.778  43.656  53.975  1.00  0.00     0.150 C 
HETATM   32  C   UNL     1      25.853  43.993  52.788  1.00  0.00     0.254 C 
HETATM   33  H   UNL     1      26.339  42.444  51.536  1.00  0.00     0.280 HD
BRANCH  30  34
HETATM   34  C   UNL     1      28.883  44.579  54.809  1.00  0.00     0.036 A 
HETATM   35  C   UNL     1      29.914  43.743  55.280  1.00  0.00     0.036 A 
HETATM   36  C   UNL     1      30.734  44.097  56.363  1.00  0.00    -0.060 A 
HETATM   37  C   UNL     1      31.874  43.220  56.792  1.00  0.00     0.048 C 
HETATM   38  C   UNL     1      30.517  45.314  57.007  1.00  0.00     0.007 A 
HETATM   39  C   UNL     1      29.505  46.161  56.568  1.00  0.00     0.009 A 
HETATM   40  C   UNL     1      28.704  45.824  55.460  1.00  0.00    -0.035 A 
HETATM   41  C   UNL     1      27.697  46.852  55.015  1.00  0.00     0.050 C 
ENDBRANCH  30  34
ENDBRANCH  26  27
ENDBRANCH  25  26
ENDBRANCH  24  25
ENDBRANCH   1  24
TORSDOF 7
ENDMDL
MODEL 2
REMARK VINA RESULT:     -11.0      1.248      2.128
REMARK  7 active torsions:
REMARK  status: ('A' for Active; 'I' for Inactive)
REMARK    1  A    between atoms: C_4  and  N_5 
REMARK    2  A    between atoms: N_8  and  C_10 
REMARK    3  A    between atoms: C_10  and  C_11 
REMARK    4  A    between atoms: C_11  and  C_12 
REMARK    5  A    between atoms: C_12  and  N_13 
REMARK       I    between atoms: N_13  and  C_14 
REMARK    6  A    between atoms: C_14  and  C_15 
REMARK    7  A    between atoms: C_21  and  C_22 
ROOT
HETATM    1  N   UNL     1      23.454  48.442  49.538  1.00  0.00    -0.357 N 
HETATM    2  C   UNL     1      22.544  48.475  48.500  1.00  0.00     0.251 C 
HETATM    3  O   UNL     1      22.650  47.712  47.539  1.00  0.00    -0.268 OA
HETATM    4  H   UNL     1      23.311  49.004  50.368  1.00  0.00     0.162 HD
ENDROOT
BRANCH   2   5
HETATM    5  C   UNL     1      21.358  49.367  48.656  1.00  0.00     0.034 A 
HETATM    6  C   UNL     1      20.038  48.920  48.514  1.00  0.00     0.048 A 
HETATM    7  C   UNL     1      18.968  49.827  48.576  1.00  0.00     0.053 A 
HETATM    8  C   UNL     1      19.204  51.183  48.795  1.00  0.00     0.032 A 
HETATM    9  N   UNL     1      17.679  49.325  48.395  1.00  0.00    -0.321 N 
HETATM   10  S   UNL     1      17.929  52.403  48.820  1.00  0.00    -0.083 SA
HETATM   11  C   UNL     1      20.523  51.620  48.974  1.00  0.00     0.022 A 
HETATM   12  C   UNL     1      16.479  51.467  48.789  1.00  0.00     0.074 C 
HETATM   13  C   UNL     1      15.265  52.006  49.022  1.00  0.00     0.036 C 
HETATM   14  C   UNL     1      16.498  50.005  48.462  1.00  0.00     0.263 C 
HETATM   15  O   UNL     1      15.463  49.365  48.266  1.00  0.00    -0.267 OA
HETATM   16  C   UNL     1      21.592  50.723  48.909  1.00  0.00     0.018 A 
HETATM   17  H   UNL     1      17.542  48.340  48.208  1.00  0.00     0.169 HD
BRANCH  13  18
HETATM   18  C   UNL     1      14.995  53.408  49.363  1.00  0.00    -0.035 A 
HETATM   19  C   UNL     1      14.347  54.239  48.444  1.00  0.00     0.011 A 
HETATM   20  C   UNL     1      14.103  55.577  48.760  1.00  0.00     0.001 A 
HETATM   21  C   UNL     1      14.504  56.087  49.994  1.00  0.00     0.000 A 
HETATM   22  C   UNL     1      15.145  55.260  50.916  1.00  0.00     0.001 A 
HETATM   23  C   UNL     1      15.390  53.922  50.602  1.00  0.00     0.011 A 
ENDBRANCH  13  18
ENDBRANCH   2   5
BRANCH   1  24
HETATM   24  C   UNL     1      24.590  47.543  49.534  1.00  0.00     0.124 C 
BRANCH  24  25
HETATM   25  C   UNL     1      25.087  47.218  50.942  1.00  0.00     0.047 C 
BRANCH  25  26
HETATM   26  C   UNL     1      24.872  45.783  51.427  1.00  0.00     0.236 C 
BRANCH  26  27
HETATM   27  N   UNL     1      25.477  45.499  52.781  1.00  0.00    -0.068 N 
HETATM   28  C   UNL     1      26.052  44.087  52.886  1.00  0.00     0.254 C 
HETATM   29  C   UNL     1      26.853  43.855  54.185  1.00  0.00     0.150 C 
HETATM   30  N   UNL     1      27.853  44.921  54.335  1.00  0.00    -0.377 N 
HETATM   31  C   UNL     1      27.237  46.254  54.462  1.00  0.00     0.150 C 
HETATM   32  C   UNL     1      26.518  46.576  53.135  1.00  0.00     0.254 C 
HETATM   33  H   UNL     1      24.729  45.640  53.490  1.00  0.00     0.280 HD
BRANCH  30  34
HETATM   34  C   UNL     1      28.997  44.684  55.106  1.00  0.00     0.036 A 
HETATM   35  C   UNL     1      29.285  45.450  56.253  1.00  0.00     0.036 A 
HETATM   36  C   UNL     1      30.403  45.197  57.065  1.00  0.00    -0.060 A 
HETATM   37  C   UNL     1      30.640  45.981  58.322  1.00  0.00     0.048 C 
HETATM   38  C   UNL     1      31.266  44.158  56.723  1.00  0.00     0.007 A 
HETATM   39  C   UNL     1      31.010  43.385  55.597  1.00  0.00     0.009 A 
HETATM   40  C   UNL     1      29.872  43.615  54.800  1.00  0.00    -0.035 A 
HETATM   41  C   UNL     1      29.644  42.663  53.654  1.00  0.00     0.050 C 
ENDBRANCH  30  34
ENDBRANCH  26  27
ENDBRANCH  25  26
ENDBRANCH  24  25
ENDBRANCH   1  24
TORSDOF 7
ENDMDL
MODEL 3
REMARK VINA RESULT:     -10.6      2.170      3.320
REMARK  7 active torsions:
REMARK  status: ('A' for Active; 'I' for Inactive)
REMARK    1  A    between atoms: C_4  and  N_5 
REMARK    2  A    between atoms: N_8  and  C_10 
REMARK    3  A    between atoms: C_10  and  C_11 
REMARK    4  A    between atoms: C_11  and  C_12 
REMARK    5  A    between atoms: C_12  and  N_13 
REMARK       I    between atoms: N_13  and  C_14 
REMARK    6  A    between atoms: C_14  and  C_15 
REMARK    7  A    between atoms: C_21  and  C_22 
ROOT
HETATM    1  N   UNL     1      23.775  43.714  49.202  1.00  0.00    -0.357 N 
HETATM    2  C   UNL     1      23.247  44.228  48.035  1.00  0.00     0.251 C 
HETATM    3  O   UNL     1      23.378  43.635  46.964  1.00  0.00    -0.268 OA
HETATM    4  H   UNL     1      23.584  44.156  50.094  1.00  0.00     0.162 HD
ENDROOT
BRANCH   2   5
HETATM    5  C   UNL     1      22.397  45.450  48.146  1.00  0.00     0.034 A 
HETATM    6  C   UNL     1      22.920  46.749  48.143  1.00  0.00     0.048 A 
HETATM    7  C   UNL     1      22.080  47.856  48.348  1.00  0.00     0.053 A 
HETATM    8  C   UNL     1      20.712  47.676  48.541  1.00  0.00     0.032 A 
HETATM    9  N   UNL     1      22.666  49.122  48.368  1.00  0.00    -0.321 N 
HETATM   10  S   UNL     1      19.592  49.000  48.872  1.00  0.00    -0.083 SA
HETATM   11  C   UNL     1      20.187  46.378  48.504  1.00  0.00     0.022 A 
HETATM   12  C   UNL     1      20.554  50.410  48.619  1.00  0.00     0.074 C 
HETATM   13  C   UNL     1      20.021  51.648  48.551  1.00  0.00     0.036 C 
HETATM   14  C   UNL     1      22.046  50.330  48.499  1.00  0.00     0.263 C 
HETATM   15  O   UNL     1      22.757  51.336  48.493  1.00  0.00    -0.267 OA
HETATM   16  C   UNL     1      21.019  45.273  48.305  1.00  0.00     0.018 A 
HETATM   17  H   UNL     1      23.667  49.217  48.254  1.00  0.00     0.169 HD
BRANCH  13  18
HETATM   18  C   UNL     1      18.593  51.976  48.639  1.00  0.00    -0.035 A 
HETATM   19  C   UNL     1      17.789  51.912  47.497  1.00  0.00     0.011 A 
HETATM   20  C   UNL     1      16.434  52.239  47.576  1.00  0.00     0.001 A 
HETATM   21  C   UNL     1      15.879  52.629  48.794  1.00  0.00     0.000 A 
HETATM   22  C   UNL     1      16.676  52.689  49.936  1.00  0.00     0.001 A 
HETATM   23  C   UNL     1      18.031  52.362  49.860  1.00  0.00     0.011 A 
ENDBRANCH  13  18
ENDBRANCH   2   5
BRANCH   1  24
HETATM   24  C   UNL     1      24.534  42.481  49.223  1.00  0.00     0.124 C 
BRANCH  24  25
HETATM   25  C   UNL     1      25.136  42.183  50.596  1.00  0.00     0.047 C 
BRANCH  25  26
HETATM   26  C   UNL     1      26.304  41.196  50.630  1.00  0.00     0.236 C 
BRANCH  26  27
HETATM   27  N   UNL     1      27.537  41.731  51.317  1.00  0.00    -0.068 N 
HETATM   28  C   UNL     1      27.566  43.258  51.371  1.00  0.00     0.254 C 
HETATM   29  C   UNL     1      28.711  43.811  52.247  1.00  0.00     0.150 C 
HETATM   30  N   UNL     1      28.665  43.167  53.566  1.00  0.00    -0.377 N 
HETATM   31  C   UNL     1      28.873  41.710  53.486  1.00  0.00     0.150 C 
HETATM   32  C   UNL     1      27.686  41.100  52.713  1.00  0.00     0.254 C 
HETATM   33  H   UNL     1      28.362  41.370  50.797  1.00  0.00     0.280 HD
BRANCH  30  34
HETATM   34  C   UNL     1      29.230  43.820  54.668  1.00  0.00     0.036 A 
HETATM   35  C   UNL     1      30.336  43.284  55.356  1.00  0.00     0.036 A 
HETATM   36  C   UNL     1      30.946  43.948  56.434  1.00  0.00    -0.060 A 
HETATM   37  C   UNL     1      32.170  43.387  57.096  1.00  0.00     0.048 C 
HETATM   38  C   UNL     1      30.435  45.176  56.847  1.00  0.00     0.007 A 
HETATM   39  C   UNL     1      29.343  45.731  56.190  1.00  0.00     0.009 A 
HETATM   40  C   UNL     1      28.752  45.084  55.088  1.00  0.00    -0.035 A 
HETATM   41  C   UNL     1      27.630  45.815  54.396  1.00  0.00     0.050 C 
ENDBRANCH  30  34
ENDBRANCH  26  27
ENDBRANCH  25  26
ENDBRANCH  24  25
ENDBRANCH   1  24
TORSDOF 7
ENDMDL
MODEL 4
REMARK VINA RESULT:     -10.3      3.126     13.323
REMARK  7 active torsions:
REMARK  status: ('A' for Active; 'I' for Inactive)
REMARK    1  A    between atoms: C_4  and  N_5 
REMARK    2  A    between atoms: N_8  and  C_10 
REMARK    3  A    between atoms: C_10  and  C_11 
REMARK    4  A    between atoms: C_11  and  C_12 
REMARK    5  A    between atoms: C_12  and  N_13 
REMARK       I    between atoms: N_13  and  C_14 
REMARK    6  A    between atoms: C_14  and  C_15 
REMARK    7  A    between atoms: C_21  and  C_22 
ROOT
HETATM    1  N   UNL     1      22.463  44.712  49.766  1.00  0.00    -0.357 N 
HETATM    2  C   UNL     1      23.648  44.011  49.667  1.00  0.00     0.251 C 
HETATM    3  O   UNL     1      23.917  43.360  48.657  1.00  0.00    -0.268 OA
HETATM    4  H   UNL     1      22.287  45.320  50.557  1.00  0.00     0.162 HD
ENDROOT
BRANCH   2   5
HETATM    5  C   UNL     1      24.642  44.184  50.766  1.00  0.00     0.034 A 
HETATM    6  C   UNL     1      24.691  45.321  51.583  1.00  0.00     0.048 A 
HETATM    7  C   UNL     1      25.710  45.469  52.538  1.00  0.00     0.053 A 
HETATM    8  C   UNL     1      26.678  44.480  52.695  1.00  0.00     0.032 A 
HETATM    9  N   UNL     1      25.724  46.639  53.298  1.00  0.00    -0.321 N 
HETATM   10  S   UNL     1      28.033  44.611  53.819  1.00  0.00    -0.083 SA
HETATM   11  C   UNL     1      26.604  43.327  51.903  1.00  0.00     0.022 A 
HETATM   12  C   UNL     1      27.655  46.022  54.737  1.00  0.00     0.074 C 
HETATM   13  C   UNL     1      28.324  46.356  55.861  1.00  0.00     0.036 C 
HETATM   14  C   UNL     1      26.580  46.973  54.306  1.00  0.00     0.263 C 
HETATM   15  O   UNL     1      26.416  48.066  54.850  1.00  0.00    -0.267 OA
HETATM   16  C   UNL     1      25.595  43.176  50.948  1.00  0.00     0.018 A 
HETATM   17  H   UNL     1      25.023  47.353  53.140  1.00  0.00     0.169 HD
BRANCH  13  18
HETATM   18  C   UNL     1      29.409  45.585  56.478  1.00  0.00    -0.035 A 
HETATM   19  C   UNL     1      30.076  44.601  55.740  1.00  0.00     0.011 A 
HETATM   20  C   UNL     1      31.099  43.856  56.331  1.00  0.00     0.001 A 
HETATM   21  C   UNL     1      31.460  44.092  57.657  1.00  0.00     0.000 A 
HETATM   22  C   UNL     1      30.802  45.076  58.393  1.00  0.00     0.001 A 
HETATM   23  C   UNL     1      29.779  45.823  57.806  1.00  0.00     0.011 A 
ENDBRANCH  13  18
ENDBRANCH   2   5
BRANCH   1  24
HETATM   24  C   UNL     1      21.469  44.691  48.713  1.00  0.00     0.124 C 
BRANCH  24  25
HETATM   25  C   UNL     1      20.813  46.055  48.496  1.00  0.00     0.047 C 
BRANCH  25  26
HETATM   26  C   UNL     1      21.622  47.279  48.929  1.00  0.00     0.236 C 
BRANCH  26  27
HETATM   27  N   UNL     1      20.776  48.426  49.424  1.00  0.00    -0.068 N 
HETATM   28  C   UNL     1      20.916  49.679  48.560  1.00  0.00     0.254 C 
HETATM   29  C   UNL     1      19.906  50.786  48.931  1.00  0.00     0.150 C 
HETATM   30  N   UNL     1      18.551  50.219  48.949  1.00  0.00    -0.377 N 
HETATM   31  C   UNL     1      18.398  49.163  49.965  1.00  0.00     0.150 C 
HETATM   32  C   UNL     1      19.309  47.983  49.569  1.00  0.00     0.254 C 
HETATM   33  H   UNL     1      21.068  48.626  50.403  1.00  0.00     0.280 HD
BRANCH  30  34
HETATM   34  C   UNL     1      17.452  51.064  48.754  1.00  0.00     0.036 A 
HETATM   35  C   UNL     1      16.967  51.894  49.784  1.00  0.00     0.036 A 
HETATM   36  C   UNL     1      15.896  52.782  49.593  1.00  0.00    -0.060 A 
HETATM   37  C   UNL     1      15.453  53.709  50.688  1.00  0.00     0.048 C 
HETATM   38  C   UNL     1      15.281  52.841  48.344  1.00  0.00     0.007 A 
HETATM   39  C   UNL     1      15.734  52.034  47.307  1.00  0.00     0.009 A 
HETATM   40  C   UNL     1      16.829  51.167  47.487  1.00  0.00    -0.035 A 
HETATM   41  C   UNL     1      17.293  50.402  46.274  1.00  0.00     0.050 C 
ENDBRANCH  30  34
ENDBRANCH  26  27
ENDBRANCH  25  26
ENDBRANCH  24  25
ENDBRANCH   1  24
TORSDOF 7
ENDMDL
MODEL 5
REMARK VINA RESULT:     -10.3      3.287     12.289
REMARK  7 active torsions:
REMARK  status: ('A' for Active; 'I' for Inactive)
REMARK    1  A    between atoms: C_4  and  N_5 
REMARK    2  A    between atoms: N_8  and  C_10 
REMARK    3  A    between atoms: C_10  and  C_11 
REMARK    4  A    between atoms: C_11  and  C_12 
REMARK    5  A    between atoms: C_12  and  N_13 
REMARK       I    between atoms: N_13  and  C_14 
REMARK    6  A    between atoms: C_14  and  C_15 
REMARK    7  A    between atoms: C_21  and  C_22 
ROOT
HETATM    1  N   UNL     1      23.920  43.789  47.844  1.00  0.00    -0.357 N 
HETATM    2  C   UNL     1      23.552  43.356  49.102  1.00  0.00     0.251 C 
HETATM    3  O   UNL     1      22.566  42.637  49.263  1.00  0.00    -0.268 OA
HETATM    4  H   UNL     1      24.783  44.301  47.705  1.00  0.00     0.162 HD
ENDROOT
BRANCH   2   5
HETATM    5  C   UNL     1      24.470  43.678  50.234  1.00  0.00     0.034 A 
HETATM    6  C   UNL     1      24.396  44.871  50.965  1.00  0.00     0.048 A 
HETATM    7  C   UNL     1      25.349  45.159  51.956  1.00  0.00     0.053 A 
HETATM    8  C   UNL     1      26.372  44.255  52.235  1.00  0.00     0.032 A 
HETATM    9  N   UNL     1      25.242  46.378  52.626  1.00  0.00    -0.321 N 
HETATM   10  S   UNL     1      27.650  44.563  53.413  1.00  0.00    -0.083 SA
HETATM   11  C   UNL     1      26.420  43.047  51.529  1.00  0.00     0.022 A 
HETATM   12  C   UNL     1      27.127  46.006  54.203  1.00  0.00     0.074 C 
HETATM   13  C   UNL     1      27.708  46.465  55.330  1.00  0.00     0.036 C 
HETATM   14  C   UNL     1      26.016  46.844  53.648  1.00  0.00     0.263 C 
HETATM   15  O   UNL     1      25.749  47.959  54.100  1.00  0.00    -0.267 OA
HETATM   16  C   UNL     1      25.477  42.757  50.539  1.00  0.00     0.018 A 
HETATM   17  H   UNL     1      24.504  47.027  52.379  1.00  0.00     0.169 HD
BRANCH  13  18
HETATM   18  C   UNL     1      28.808  45.820  56.057  1.00  0.00    -0.035 A 
HETATM   19  C   UNL     1      29.017  46.108  57.409  1.00  0.00     0.011 A 
HETATM   20  C   UNL     1      30.072  45.506  58.098  1.00  0.00     0.001 A 
HETATM   21  C   UNL     1      30.919  44.615  57.440  1.00  0.00     0.000 A 
HETATM   22  C   UNL     1      30.710  44.320  56.094  1.00  0.00     0.001 A 
HETATM   23  C   UNL     1      29.656  44.920  55.402  1.00  0.00     0.011 A 
ENDBRANCH  13  18
ENDBRANCH   2   5
BRANCH   1  24
HETATM   24  C   UNL     1      23.153  43.452  46.663  1.00  0.00     0.124 C 
BRANCH  24  25
HETATM   25  C   UNL     1      22.143  44.536  46.287  1.00  0.00     0.047 C 
BRANCH  25  26
HETATM   26  C   UNL     1      20.665  44.181  46.458  1.00  0.00     0.236 C 
BRANCH  26  27
HETATM   27  N   UNL     1      19.853  45.257  47.138  1.00  0.00    -0.068 N 
HETATM   28  C   UNL     1      20.539  45.814  48.385  1.00  0.00     0.254 C 
HETATM   29  C   UNL     1      19.821  47.050  48.968  1.00  0.00     0.150 C 
HETATM   30  N   UNL     1      19.620  48.041  47.903  1.00  0.00    -0.377 N 
HETATM   31  C   UNL     1      18.756  47.535  46.822  1.00  0.00     0.150 C 
HETATM   32  C   UNL     1      19.489  46.365  46.133  1.00  0.00     0.254 C 
HETATM   33  H   UNL     1      18.932  44.840  47.385  1.00  0.00     0.280 HD
BRANCH  30  34
HETATM   34  C   UNL     1      19.471  49.392  48.241  1.00  0.00     0.036 A 
HETATM   35  C   UNL     1      18.256  49.898  48.741  1.00  0.00     0.036 A 
HETATM   36  C   UNL     1      18.103  51.239  49.130  1.00  0.00    -0.060 A 
HETATM   37  C   UNL     1      16.818  51.729  49.731  1.00  0.00     0.048 C 
HETATM   38  C   UNL     1      19.187  52.106  49.010  1.00  0.00     0.007 A 
HETATM   39  C   UNL     1      20.400  51.637  48.519  1.00  0.00     0.009 A 
HETATM   40  C   UNL     1      20.566  50.286  48.160  1.00  0.00    -0.035 A 
HETATM   41  C   UNL     1      21.945  49.866  47.722  1.00  0.00     0.050 C 
ENDBRANCH  30  34
ENDBRANCH  26  27
ENDBRANCH  25  26
ENDBRANCH  24  25
ENDBRANCH   1  24
TORSDOF 7
ENDMDL
MODEL 6
REMARK VINA RESULT:     -10.2      3.531     13.021
REMARK  7 active torsions:
REMARK  status: ('A' for Active; 'I' for Inactive)
REMARK    1  A    between atoms: C_4  and  N_5 
REMARK    2  A    between atoms: N_8  and  C_10 
REMARK    3  A    between atoms: C_10  and  C_11 
REMARK    4  A    between atoms: C_11  and  C_12 
REMARK    5  A    between atoms: C_12  and  N_13 
REMARK       I    between atoms: N_13  and  C_14 
REMARK    6  A    between atoms: C_14  and  C_15 
REMARK    7  A    between atoms: C_21  and  C_22 
ROOT
HETATM    1  N   UNL     1      23.685  43.957  47.629  1.00  0.00    -0.357 N 
HETATM    2  C   UNL     1      23.417  43.340  48.834  1.00  0.00     0.251 C 
HETATM    3  O   UNL     1      22.422  42.629  48.975  1.00  0.00    -0.268 OA
HETATM    4  H   UNL     1      24.552  44.464  47.490  1.00  0.00     0.162 HD
ENDROOT
BRANCH   2   5
HETATM    5  C   UNL     1      24.445  43.457  49.909  1.00  0.00     0.034 A 
HETATM    6  C   UNL     1      25.463  42.513  50.101  1.00  0.00     0.048 A 
HETATM    7  C   UNL     1      26.343  42.627  51.190  1.00  0.00     0.053 A 
HETATM    8  C   UNL     1      26.226  43.688  52.084  1.00  0.00     0.032 A 
HETATM    9  N   UNL     1      27.315  41.637  51.346  1.00  0.00    -0.321 N 
HETATM   10  S   UNL     1      27.242  43.874  53.516  1.00  0.00    -0.083 SA
HETATM   11  C   UNL     1      25.231  44.650  51.867  1.00  0.00     0.022 A 
HETATM   12  C   UNL     1      28.446  42.655  53.312  1.00  0.00     0.074 C 
HETATM   13  C   UNL     1      29.556  42.599  54.077  1.00  0.00     0.036 C 
HETATM   14  C   UNL     1      28.297  41.569  52.290  1.00  0.00     0.263 C 
HETATM   15  O   UNL     1      29.056  40.600  52.250  1.00  0.00    -0.267 OA
HETATM   16  C   UNL     1      24.350  44.540  50.788  1.00  0.00     0.018 A 
HETATM   17  H   UNL     1      27.356  40.862  50.696  1.00  0.00     0.169 HD
BRANCH  13  18
HETATM   18  C   UNL     1      29.921  43.547  55.136  1.00  0.00    -0.035 A 
HETATM   19  C   UNL     1      29.330  44.814  55.176  1.00  0.00     0.011 A 
HETATM   20  C   UNL     1      29.687  45.722  56.174  1.00  0.00     0.001 A 
HETATM   21  C   UNL     1      30.633  45.368  57.135  1.00  0.00     0.000 A 
HETATM   22  C   UNL     1      31.220  44.104  57.103  1.00  0.00     0.001 A 
HETATM   23  C   UNL     1      30.864  43.194  56.107  1.00  0.00     0.011 A 
ENDBRANCH  13  18
ENDBRANCH   2   5
BRANCH   1  24
HETATM   24  C   UNL     1      22.802  43.831  46.489  1.00  0.00     0.124 C 
BRANCH  24  25
HETATM   25  C   UNL     1      21.787  44.970  46.401  1.00  0.00     0.047 C 
BRANCH  25  26
HETATM   26  C   UNL     1      20.310  44.575  46.460  1.00  0.00     0.236 C 
BRANCH  26  27
HETATM   27  N   UNL     1      19.405  45.672  46.965  1.00  0.00    -0.068 N 
HETATM   28  C   UNL     1      19.755  46.120  48.384  1.00  0.00     0.254 C 
HETATM   29  C   UNL     1      18.975  47.375  48.832  1.00  0.00     0.150 C 
HETATM   30  N   UNL     1      19.126  48.427  47.819  1.00  0.00    -0.377 N 
HETATM   31  C   UNL     1      18.562  48.035  46.515  1.00  0.00     0.150 C 
HETATM   32  C   UNL     1      19.389  46.850  45.974  1.00  0.00     0.254 C 
HETATM   33  H   UNL     1      18.430  45.310  46.929  1.00  0.00     0.280 HD
BRANCH  30  34
HETATM   34  C   UNL     1      18.966  49.767  48.192  1.00  0.00     0.036 A 
HETATM   35  C   UNL     1      17.740  50.254  48.686  1.00  0.00     0.036 A 
HETATM   36  C   UNL     1      17.575  51.583  49.109  1.00  0.00    -0.060 A 
HETATM   37  C   UNL     1      16.278  52.051  49.703  1.00  0.00     0.048 C 
HETATM   38  C   UNL     1      18.656  52.457  49.031  1.00  0.00     0.007 A 
HETATM   39  C   UNL     1      19.879  52.008  48.546  1.00  0.00     0.009 A 
HETATM   40  C   UNL     1      20.057  50.668  48.153  1.00  0.00    -0.035 A 
HETATM   41  C   UNL     1      21.445  50.266  47.726  1.00  0.00     0.050 C 
ENDBRANCH  30  34
ENDBRANCH  26  27
ENDBRANCH  25  26
ENDBRANCH  24  25
ENDBRANCH   1  24
TORSDOF 7
ENDMDL
MODEL 7
REMARK VINA RESULT:      -9.6      1.482      2.440
REMARK  7 active torsions:
REMARK  status: ('A' for Active; 'I' for Inactive)
REMARK    1  A    between atoms: C_4  and  N_5 
REMARK    2  A    between atoms: N_8  and  C_10 
REMARK    3  A    between atoms: C_10  and  C_11 
REMARK    4  A    between atoms: C_11  and  C_12 
REMARK    5  A    between atoms: C_12  and  N_13 
REMARK       I    between atoms: N_13  and  C_14 
REMARK    6  A    between atoms: C_14  and  C_15 
REMARK    7  A    between atoms: C_21  and  C_22 
ROOT
HETATM    1  N   UNL     1      22.684  46.512  49.188  1.00  0.00    -0.357 N 
HETATM    2  C   UNL     1      22.659  47.887  49.318  1.00  0.00     0.251 C 
HETATM    3  O   UNL     1      23.631  48.499  49.761  1.00  0.00    -0.268 OA
HETATM    4  H   UNL     1      21.921  46.022  48.737  1.00  0.00     0.162 HD
ENDROOT
BRANCH   2   5
HETATM    5  C   UNL     1      21.470  48.606  48.775  1.00  0.00     0.034 A 
HETATM    6  C   UNL     1      20.165  48.104  48.862  1.00  0.00     0.048 A 
HETATM    7  C   UNL     1      19.099  48.780  48.247  1.00  0.00     0.053 A 
HETATM    8  C   UNL     1      19.323  49.968  47.554  1.00  0.00     0.032 A 
HETATM    9  N   UNL     1      17.828  48.213  48.341  1.00  0.00    -0.321 N 
HETATM   10  S   UNL     1      18.058  50.849  46.694  1.00  0.00    -0.083 SA
HETATM   11  C   UNL     1      20.623  50.487  47.502  1.00  0.00     0.022 A 
HETATM   12  C   UNL     1      16.611  50.038  47.172  1.00  0.00     0.074 C 
HETATM   13  C   UNL     1      15.384  50.536  46.914  1.00  0.00     0.036 C 
HETATM   14  C   UNL     1      16.650  48.713  47.869  1.00  0.00     0.263 C 
HETATM   15  O   UNL     1      15.632  48.044  48.059  1.00  0.00    -0.267 OA
HETATM   16  C   UNL     1      21.688  49.816  48.109  1.00  0.00     0.018 A 
HETATM   17  H   UNL     1      17.702  47.333  48.826  1.00  0.00     0.169 HD
BRANCH  13  18
HETATM   18  C   UNL     1      15.094  51.811  46.248  1.00  0.00    -0.035 A 
HETATM   19  C   UNL     1      15.213  51.919  44.859  1.00  0.00     0.011 A 
HETATM   20  C   UNL     1      14.953  53.135  44.226  1.00  0.00     0.001 A 
HETATM   21  C   UNL     1      14.570  54.246  44.977  1.00  0.00     0.000 A 
HETATM   22  C   UNL     1      14.443  54.142  46.361  1.00  0.00     0.001 A 
HETATM   23  C   UNL     1      14.703  52.927  46.997  1.00  0.00     0.011 A 
ENDBRANCH  13  18
ENDBRANCH   2   5
BRANCH   1  24
HETATM   24  C   UNL     1      23.829  45.724  49.594  1.00  0.00     0.124 C 
BRANCH  24  25
HETATM   25  C   UNL     1      23.530  44.226  49.628  1.00  0.00     0.047 C 
BRANCH  25  26
HETATM   26  C   UNL     1      24.384  43.380  50.574  1.00  0.00     0.236 C 
BRANCH  26  27
HETATM   27  N   UNL     1      25.513  44.144  51.225  1.00  0.00    -0.068 N 
HETATM   28  C   UNL     1      25.238  44.465  52.693  1.00  0.00     0.254 C 
HETATM   29  C   UNL     1      26.463  45.059  53.422  1.00  0.00     0.150 C 
HETATM   30  N   UNL     1      27.625  44.187  53.207  1.00  0.00    -0.377 N 
HETATM   31  C   UNL     1      27.998  44.089  51.785  1.00  0.00     0.150 C 
HETATM   32  C   UNL     1      26.843  43.393  51.035  1.00  0.00     0.254 C 
HETATM   33  H   UNL     1      25.648  45.020  50.680  1.00  0.00     0.280 HD
BRANCH  30  34
HETATM   34  C   UNL     1      28.677  44.207  54.130  1.00  0.00     0.036 A 
HETATM   35  C   UNL     1      28.719  45.144  55.181  1.00  0.00     0.036 A 
HETATM   36  C   UNL     1      29.742  45.149  56.144  1.00  0.00    -0.060 A 
HETATM   37  C   UNL     1      29.718  46.111  57.295  1.00  0.00     0.048 C 
HETATM   38  C   UNL     1      30.759  44.201  56.055  1.00  0.00     0.007 A 
HETATM   39  C   UNL     1      30.748  43.264  55.028  1.00  0.00     0.009 A 
HETATM   40  C   UNL     1      29.706  43.235  54.081  1.00  0.00    -0.035 A 
HETATM   41  C   UNL     1      29.745  42.124  53.064  1.00  0.00     0.050 C 
ENDBRANCH  30  34
ENDBRANCH  26  27
ENDBRANCH  25  26
ENDBRANCH  24  25
ENDBRANCH   1  24
TORSDOF 7
ENDMDL
MODEL 8
REMARK VINA RESULT:      -9.6      4.014     12.328
REMARK  7 active torsions:
REMARK  status: ('A' for Active; 'I' for Inactive)
REMARK    1  A    between atoms: C_4  and  N_5 
REMARK    2  A    between atoms: N_8  and  C_10 
REMARK    3  A    between atoms: C_10  and  C_11 
REMARK    4  A    between atoms: C_11  and  C_12 
REMARK    5  A    between atoms: C_12  and  N_13 
REMARK       I    between atoms: N_13  and  C_14 
REMARK    6  A    between atoms: C_14  and  C_15 
REMARK    7  A    between atoms: C_21  and  C_22 
ROOT
HETATM    1  N   UNL     1      24.733  42.292  48.371  1.00  0.00    -0.357 N 
HETATM    2  C   UNL     1      25.429  41.412  49.176  1.00  0.00     0.251 C 
HETATM    3  O   UNL     1      25.541  40.225  48.868  1.00  0.00    -0.268 OA
HETATM    4  H   UNL     1      24.722  43.284  48.578  1.00  0.00     0.162 HD
ENDROOT
BRANCH   2   5
HETATM    5  C   UNL     1      26.151  41.982  50.351  1.00  0.00     0.034 A 
HETATM    6  C   UNL     1      25.903  43.265  50.855  1.00  0.00     0.048 A 
HETATM    7  C   UNL     1      26.683  43.781  51.903  1.00  0.00     0.053 A 
HETATM    8  C   UNL     1      27.703  43.018  52.465  1.00  0.00     0.032 A 
HETATM    9  N   UNL     1      26.409  45.078  52.338  1.00  0.00    -0.321 N 
HETATM   10  S   UNL     1      28.776  43.609  53.737  1.00  0.00    -0.083 SA
HETATM   11  C   UNL     1      27.923  41.721  51.984  1.00  0.00     0.022 A 
HETATM   12  C   UNL     1      28.061  45.112  54.196  1.00  0.00     0.074 C 
HETATM   13  C   UNL     1      28.444  45.788  55.298  1.00  0.00     0.036 C 
HETATM   14  C   UNL     1      26.997  45.759  53.363  1.00  0.00     0.263 C 
HETATM   15  O   UNL     1      26.604  46.907  53.581  1.00  0.00    -0.267 OA
HETATM   16  C   UNL     1      27.153  41.203  50.939  1.00  0.00     0.018 A 
HETATM   17  H   UNL     1      25.680  45.618  51.889  1.00  0.00     0.169 HD
BRANCH  13  18
HETATM   18  C   UNL     1      29.460  45.356  56.265  1.00  0.00    -0.035 A 
HETATM   19  C   UNL     1      29.471  45.892  57.556  1.00  0.00     0.011 A 
HETATM   20  C   UNL     1      30.447  45.493  58.472  1.00  0.00     0.001 A 
HETATM   21  C   UNL     1      31.411  44.557  58.102  1.00  0.00     0.000 A 
HETATM   22  C   UNL     1      31.400  44.015  56.818  1.00  0.00     0.001 A 
HETATM   23  C   UNL     1      30.426  44.412  55.900  1.00  0.00     0.011 A 
ENDBRANCH  13  18
ENDBRANCH   2   5
BRANCH   1  24
HETATM   24  C   UNL     1      24.075  41.863  47.154  1.00  0.00     0.124 C 
BRANCH  24  25
HETATM   25  C   UNL     1      23.100  42.907  46.613  1.00  0.00     0.047 C 
BRANCH  25  26
HETATM   26  C   UNL     1      21.755  43.024  47.332  1.00  0.00     0.236 C 
BRANCH  26  27
HETATM   27  N   UNL     1      21.165  44.413  47.304  1.00  0.00    -0.068 N 
HETATM   28  C   UNL     1      20.828  44.940  48.699  1.00  0.00     0.254 C 
HETATM   29  C   UNL     1      20.421  46.429  48.702  1.00  0.00     0.150 C 
HETATM   30  N   UNL     1      21.445  47.212  47.999  1.00  0.00    -0.377 N 
HETATM   31  C   UNL     1      21.576  46.823  46.583  1.00  0.00     0.150 C 
HETATM   32  C   UNL     1      22.093  45.370  46.533  1.00  0.00     0.254 C 
HETATM   33  H   UNL     1      20.309  44.375  46.714  1.00  0.00     0.280 HD
BRANCH  30  34
HETATM   34  C   UNL     1      21.585  48.575  48.288  1.00  0.00     0.036 A 
HETATM   35  C   UNL     1      20.530  49.485  48.082  1.00  0.00     0.036 A 
HETATM   36  C   UNL     1      20.636  50.846  48.411  1.00  0.00    -0.060 A 
HETATM   37  C   UNL     1      19.467  51.775  48.252  1.00  0.00     0.048 C 
HETATM   38  C   UNL     1      21.829  51.321  48.951  1.00  0.00     0.007 A 
HETATM   39  C   UNL     1      22.891  50.448  49.164  1.00  0.00     0.009 A 
HETATM   40  C   UNL     1      22.775  49.077  48.867  1.00  0.00    -0.035 A 
HETATM   41  C   UNL     1      23.954  48.206  49.218  1.00  0.00     0.050 C 
ENDBRANCH  30  34
ENDBRANCH  26  27
ENDBRANCH  25  26
ENDBRANCH  24  25
ENDBRANCH   1  24
TORSDOF 7
ENDMDL
MODEL 9
REMARK VINA RESULT:      -9.4      3.948     12.778
REMARK  7 active torsions:
REMARK  status: ('A' for Active; 'I' for Inactive)
REMARK    1  A    between atoms: C_4  and  N_5 
REMARK    2  A    between atoms: N_8  and  C_10 
REMARK    3  A    between atoms: C_10  and  C_11 
REMARK    4  A    between atoms: C_11  and  C_12 
REMARK    5  A    between atoms: C_12  and  N_13 
REMARK       I    between atoms: N_13  and  C_14 
REMARK    6  A    between atoms: C_14  and  C_15 
REMARK    7  A    between atoms: C_21  and  C_22 
ROOT
HETATM    1  N   UNL     1      23.949  41.725  48.959  1.00  0.00    -0.357 N 
HETATM    2  C   UNL     1      25.103  41.086  49.365  1.00  0.00     0.251 C 
HETATM    3  O   UNL     1      25.540  40.114  48.748  1.00  0.00    -0.268 OA
HETATM    4  H   UNL     1      23.645  42.579  49.412  1.00  0.00     0.162 HD
ENDROOT
BRANCH   2   5
HETATM    5  C   UNL     1      25.869  41.700  50.488  1.00  0.00     0.034 A 
HETATM    6  C   UNL     1      25.681  43.021  50.913  1.00  0.00     0.048 A 
HETATM    7  C   UNL     1      26.499  43.572  51.912  1.00  0.00     0.053 A 
HETATM    8  C   UNL     1      27.501  42.807  52.505  1.00  0.00     0.032 A 
HETATM    9  N   UNL     1      26.283  44.904  52.268  1.00  0.00    -0.321 N 
HETATM   10  S   UNL     1      28.619  43.436  53.718  1.00  0.00    -0.083 SA
HETATM   11  C   UNL     1      27.661  41.474  52.105  1.00  0.00     0.022 A 
HETATM   12  C   UNL     1      27.972  44.991  54.091  1.00  0.00     0.074 C 
HETATM   13  C   UNL     1      28.401  45.721  55.141  1.00  0.00     0.036 C 
HETATM   14  C   UNL     1      26.917  45.626  53.237  1.00  0.00     0.263 C 
HETATM   15  O   UNL     1      26.572  46.799  53.387  1.00  0.00    -0.267 OA
HETATM   16  C   UNL     1      26.853  40.922  51.109  1.00  0.00     0.018 A 
HETATM   17  H   UNL     1      25.567  45.443  51.797  1.00  0.00     0.169 HD
BRANCH  13  18
HETATM   18  C   UNL     1      29.419  45.311  56.116  1.00  0.00    -0.035 A 
HETATM   19  C   UNL     1      30.390  44.370  55.761  1.00  0.00     0.011 A 
HETATM   20  C   UNL     1      31.349  43.968  56.692  1.00  0.00     0.001 A 
HETATM   21  C   UNL     1      31.343  44.506  57.978  1.00  0.00     0.000 A 
HETATM   22  C   UNL     1      30.381  45.450  58.335  1.00  0.00     0.001 A 
HETATM   23  C   UNL     1      29.421  45.853  57.405  1.00  0.00     0.011 A 
ENDBRANCH  13  18
ENDBRANCH   2   5
BRANCH   1  24
HETATM   24  C   UNL     1      23.180  41.270  47.820  1.00  0.00     0.124 C 
BRANCH  24  25
HETATM   25  C   UNL     1      23.014  42.350  46.752  1.00  0.00     0.047 C 
BRANCH  25  26
HETATM   26  C   UNL     1      21.622  42.971  46.619  1.00  0.00     0.236 C 
BRANCH  26  27
HETATM   27  N   UNL     1      21.605  44.472  46.777  1.00  0.00    -0.068 N 
HETATM   28  C   UNL     1      20.564  45.148  45.886  1.00  0.00     0.254 C 
HETATM   29  C   UNL     1      20.394  46.652  46.187  1.00  0.00     0.150 C 
HETATM   30  N   UNL     1      20.159  46.835  47.625  1.00  0.00    -0.377 N 
HETATM   31  C   UNL     1      21.296  46.375  48.443  1.00  0.00     0.150 C 
HETATM   32  C   UNL     1      21.430  44.849  48.260  1.00  0.00     0.254 C 
HETATM   33  H   UNL     1      22.559  44.818  46.548  1.00  0.00     0.280 HD
BRANCH  30  34
HETATM   34  C   UNL     1      19.491  47.981  48.071  1.00  0.00     0.036 A 
HETATM   35  C   UNL     1      20.134  49.233  48.135  1.00  0.00     0.036 A 
HETATM   36  C   UNL     1      19.467  50.402  48.534  1.00  0.00    -0.060 A 
HETATM   37  C   UNL     1      20.160  51.734  48.517  1.00  0.00     0.048 C 
HETATM   38  C   UNL     1      18.122  50.326  48.890  1.00  0.00     0.007 A 
HETATM   39  C   UNL     1      17.459  49.105  48.840  1.00  0.00     0.009 A 
HETATM   40  C   UNL     1      18.116  47.937  48.408  1.00  0.00    -0.035 A 
HETATM   41  C   UNL     1      17.281  46.688  48.309  1.00  0.00     0.050 C 
ENDBRANCH  30  34
ENDBRANCH  26  27
ENDBRANCH  25  26
ENDBRANCH  24  25
ENDBRANCH   1  24
TORSDOF 7
ENDMDL
MODEL 10
REMARK VINA RESULT:      -9.1      7.649     13.887
REMARK  7 active torsions:
REMARK  status: ('A' for Active; 'I' for Inactive)
REMARK    1  A    between atoms: C_4  and  N_5 
REMARK    2  A    between atoms: N_8  and  C_10 
REMARK    3  A    between atoms: C_10  and  C_11 
REMARK    4  A    between atoms: C_11  and  C_12 
REMARK    5  A    between atoms: C_12  and  N_13 
REMARK       I    between atoms: N_13  and  C_14 
REMARK    6  A    between atoms: C_14  and  C_15 
REMARK    7  A    between atoms: C_21  and  C_22 
ROOT
HETATM    1  N   UNL     1      24.096  42.663  48.753  1.00  0.00    -0.357 N 
HETATM    2  C   UNL     1      23.603  43.178  49.935  1.00  0.00     0.251 C 
HETATM    3  O   UNL     1      22.391  43.254  50.138  1.00  0.00    -0.268 OA
HETATM    4  H   UNL     1      25.090  42.515  48.629  1.00  0.00     0.162 HD
ENDROOT
BRANCH   2   5
HETATM    5  C   UNL     1      24.591  43.506  51.005  1.00  0.00     0.034 A 
HETATM    6  C   UNL     1      24.612  44.735  51.678  1.00  0.00     0.048 A 
HETATM    7  C   UNL     1      25.626  45.021  52.607  1.00  0.00     0.053 A 
HETATM    8  C   UNL     1      26.616  44.080  52.882  1.00  0.00     0.032 A 
HETATM    9  N   UNL     1      25.611  46.274  53.219  1.00  0.00    -0.321 N 
HETATM   10  S   UNL     1      27.964  44.379  53.981  1.00  0.00    -0.083 SA
HETATM   11  C   UNL     1      26.570  42.839  52.236  1.00  0.00     0.022 A 
HETATM   12  C   UNL     1      27.552  45.882  54.722  1.00  0.00     0.074 C 
HETATM   13  C   UNL     1      28.210  46.364  55.796  1.00  0.00     0.036 C 
HETATM   14  C   UNL     1      26.456  46.748  54.179  1.00  0.00     0.263 C 
HETATM   15  O   UNL     1      26.267  47.895  54.586  1.00  0.00    -0.267 OA
HETATM   16  C   UNL     1      25.566  42.550  51.308  1.00  0.00     0.018 A 
HETATM   17  H   UNL     1      24.895  46.947  52.976  1.00  0.00     0.169 HD
BRANCH  13  18
HETATM   18  C   UNL     1      29.312  45.699  56.501  1.00  0.00    -0.035 A 
HETATM   19  C   UNL     1      29.529  45.954  57.859  1.00  0.00     0.011 A 
HETATM   20  C   UNL     1      30.586  45.333  58.528  1.00  0.00     0.001 A 
HETATM   21  C   UNL     1      31.427  44.457  57.844  1.00  0.00     0.000 A 
HETATM   22  C   UNL     1      31.211  44.195  56.492  1.00  0.00     0.001 A 
HETATM   23  C   UNL     1      30.155  44.813  55.821  1.00  0.00     0.011 A 
ENDBRANCH  13  18
ENDBRANCH   2   5
BRANCH   1  24
HETATM   24  C   UNL     1      23.222  42.222  47.685  1.00  0.00     0.124 C 
BRANCH  24  25
HETATM   25  C   UNL     1      22.955  40.718  47.726  1.00  0.00     0.047 C 
BRANCH  25  26
HETATM   26  C   UNL     1      21.729  40.221  46.957  1.00  0.00     0.236 C 
BRANCH  26  27
HETATM   27  N   UNL     1      21.219  38.879  47.422  1.00  0.00    -0.068 N 
HETATM   28  C   UNL     1      19.693  38.801  47.443  1.00  0.00     0.254 C 
HETATM   29  C   UNL     1      19.163  37.378  47.716  1.00  0.00     0.150 C 
HETATM   30  N   UNL     1      19.797  36.437  46.782  1.00  0.00    -0.377 N 
HETATM   31  C   UNL     1      21.259  36.374  46.956  1.00  0.00     0.150 C 
HETATM   32  C   UNL     1      21.845  37.751  46.581  1.00  0.00     0.254 C 
HETATM   33  H   UNL     1      21.604  38.715  48.375  1.00  0.00     0.280 HD
BRANCH  30  34
HETATM   34  C   UNL     1      19.150  35.234  46.476  1.00  0.00     0.036 A 
HETATM   35  C   UNL     1      19.184  34.134  47.356  1.00  0.00     0.036 A 
HETATM   36  C   UNL     1      18.502  32.936  47.088  1.00  0.00    -0.060 A 
HETATM   37  C   UNL     1      18.493  31.810  48.081  1.00  0.00     0.048 C 
HETATM   38  C   UNL     1      17.773  32.822  45.906  1.00  0.00     0.007 A 
HETATM   39  C   UNL     1      17.723  33.889  45.015  1.00  0.00     0.009 A 
HETATM   40  C   UNL     1      18.377  35.103  45.298  1.00  0.00    -0.035 A 
HETATM   41  C   UNL     1      18.184  36.222  44.307  1.00  0.00     0.050 C 
ENDBRANCH  30  34
ENDBRANCH  26  27
ENDBRANCH  25  26
ENDBRANCH  24  25
ENDBRANCH   1  24
TORSDOF 7
ENDMDL
