MODEL 1
REMARK VINA RESULT:      -9.6      0.000      0.000
REMARK  5 active torsions:
REMARK  status: ('A' for Active; 'I' for Inactive)
REMARK    1  A    between atoms: C_8  and  N_9 
REMARK       I    between atoms: N_9  and  C_10 
REMARK    2  A    between atoms: C_10  and  C_11 
REMARK    3  A    between atoms: C_11  and  C_12 
REMARK    4  A    between atoms: C_14  and  N_15 
REMARK       I    between atoms: N_15  and  C_16 
REMARK       I    between atoms: C_16  and  N_17 
REMARK    5  A    between atoms: N_17  and  C_18 
ROOT
HETATM    1  C   UNL     1      23.083  43.982  49.110  1.00  0.00     0.052 A 
HETATM    2  N   UNL     1      23.270  43.982  50.485  1.00  0.00    -0.228 NA
HETATM    3  C   UNL     1      24.329  43.277  50.789  1.00  0.00     0.174 A 
HETATM    4  S   UNL     1      25.171  42.573  49.482  1.00  0.00    -0.062 SA
HETATM    5  C   UNL     1      24.029  43.261  48.402  1.00  0.00     0.081 A 
ENDROOT
BRANCH   1   6
HETATM    6  C   UNL     1      21.903  44.704  48.557  1.00  0.00     0.163 C 
BRANCH   6   7
HETATM    7  C   UNL     1      22.244  46.093  48.038  1.00  0.00     0.227 C 
HETATM    8  N   UNL     1      22.520  47.011  49.040  1.00  0.00    -0.326 N 
HETATM    9  H   UNL     1      22.701  46.602  49.958  1.00  0.00     0.169 HD
HETATM   10  O   UNL     1      22.206  46.325  46.831  1.00  0.00    -0.273 OA
BRANCH   8  11
HETATM   11  C   UNL     1      22.644  48.419  48.918  1.00  0.00     0.042 A 
HETATM   12  C   UNL     1      21.490  49.234  49.018  1.00  0.00    -0.014 A 
HETATM   13  C   UNL     1      20.147  48.632  49.343  1.00  0.00     0.052 C 
HETATM   14  C   UNL     1      21.613  50.618  48.770  1.00  0.00     0.042 A 
HETATM   15 CL   UNL     1      20.252  51.689  48.783  1.00  0.00    -0.084 Cl
HETATM   16  C   UNL     1      22.854  51.190  48.481  1.00  0.00     0.024 A 
HETATM   17  C   UNL     1      23.987  50.392  48.425  1.00  0.00     0.004 A 
HETATM   18  C   UNL     1      23.881  49.018  48.637  1.00  0.00     0.030 A 
ENDBRANCH   8  11
ENDBRANCH   6   7
ENDBRANCH   1   6
BRANCH   3  19
HETATM   19  N   UNL     1      24.902  43.052  52.009  1.00  0.00    -0.287 N 
HETATM   20  C   UNL     1      25.948  43.820  52.477  1.00  0.00     0.326 C 
HETATM   21  N   UNL     1      26.529  43.231  53.593  1.00  0.00    -0.309 N 
HETATM   22  O   UNL     1      26.334  44.859  51.959  1.00  0.00    -0.247 OA
HETATM   23  H   UNL     1      26.040  42.448  53.998  1.00  0.00     0.170 HD
HETATM   24  H   UNL     1      24.535  42.285  52.543  1.00  0.00     0.172 HD
BRANCH  21  25
HETATM   25  C   UNL     1      27.744  43.587  54.215  1.00  0.00     0.036 A 
HETATM   26  C   UNL     1      27.962  44.802  54.874  1.00  0.00     0.032 A 
HETATM   27  C   UNL     1      29.216  45.099  55.419  1.00  0.00     0.044 A 
HETATM   28  C   UNL     1      30.250  44.181  55.307  1.00  0.00     0.116 A 
HETATM   29  F   UNL     1      31.452  44.469  55.822  1.00  0.00    -0.206 F 
HETATM   30  C   UNL     1      30.054  42.965  54.665  1.00  0.00     0.044 A 
HETATM   31  C   UNL     1      28.802  42.669  54.119  1.00  0.00     0.032 A 
ENDBRANCH  21  25
ENDBRANCH   3  19
TORSDOF 5
ENDMDL
MODEL 2
REMARK VINA RESULT:      -9.5      2.318      3.169
REMARK  5 active torsions:
REMARK  status: ('A' for Active; 'I' for Inactive)
REMARK    1  A    between atoms: C_8  and  N_9 
REMARK       I    between atoms: N_9  and  C_10 
REMARK    2  A    between atoms: C_10  and  C_11 
REMARK    3  A    between atoms: C_11  and  C_12 
REMARK    4  A    between atoms: C_14  and  N_15 
REMARK       I    between atoms: N_15  and  C_16 
REMARK       I    between atoms: C_16  and  N_17 
REMARK    5  A    between atoms: N_17  and  C_18 
ROOT
HETATM    1  C   UNL     1      24.912  43.060  50.801  1.00  0.00     0.052 A 
HETATM    2  N   UNL     1      25.949  43.653  51.507  1.00  0.00    -0.228 NA
HETATM    3  C   UNL     1      26.925  42.796  51.666  1.00  0.00     0.174 A 
HETATM    4  S   UNL     1      26.687  41.245  50.996  1.00  0.00    -0.062 SA
HETATM    5  C   UNL     1      25.143  41.745  50.439  1.00  0.00     0.081 A 
ENDROOT
BRANCH   1   6
HETATM    6  C   UNL     1      23.683  43.863  50.542  1.00  0.00     0.163 C 
BRANCH   6   7
HETATM    7  C   UNL     1      23.911  44.998  49.556  1.00  0.00     0.227 C 
HETATM    8  N   UNL     1      24.145  46.224  50.160  1.00  0.00    -0.326 N 
HETATM    9  H   UNL     1      24.378  46.175  51.153  1.00  0.00     0.169 HD
HETATM   10  O   UNL     1      23.824  44.789  48.347  1.00  0.00    -0.273 OA
BRANCH   8  11
HETATM   11  C   UNL     1      24.164  47.504  49.549  1.00  0.00     0.042 A 
HETATM   12  C   UNL     1      25.406  48.132  49.282  1.00  0.00    -0.014 A 
HETATM   13  C   UNL     1      26.705  47.418  49.554  1.00  0.00     0.052 C 
HETATM   14  C   UNL     1      25.405  49.455  48.790  1.00  0.00     0.042 A 
HETATM   15 CL   UNL     1      26.866  50.343  48.509  1.00  0.00    -0.084 Cl
HETATM   16  C   UNL     1      24.208  50.122  48.521  1.00  0.00     0.024 A 
HETATM   17  C   UNL     1      22.996  49.487  48.747  1.00  0.00     0.004 A 
HETATM   18  C   UNL     1      22.976  48.191  49.261  1.00  0.00     0.030 A 
ENDBRANCH   8  11
ENDBRANCH   6   7
ENDBRANCH   1   6
BRANCH   3  19
HETATM   19  N   UNL     1      28.145  42.969  52.257  1.00  0.00    -0.287 N 
HETATM   20  C   UNL     1      28.287  43.054  53.627  1.00  0.00     0.326 C 
HETATM   21  N   UNL     1      29.558  43.501  53.962  1.00  0.00    -0.309 N 
HETATM   22  O   UNL     1      27.403  42.802  54.434  1.00  0.00    -0.247 OA
HETATM   23  H   UNL     1      30.233  43.549  53.215  1.00  0.00     0.170 HD
HETATM   24  H   UNL     1      28.934  43.052  51.642  1.00  0.00     0.172 HD
BRANCH  21  25
HETATM   25  C   UNL     1      30.011  43.925  55.230  1.00  0.00     0.036 A 
HETATM   26  C   UNL     1      29.617  45.117  55.846  1.00  0.00     0.032 A 
HETATM   27  C   UNL     1      30.156  45.489  57.082  1.00  0.00     0.044 A 
HETATM   28  C   UNL     1      31.086  44.668  57.703  1.00  0.00     0.116 A 
HETATM   29  F   UNL     1      31.607  45.028  58.882  1.00  0.00    -0.206 F 
HETATM   30  C   UNL     1      31.486  43.475  57.114  1.00  0.00     0.044 A 
HETATM   31  C   UNL     1      30.949  43.105  55.877  1.00  0.00     0.032 A 
ENDBRANCH  21  25
ENDBRANCH   3  19
TORSDOF 5
ENDMDL
MODEL 3
REMARK VINA RESULT:      -9.2      4.872     10.068
REMARK  5 active torsions:
REMARK  status: ('A' for Active; 'I' for Inactive)
REMARK    1  A    between atoms: C_8  and  N_9 
REMARK       I    between atoms: N_9  and  C_10 
REMARK    2  A    between atoms: C_10  and  C_11 
REMARK    3  A    between atoms: C_11  and  C_12 
REMARK    4  A    between atoms: C_14  and  N_15 
REMARK       I    between atoms: N_15  and  C_16 
REMARK       I    between atoms: C_16  and  N_17 
REMARK    5  A    between atoms: N_17  and  C_18 
ROOT
HETATM    1  C   UNL     1      25.830  44.948  51.370  1.00  0.00     0.052 A 
HETATM    2  N   UNL     1      24.511  45.142  50.985  1.00  0.00    -0.228 NA
HETATM    3  C   UNL     1      24.440  46.122  50.121  1.00  0.00     0.174 A 
HETATM    4  S   UNL     1      25.915  46.873  49.705  1.00  0.00    -0.062 SA
HETATM    5  C   UNL     1      26.735  45.805  50.769  1.00  0.00     0.081 A 
ENDROOT
BRANCH   1   6
HETATM    6  C   UNL     1      26.124  43.895  52.382  1.00  0.00     0.163 C 
BRANCH   6   7
HETATM    7  C   UNL     1      26.612  44.461  53.706  1.00  0.00     0.227 C 
HETATM    8  N   UNL     1      27.982  44.667  53.755  1.00  0.00    -0.326 N 
HETATM    9  H   UNL     1      28.450  44.653  52.848  1.00  0.00     0.169 HD
HETATM   10  O   UNL     1      25.817  44.643  54.627  1.00  0.00    -0.273 OA
BRANCH   8  11
HETATM   11  C   UNL     1      28.777  44.958  54.894  1.00  0.00     0.042 A 
HETATM   12  C   UNL     1      29.889  44.135  55.199  1.00  0.00    -0.014 A 
HETATM   13  C   UNL     1      30.291  43.010  54.280  1.00  0.00     0.052 C 
HETATM   14  C   UNL     1      30.592  44.363  56.402  1.00  0.00     0.042 A 
HETATM   15 CL   UNL     1      31.912  43.364  56.911  1.00  0.00    -0.084 Cl
HETATM   16  C   UNL     1      30.237  45.410  57.255  1.00  0.00     0.024 A 
HETATM   17  C   UNL     1      29.173  46.239  56.930  1.00  0.00     0.004 A 
HETATM   18  C   UNL     1      28.447  46.010  55.761  1.00  0.00     0.030 A 
ENDBRANCH   8  11
ENDBRANCH   6   7
ENDBRANCH   1   6
BRANCH   3  19
HETATM   19  N   UNL     1      23.354  46.614  49.454  1.00  0.00    -0.287 N 
HETATM   20  C   UNL     1      23.019  47.952  49.492  1.00  0.00     0.326 C 
HETATM   21  N   UNL     1      21.745  48.154  48.979  1.00  0.00    -0.309 N 
HETATM   22  O   UNL     1      23.733  48.835  49.949  1.00  0.00    -0.247 OA
HETATM   23  H   UNL     1      21.312  47.369  48.517  1.00  0.00     0.170 HD
HETATM   24  H   UNL     1      22.798  45.949  48.948  1.00  0.00     0.172 HD
BRANCH  21  25
HETATM   25  C   UNL     1      20.968  49.331  49.050  1.00  0.00     0.036 A 
HETATM   26  C   UNL     1      21.235  50.493  48.319  1.00  0.00     0.032 A 
HETATM   27  C   UNL     1      20.446  51.635  48.489  1.00  0.00     0.044 A 
HETATM   28  C   UNL     1      19.389  51.614  49.387  1.00  0.00     0.116 A 
HETATM   29  F   UNL     1      18.639  52.711  49.555  1.00  0.00    -0.206 F 
HETATM   30  C   UNL     1      19.100  50.469  50.117  1.00  0.00     0.044 A 
HETATM   31  C   UNL     1      19.890  49.328  49.949  1.00  0.00     0.032 A 
ENDBRANCH  21  25
ENDBRANCH   3  19
TORSDOF 5
ENDMDL
MODEL 4
REMARK VINA RESULT:      -9.2      5.127     10.484
REMARK  5 active torsions:
REMARK  status: ('A' for Active; 'I' for Inactive)
REMARK    1  A    between atoms: C_8  and  N_9 
REMARK       I    between atoms: N_9  and  C_10 
REMARK    2  A    between atoms: C_10  and  C_11 
REMARK    3  A    between atoms: C_11  and  C_12 
REMARK    4  A    between atoms: C_14  and  N_15 
REMARK       I    between atoms: N_15  and  C_16 
REMARK       I    between atoms: C_16  and  N_17 
REMARK    5  A    between atoms: N_17  and  C_18 
ROOT
HETATM    1  C   UNL     1      25.879  46.586  52.095  1.00  0.00     0.052 A 
HETATM    2  N   UNL     1      24.748  47.235  51.621  1.00  0.00    -0.228 NA
HETATM    3  C   UNL     1      24.468  46.815  50.413  1.00  0.00     0.174 A 
HETATM    4  S   UNL     1      25.513  45.633  49.762  1.00  0.00    -0.062 SA
HETATM    5  C   UNL     1      26.430  45.674  51.212  1.00  0.00     0.081 A 
ENDROOT
BRANCH   1   6
HETATM    6  C   UNL     1      26.388  46.949  53.447  1.00  0.00     0.163 C 
BRANCH   6   7
HETATM    7  C   UNL     1      26.980  45.766  54.198  1.00  0.00     0.227 C 
HETATM    8  N   UNL     1      28.288  45.966  54.611  1.00  0.00    -0.326 N 
HETATM    9  H   UNL     1      28.602  46.937  54.587  1.00  0.00     0.169 HD
HETATM   10  O   UNL     1      26.322  44.737  54.340  1.00  0.00    -0.273 OA
BRANCH   8  11
HETATM   11  C   UNL     1      29.195  45.000  55.121  1.00  0.00     0.042 A 
HETATM   12  C   UNL     1      29.778  45.195  56.398  1.00  0.00    -0.014 A 
HETATM   13  C   UNL     1      29.377  46.365  57.258  1.00  0.00     0.052 C 
HETATM   14  C   UNL     1      30.771  44.291  56.834  1.00  0.00     0.042 A 
HETATM   15 CL   UNL     1      31.605  44.484  58.339  1.00  0.00    -0.084 Cl
HETATM   16  C   UNL     1      31.141  43.195  56.052  1.00  0.00     0.024 A 
HETATM   17  C   UNL     1      30.536  42.988  54.821  1.00  0.00     0.004 A 
HETATM   18  C   UNL     1      29.576  43.886  54.358  1.00  0.00     0.030 A 
ENDBRANCH   8  11
ENDBRANCH   6   7
ENDBRANCH   1   6
BRANCH   3  19
HETATM   19  N   UNL     1      23.424  47.149  49.598  1.00  0.00    -0.287 N 
HETATM   20  C   UNL     1      23.008  48.455  49.443  1.00  0.00     0.326 C 
HETATM   21  N   UNL     1      21.779  48.507  48.798  1.00  0.00    -0.309 N 
HETATM   22  O   UNL     1      23.622  49.433  49.850  1.00  0.00    -0.247 OA
HETATM   23  H   UNL     1      21.440  47.646  48.399  1.00  0.00     0.170 HD
HETATM   24  H   UNL     1      22.959  46.392  49.130  1.00  0.00     0.172 HD
BRANCH  21  25
HETATM   25  C   UNL     1      20.931  49.626  48.657  1.00  0.00     0.036 A 
HETATM   26  C   UNL     1      20.451  50.097  47.430  1.00  0.00     0.032 A 
HETATM   27  C   UNL     1      19.657  51.247  47.373  1.00  0.00     0.044 A 
HETATM   28  C   UNL     1      19.342  51.925  48.542  1.00  0.00     0.116 A 
HETATM   29  F   UNL     1      18.589  53.030  48.485  1.00  0.00    -0.206 F 
HETATM   30  C   UNL     1      19.800  51.472  49.771  1.00  0.00     0.044 A 
HETATM   31  C   UNL     1      20.596  50.323  49.828  1.00  0.00     0.032 A 
ENDBRANCH  21  25
ENDBRANCH   3  19
TORSDOF 5
ENDMDL
MODEL 5
REMARK VINA RESULT:      -9.0      4.320      9.084
REMARK  5 active torsions:
REMARK  status: ('A' for Active; 'I' for Inactive)
REMARK    1  A    between atoms: C_8  and  N_9 
REMARK       I    between atoms: N_9  and  C_10 
REMARK    2  A    between atoms: C_10  and  C_11 
REMARK    3  A    between atoms: C_11  and  C_12 
REMARK    4  A    between atoms: C_14  and  N_15 
REMARK       I    between atoms: N_15  and  C_16 
REMARK       I    between atoms: C_16  and  N_17 
REMARK    5  A    between atoms: N_17  and  C_18 
ROOT
HETATM    1  C   UNL     1      27.536  41.650  51.811  1.00  0.00     0.052 A 
HETATM    2  N   UNL     1      26.989  42.914  51.977  1.00  0.00    -0.228 NA
HETATM    3  C   UNL     1      25.885  43.015  51.281  1.00  0.00     0.174 A 
HETATM    4  S   UNL     1      25.422  41.635  50.392  1.00  0.00    -0.062 SA
HETATM    5  C   UNL     1      26.812  40.816  50.977  1.00  0.00     0.081 A 
ENDROOT
BRANCH   1   6
HETATM    6  C   UNL     1      28.822  41.341  52.497  1.00  0.00     0.163 C 
BRANCH   6   7
HETATM    7  C   UNL     1      29.460  42.561  53.145  1.00  0.00     0.227 C 
HETATM    8  N   UNL     1      28.904  42.896  54.370  1.00  0.00    -0.326 N 
HETATM    9  H   UNL     1      28.328  42.168  54.794  1.00  0.00     0.169 HD
HETATM   10  O   UNL     1      30.344  43.179  52.555  1.00  0.00    -0.273 OA
BRANCH   8  11
HETATM   11  C   UNL     1      29.101  44.087  55.116  1.00  0.00     0.042 A 
HETATM   12  C   UNL     1      30.101  44.126  56.119  1.00  0.00    -0.014 A 
HETATM   13  C   UNL     1      31.017  42.950  56.341  1.00  0.00     0.052 C 
HETATM   14  C   UNL     1      30.199  45.274  56.935  1.00  0.00     0.042 A 
HETATM   15 CL   UNL     1      31.328  45.391  58.243  1.00  0.00    -0.084 Cl
HETATM   16  C   UNL     1      29.364  46.375  56.732  1.00  0.00     0.024 A 
HETATM   17  C   UNL     1      28.415  46.346  55.720  1.00  0.00     0.004 A 
HETATM   18  C   UNL     1      28.282  45.210  54.924  1.00  0.00     0.030 A 
ENDBRANCH   8  11
ENDBRANCH   6   7
ENDBRANCH   1   6
BRANCH   3  19
HETATM   19  N   UNL     1      25.008  44.059  51.192  1.00  0.00    -0.287 N 
HETATM   20  C   UNL     1      25.032  44.944  50.134  1.00  0.00     0.326 C 
HETATM   21  N   UNL     1      24.245  46.056  50.405  1.00  0.00    -0.309 N 
HETATM   22  O   UNL     1      25.686  44.787  49.111  1.00  0.00    -0.247 OA
HETATM   23  H   UNL     1      23.658  46.007  51.223  1.00  0.00     0.170 HD
HETATM   24  H   UNL     1      24.354  44.163  51.947  1.00  0.00     0.172 HD
BRANCH  21  25
HETATM   25  C   UNL     1      24.191  47.266  49.680  1.00  0.00     0.036 A 
HETATM   26  C   UNL     1      25.276  48.133  49.519  1.00  0.00     0.032 A 
HETATM   27  C   UNL     1      25.123  49.341  48.829  1.00  0.00     0.044 A 
HETATM   28  C   UNL     1      23.886  49.678  48.298  1.00  0.00     0.116 A 
HETATM   29  F   UNL     1      23.739  50.837  47.644  1.00  0.00    -0.206 F 
HETATM   30  C   UNL     1      22.797  48.828  48.437  1.00  0.00     0.044 A 
HETATM   31  C   UNL     1      22.950  47.622  49.129  1.00  0.00     0.032 A 
ENDBRANCH  21  25
ENDBRANCH   3  19
TORSDOF 5
ENDMDL
MODEL 6
REMARK VINA RESULT:      -9.0      4.279      8.691
REMARK  5 active torsions:
REMARK  status: ('A' for Active; 'I' for Inactive)
REMARK    1  A    between atoms: C_8  and  N_9 
REMARK       I    between atoms: N_9  and  C_10 
REMARK    2  A    between atoms: C_10  and  C_11 
REMARK    3  A    between atoms: C_11  and  C_12 
REMARK    4  A    between atoms: C_14  and  N_15 
REMARK       I    between atoms: N_15  and  C_16 
REMARK       I    between atoms: C_16  and  N_17 
REMARK    5  A    between atoms: N_17  and  C_18 
ROOT
HETATM    1  C   UNL     1      24.860  43.442  48.905  1.00  0.00     0.052 A 
HETATM    2  N   UNL     1      24.179  44.533  49.425  1.00  0.00    -0.228 NA
HETATM    3  C   UNL     1      22.973  44.586  48.919  1.00  0.00     0.174 A 
HETATM    4  S   UNL     1      22.565  43.360  47.804  1.00  0.00    -0.062 SA
HETATM    5  C   UNL     1      24.132  42.688  48.002  1.00  0.00     0.081 A 
ENDROOT
BRANCH   1   6
HETATM    6  C   UNL     1      26.271  43.221  49.330  1.00  0.00     0.163 C 
BRANCH   6   7
HETATM    7  C   UNL     1      26.814  44.347  50.197  1.00  0.00     0.227 C 
HETATM    8  N   UNL     1      26.418  44.271  51.524  1.00  0.00    -0.326 N 
HETATM    9  H   UNL     1      26.032  43.368  51.805  1.00  0.00     0.169 HD
HETATM   10  O   UNL     1      27.491  45.241  49.692  1.00  0.00    -0.273 OA
BRANCH   8  11
HETATM   11  C   UNL     1      26.551  45.264  52.529  1.00  0.00     0.042 A 
HETATM   12  C   UNL     1      27.489  45.078  53.574  1.00  0.00    -0.014 A 
HETATM   13  C   UNL     1      28.409  43.884  53.581  1.00  0.00     0.052 C 
HETATM   14  C   UNL     1      27.520  46.013  54.631  1.00  0.00     0.042 A 
HETATM   15 CL   UNL     1      28.568  45.835  55.998  1.00  0.00    -0.084 Cl
HETATM   16  C   UNL     1      26.681  47.130  54.629  1.00  0.00     0.024 A 
HETATM   17  C   UNL     1      25.794  47.327  53.582  1.00  0.00     0.004 A 
HETATM   18  C   UNL     1      25.727  46.398  52.543  1.00  0.00     0.030 A 
ENDBRANCH   8  11
ENDBRANCH   6   7
ENDBRANCH   1   6
BRANCH   3  19
HETATM   19  N   UNL     1      21.957  45.461  49.185  1.00  0.00    -0.287 N 
HETATM   20  C   UNL     1      21.836  46.663  48.519  1.00  0.00     0.326 C 
HETATM   21  N   UNL     1      20.909  47.482  49.148  1.00  0.00    -0.309 N 
HETATM   22  O   UNL     1      22.483  46.976  47.528  1.00  0.00    -0.247 OA
HETATM   23  H   UNL     1      20.351  47.062  49.875  1.00  0.00     0.170 HD
HETATM   24  H   UNL     1      21.312  45.194  49.906  1.00  0.00     0.172 HD
BRANCH  21  25
HETATM   25  C   UNL     1      20.671  48.853  48.906  1.00  0.00     0.036 A 
HETATM   26  C   UNL     1      21.547  49.878  49.277  1.00  0.00     0.032 A 
HETATM   27  C   UNL     1      21.211  51.217  49.047  1.00  0.00     0.044 A 
HETATM   28  C   UNL     1      20.001  51.528  48.445  1.00  0.00     0.116 A 
HETATM   29  F   UNL     1      19.676  52.810  48.233  1.00  0.00    -0.206 F 
HETATM   30  C   UNL     1      19.120  50.527  48.060  1.00  0.00     0.044 A 
HETATM   31  C   UNL     1      19.455  49.189  48.291  1.00  0.00     0.032 A 
ENDBRANCH  21  25
ENDBRANCH   3  19
TORSDOF 5
ENDMDL
MODEL 7
REMARK VINA RESULT:      -8.8      4.767      9.930
REMARK  5 active torsions:
REMARK  status: ('A' for Active; 'I' for Inactive)
REMARK    1  A    between atoms: C_8  and  N_9 
REMARK       I    between atoms: N_9  and  C_10 
REMARK    2  A    between atoms: C_10  and  C_11 
REMARK    3  A    between atoms: C_11  and  C_12 
REMARK    4  A    between atoms: C_14  and  N_15 
REMARK       I    between atoms: N_15  and  C_16 
REMARK       I    between atoms: C_16  and  N_17 
REMARK    5  A    between atoms: N_17  and  C_18 
ROOT
HETATM    1  C   UNL     1      26.261  45.394  49.851  1.00  0.00     0.052 A 
HETATM    2  N   UNL     1      24.947  45.678  50.196  1.00  0.00    -0.228 NA
HETATM    3  C   UNL     1      24.730  46.964  50.096  1.00  0.00     0.174 A 
HETATM    4  S   UNL     1      26.052  47.918  49.592  1.00  0.00    -0.062 SA
HETATM    5  C   UNL     1      27.012  46.499  49.493  1.00  0.00     0.081 A 
ENDROOT
BRANCH   1   6
HETATM    6  C   UNL     1      26.723  43.979  49.932  1.00  0.00     0.163 C 
BRANCH   6   7
HETATM    7  C   UNL     1      27.074  43.548  51.348  1.00  0.00     0.227 C 
HETATM    8  N   UNL     1      28.094  44.292  51.922  1.00  0.00    -0.326 N 
HETATM    9  H   UNL     1      28.307  45.167  51.442  1.00  0.00     0.169 HD
HETATM   10  O   UNL     1      26.505  42.583  51.855  1.00  0.00    -0.273 OA
BRANCH   8  11
HETATM   11  C   UNL     1      28.808  44.011  53.115  1.00  0.00     0.042 A 
HETATM   12  C   UNL     1      28.607  44.824  54.258  1.00  0.00    -0.014 A 
HETATM   13  C   UNL     1      27.577  45.924  54.249  1.00  0.00     0.052 C 
HETATM   14  C   UNL     1      29.416  44.608  55.394  1.00  0.00     0.042 A 
HETATM   15 CL   UNL     1      29.310  45.598  56.811  1.00  0.00    -0.084 Cl
HETATM   16  C   UNL     1      30.364  43.583  55.419  1.00  0.00     0.024 A 
HETATM   17  C   UNL     1      30.528  42.764  54.311  1.00  0.00     0.004 A 
HETATM   18  C   UNL     1      29.759  42.981  53.168  1.00  0.00     0.030 A 
ENDBRANCH   8  11
ENDBRANCH   6   7
ENDBRANCH   1   6
BRANCH   3  19
HETATM   19  N   UNL     1      23.575  47.668  50.294  1.00  0.00    -0.287 N 
HETATM   20  C   UNL     1      22.692  47.924  49.265  1.00  0.00     0.326 C 
HETATM   21  N   UNL     1      21.755  48.875  49.647  1.00  0.00    -0.309 N 
HETATM   22  O   UNL     1      22.748  47.408  48.157  1.00  0.00    -0.247 OA
HETATM   23  H   UNL     1      21.736  49.126  50.624  1.00  0.00     0.170 HD
HETATM   24  H   UNL     1      23.410  48.008  51.223  1.00  0.00     0.172 HD
BRANCH  21  25
HETATM   25  C   UNL     1      20.838  49.556  48.819  1.00  0.00     0.036 A 
HETATM   26  C   UNL     1      20.107  48.949  47.793  1.00  0.00     0.032 A 
HETATM   27  C   UNL     1      19.257  49.708  46.981  1.00  0.00     0.044 A 
HETATM   28  C   UNL     1      19.136  51.072  47.198  1.00  0.00     0.116 A 
HETATM   29  F   UNL     1      18.328  51.800  46.416  1.00  0.00    -0.206 F 
HETATM   30  C   UNL     1      19.845  51.695  48.217  1.00  0.00     0.044 A 
HETATM   31  C   UNL     1      20.696  50.937  49.026  1.00  0.00     0.032 A 
ENDBRANCH  21  25
ENDBRANCH   3  19
TORSDOF 5
ENDMDL
MODEL 8
REMARK VINA RESULT:      -8.7      3.067      4.336
REMARK  5 active torsions:
REMARK  status: ('A' for Active; 'I' for Inactive)
REMARK    1  A    between atoms: C_8  and  N_9 
REMARK       I    between atoms: N_9  and  C_10 
REMARK    2  A    between atoms: C_10  and  C_11 
REMARK    3  A    between atoms: C_11  and  C_12 
REMARK    4  A    between atoms: C_14  and  N_15 
REMARK       I    between atoms: N_15  and  C_16 
REMARK       I    between atoms: C_16  and  N_17 
REMARK    5  A    between atoms: N_17  and  C_18 
ROOT
HETATM    1  C   UNL     1      26.335  40.810  50.043  1.00  0.00     0.052 A 
HETATM    2  N   UNL     1      27.008  41.663  50.905  1.00  0.00    -0.228 NA
HETATM    3  C   UNL     1      28.169  41.150  51.222  1.00  0.00     0.174 A 
HETATM    4  S   UNL     1      28.543  39.637  50.527  1.00  0.00    -0.062 SA
HETATM    5  C   UNL     1      27.024  39.653  49.727  1.00  0.00     0.081 A 
ENDROOT
BRANCH   1   6
HETATM    6  C   UNL     1      24.970  41.197  49.588  1.00  0.00     0.163 C 
BRANCH   6   7
HETATM    7  C   UNL     1      24.922  42.584  48.965  1.00  0.00     0.227 C 
HETATM    8  N   UNL     1      25.111  43.612  49.875  1.00  0.00    -0.326 N 
HETATM    9  H   UNL     1      25.497  43.322  50.775  1.00  0.00     0.169 HD
HETATM   10  O   UNL     1      24.676  42.711  47.766  1.00  0.00    -0.273 OA
BRANCH   8  11
HETATM   11  C   UNL     1      24.900  45.000  49.674  1.00  0.00     0.042 A 
HETATM   12  C   UNL     1      25.999  45.892  49.746  1.00  0.00    -0.014 A 
HETATM   13  C   UNL     1      27.401  45.374  49.942  1.00  0.00     0.052 C 
HETATM   14  C   UNL     1      25.752  47.280  49.669  1.00  0.00     0.042 A 
HETATM   15 CL   UNL     1      27.012  48.458  49.829  1.00  0.00    -0.084 Cl
HETATM   16  C   UNL     1      24.460  47.772  49.474  1.00  0.00     0.024 A 
HETATM   17  C   UNL     1      23.394  46.891  49.364  1.00  0.00     0.004 A 
HETATM   18  C   UNL     1      23.613  45.518  49.468  1.00  0.00     0.030 A 
ENDBRANCH   8  11
ENDBRANCH   6   7
ENDBRANCH   1   6
BRANCH   3  19
HETATM   19  N   UNL     1      29.165  41.669  52.001  1.00  0.00    -0.287 N 
HETATM   20  C   UNL     1      28.922  42.152  53.270  1.00  0.00     0.326 C 
HETATM   21  N   UNL     1      30.014  42.868  53.741  1.00  0.00    -0.309 N 
HETATM   22  O   UNL     1      27.873  42.000  53.883  1.00  0.00    -0.247 OA
HETATM   23  H   UNL     1      30.862  42.812  53.198  1.00  0.00     0.170 HD
HETATM   24  H   UNL     1      30.083  41.700  51.595  1.00  0.00     0.172 HD
BRANCH  21  25
HETATM   25  C   UNL     1      30.071  43.693  54.885  1.00  0.00     0.036 A 
HETATM   26  C   UNL     1      29.268  44.822  55.079  1.00  0.00     0.032 A 
HETATM   27  C   UNL     1      29.425  45.617  56.219  1.00  0.00     0.044 A 
HETATM   28  C   UNL     1      30.381  45.281  57.166  1.00  0.00     0.116 A 
HETATM   29  F   UNL     1      30.536  46.048  58.253  1.00  0.00    -0.206 F 
HETATM   30  C   UNL     1      31.183  44.160  56.999  1.00  0.00     0.044 A 
HETATM   31  C   UNL     1      31.028  43.367  55.858  1.00  0.00     0.032 A 
ENDBRANCH  21  25
ENDBRANCH   3  19
TORSDOF 5
ENDMDL
MODEL 9
REMARK VINA RESULT:      -8.7      2.433      3.107
REMARK  5 active torsions:
REMARK  status: ('A' for Active; 'I' for Inactive)
REMARK    1  A    between atoms: C_8  and  N_9 
REMARK       I    between atoms: N_9  and  C_10 
REMARK    2  A    between atoms: C_10  and  C_11 
REMARK    3  A    between atoms: C_11  and  C_12 
REMARK    4  A    between atoms: C_14  and  N_15 
REMARK       I    between atoms: N_15  and  C_16 
REMARK       I    between atoms: C_16  and  N_17 
REMARK    5  A    between atoms: N_17  and  C_18 
ROOT
HETATM    1  C   UNL     1      23.296  46.782  49.200  1.00  0.00     0.052 A 
HETATM    2  N   UNL     1      24.035  45.621  49.377  1.00  0.00    -0.228 NA
HETATM    3  C   UNL     1      25.251  45.921  49.753  1.00  0.00     0.174 A 
HETATM    4  S   UNL     1      25.603  47.582  49.924  1.00  0.00    -0.062 SA
HETATM    5  C   UNL     1      23.994  47.950  49.455  1.00  0.00     0.081 A 
ENDROOT
BRANCH   1   6
HETATM    6  C   UNL     1      21.885  46.660  48.737  1.00  0.00     0.163 C 
BRANCH   6   7
HETATM    7  C   UNL     1      21.219  48.006  48.497  1.00  0.00     0.227 C 
HETATM    8  N   UNL     1      20.457  48.450  49.567  1.00  0.00    -0.326 N 
HETATM    9  H   UNL     1      20.631  47.964  50.447  1.00  0.00     0.169 HD
HETATM   10  O   UNL     1      21.340  48.566  47.409  1.00  0.00    -0.273 OA
BRANCH   8  11
HETATM   11  C   UNL     1      19.536  49.529  49.588  1.00  0.00     0.042 A 
HETATM   12  C   UNL     1      18.211  49.326  49.130  1.00  0.00    -0.014 A 
HETATM   13  C   UNL     1      17.743  47.957  48.705  1.00  0.00     0.052 C 
HETATM   14  C   UNL     1      17.346  50.438  49.041  1.00  0.00     0.042 A 
HETATM   15 CL   UNL     1      15.736  50.315  48.415  1.00  0.00    -0.084 Cl
HETATM   16  C   UNL     1      17.763  51.708  49.443  1.00  0.00     0.024 A 
HETATM   17  C   UNL     1      19.049  51.893  49.930  1.00  0.00     0.004 A 
HETATM   18  C   UNL     1      19.929  50.812  49.997  1.00  0.00     0.030 A 
ENDBRANCH   8  11
ENDBRANCH   6   7
ENDBRANCH   1   6
BRANCH   3  19
HETATM   19  N   UNL     1      26.288  45.093  50.081  1.00  0.00    -0.287 N 
HETATM   20  C   UNL     1      26.573  44.763  51.390  1.00  0.00     0.326 C 
HETATM   21  N   UNL     1      27.815  44.150  51.482  1.00  0.00    -0.309 N 
HETATM   22  O   UNL     1      25.846  45.010  52.343  1.00  0.00    -0.247 OA
HETATM   23  H   UNL     1      28.257  43.888  50.615  1.00  0.00     0.170 HD
HETATM   24  H   UNL     1      26.847  44.751  49.320  1.00  0.00     0.172 HD
BRANCH  21  25
HETATM   25  C   UNL     1      28.549  43.871  52.656  1.00  0.00     0.036 A 
HETATM   26  C   UNL     1      28.340  44.510  53.882  1.00  0.00     0.032 A 
HETATM   27  C   UNL     1      29.148  44.213  54.985  1.00  0.00     0.044 A 
HETATM   28  C   UNL     1      30.162  43.274  54.861  1.00  0.00     0.116 A 
HETATM   29  F   UNL     1      30.940  42.996  55.915  1.00  0.00    -0.206 F 
HETATM   30  C   UNL     1      30.382  42.621  53.656  1.00  0.00     0.044 A 
HETATM   31  C   UNL     1      29.576  42.920  52.554  1.00  0.00     0.032 A 
ENDBRANCH  21  25
ENDBRANCH   3  19
TORSDOF 5
ENDMDL
MODEL 10
REMARK VINA RESULT:      -8.6      3.526      7.943
REMARK  5 active torsions:
REMARK  status: ('A' for Active; 'I' for Inactive)
REMARK    1  A    between atoms: C_8  and  N_9 
REMARK       I    between atoms: N_9  and  C_10 
REMARK    2  A    between atoms: C_10  and  C_11 
REMARK    3  A    between atoms: C_11  and  C_12 
REMARK    4  A    between atoms: C_14  and  N_15 
REMARK       I    between atoms: N_15  and  C_16 
REMARK       I    between atoms: C_16  and  N_17 
REMARK    5  A    between atoms: N_17  and  C_18 
ROOT
HETATM    1  C   UNL     1      28.052  40.969  51.508  1.00  0.00     0.052 A 
HETATM    2  N   UNL     1      27.040  41.913  51.403  1.00  0.00    -0.228 NA
HETATM    3  C   UNL     1      26.422  41.775  50.258  1.00  0.00     0.174 A 
HETATM    4  S   UNL     1      26.989  40.531  49.237  1.00  0.00    -0.062 SA
HETATM    5  C   UNL     1      28.169  40.129  50.416  1.00  0.00     0.081 A 
ENDROOT
BRANCH   1   6
HETATM    6  C   UNL     1      28.904  40.979  52.732  1.00  0.00     0.163 C 
BRANCH   6   7
HETATM    7  C   UNL     1      29.257  42.382  53.200  1.00  0.00     0.227 C 
HETATM    8  N   UNL     1      28.325  42.933  54.066  1.00  0.00    -0.326 N 
HETATM    9  H   UNL     1      27.667  42.265  54.470  1.00  0.00     0.169 HD
HETATM   10  O   UNL     1      30.263  42.940  52.766  1.00  0.00    -0.273 OA
BRANCH   8  11
HETATM   11  C   UNL     1      28.230  44.282  54.498  1.00  0.00     0.042 A 
HETATM   12  C   UNL     1      27.148  45.083  54.056  1.00  0.00    -0.014 A 
HETATM   13  C   UNL     1      26.049  44.495  53.208  1.00  0.00     0.052 C 
HETATM   14  C   UNL     1      27.138  46.453  54.393  1.00  0.00     0.042 A 
HETATM   15 CL   UNL     1      25.908  47.538  53.835  1.00  0.00    -0.084 Cl
HETATM   16  C   UNL     1      28.143  47.007  55.189  1.00  0.00     0.024 A 
HETATM   17  C   UNL     1      29.178  46.208  55.652  1.00  0.00     0.004 A 
HETATM   18  C   UNL     1      29.223  44.858  55.304  1.00  0.00     0.030 A 
ENDBRANCH   8  11
ENDBRANCH   6   7
ENDBRANCH   1   6
BRANCH   3  19
HETATM   19  N   UNL     1      25.345  42.457  49.765  1.00  0.00    -0.287 N 
HETATM   20  C   UNL     1      25.397  43.809  49.497  1.00  0.00     0.326 C 
HETATM   21  N   UNL     1      24.124  44.316  49.277  1.00  0.00    -0.309 N 
HETATM   22  O   UNL     1      26.423  44.477  49.490  1.00  0.00    -0.247 OA
HETATM   23  H   UNL     1      23.379  43.644  49.182  1.00  0.00     0.170 HD
HETATM   24  H   UNL     1      24.504  41.927  49.626  1.00  0.00     0.172 HD
BRANCH  21  25
HETATM   25  C   UNL     1      23.743  45.673  49.194  1.00  0.00     0.036 A 
HETATM   26  C   UNL     1      22.813  46.172  48.277  1.00  0.00     0.032 A 
HETATM   27  C   UNL     1      22.531  47.542  48.226  1.00  0.00     0.044 A 
HETATM   28  C   UNL     1      23.178  48.410  49.093  1.00  0.00     0.116 A 
HETATM   29  F   UNL     1      22.914  49.721  49.038  1.00  0.00    -0.206 F 
HETATM   30  C   UNL     1      24.098  47.936  50.017  1.00  0.00     0.044 A 
HETATM   31  C   UNL     1      24.382  46.567  50.067  1.00  0.00     0.032 A 
ENDBRANCH  21  25
ENDBRANCH   3  19
TORSDOF 5
ENDMDL
