MODEL 1
REMARK VINA RESULT:     -10.2      0.000      0.000
REMARK  8 active torsions:
REMARK  status: ('A' for Active; 'I' for Inactive)
REMARK    1  A    between atoms: C_2  and  S_3 
REMARK    2  A    between atoms: S_3  and  C_4 
REMARK    3  A    between atoms: C_7  and  C_8 
REMARK    4  A    between atoms: C_8  and  C_9 
REMARK       I    between atoms: C_9  and  N_10 
REMARK    5  A    between atoms: N_10  and  C_11 
REMARK    6  A    between atoms: N_17  and  C_19 
REMARK    7  A    between atoms: C_19  and  C_20 
REMARK    8  A    between atoms: C_27  and  C_28 
REMARK       I    between atoms: C_28  and  N_29 
ROOT
HETATM    1  C   UNL     1      25.632  46.736  51.268  1.00  0.00     0.093 A 
HETATM    2  S   UNL     1      25.704  47.144  52.919  1.00  0.00    -0.074 SA
HETATM    3  C   UNL     1      26.376  45.656  53.342  1.00  0.00     0.018 A 
HETATM    4  C   UNL     1      26.519  44.815  52.258  1.00  0.00    -0.023 A 
HETATM    5  C   UNL     1      27.135  43.447  52.410  1.00  0.00     0.068 C 
HETATM    6  C   UNL     1      27.276  43.029  53.888  1.00  0.00     0.240 C 
HETATM    7  N   UNL     1      27.743  44.176  54.781  1.00  0.00    -0.063 N 
HETATM    8  H   UNL     1      27.735  43.819  55.742  1.00  0.00     0.280 HD
HETATM    9  C   UNL     1      26.752  45.325  54.744  1.00  0.00     0.282 C 
HETATM   10  C   UNL     1      26.049  45.430  51.033  1.00  0.00     0.073 A 
ENDROOT
BRANCH   1  11
HETATM   11  N   UNL     1      25.258  47.681  50.321  1.00  0.00    -0.320 N 
HETATM   12  C   UNL     1      26.102  48.422  49.502  1.00  0.00     0.226 C 
HETATM   13  O   UNL     1      27.328  48.466  49.559  1.00  0.00    -0.273 OA
HETATM   14  H   UNL     1      24.260  47.845  50.219  1.00  0.00     0.169 HD
BRANCH  12  15
HETATM   15  C   UNL     1      25.343  49.233  48.463  1.00  0.00     0.141 C 
BRANCH  15  16
HETATM   16  C   UNL     1      23.879  49.402  48.787  1.00  0.00    -0.049 A 
HETATM   17  C   UNL     1      23.387  50.636  49.233  1.00  0.00     0.009 A 
HETATM   18  C   UNL     1      22.024  50.805  49.492  1.00  0.00     0.019 A 
HETATM   19  C   UNL     1      21.128  49.753  49.295  1.00  0.00     0.001 A 
HETATM   20  C   UNL     1      21.617  48.517  48.863  1.00  0.00     0.019 A 
HETATM   21  C   UNL     1      22.980  48.345  48.602  1.00  0.00     0.009 A 
BRANCH  19  22
HETATM   22  S   UNL     1      19.401  50.013  49.653  1.00  0.00    -0.126 SA
BRANCH  22  23
HETATM   23  C   UNL     1      18.839  50.915  48.152  1.00  0.00     0.044 C 
HETATM   24  C   UNL     1      19.587  50.434  46.911  1.00  0.00     0.021 C 
HETATM   25  C   UNL     1      19.080  52.407  48.374  1.00  0.00     0.021 C 
ENDBRANCH  22  23
ENDBRANCH  19  22
ENDBRANCH  15  16
ENDBRANCH  12  15
ENDBRANCH   1  11
BRANCH  10  26
HETATM   26  C   UNL     1      26.080  44.774  49.726  1.00  0.00     0.252 C 
HETATM   27  N   UNL     1      24.872  44.586  49.114  1.00  0.00    -0.366 N 
HETATM   28  H   UNL     1      24.027  44.529  49.672  1.00  0.00     0.159 HD
HETATM   29  H   UNL     1      24.897  43.984  48.298  1.00  0.00     0.159 HD
HETATM   30  O   UNL     1      27.116  44.360  49.221  1.00  0.00    -0.268 OA
ENDBRANCH  10  26
BRANCH   7  31
HETATM   31  C   UNL     1      29.165  44.629  54.531  1.00  0.00     0.273 C 
BRANCH  31  32
HETATM   32  C   UNL     1      30.006  44.591  55.778  1.00  0.00    -0.033 A 
HETATM   33  C   UNL     1      30.935  43.561  55.986  1.00  0.00     0.009 A 
HETATM   34  C   UNL     1      31.694  43.522  57.157  1.00  0.00     0.001 A 
HETATM   35  C   UNL     1      31.535  44.509  58.127  1.00  0.00     0.000 A 
HETATM   36  C   UNL     1      30.620  45.540  57.929  1.00  0.00     0.001 A 
HETATM   37  C   UNL     1      29.858  45.582  56.762  1.00  0.00     0.009 A 
ENDBRANCH  31  32
ENDBRANCH   7  31
TORSDOF 8
ENDMDL
MODEL 2
REMARK VINA RESULT:      -9.8      2.284     10.704
REMARK  8 active torsions:
REMARK  status: ('A' for Active; 'I' for Inactive)
REMARK    1  A    between atoms: C_2  and  S_3 
REMARK    2  A    between atoms: S_3  and  C_4 
REMARK    3  A    between atoms: C_7  and  C_8 
REMARK    4  A    between atoms: C_8  and  C_9 
REMARK       I    between atoms: C_9  and  N_10 
REMARK    5  A    between atoms: N_10  and  C_11 
REMARK    6  A    between atoms: N_17  and  C_19 
REMARK    7  A    between atoms: C_19  and  C_20 
REMARK    8  A    between atoms: C_27  and  C_28 
REMARK       I    between atoms: C_28  and  N_29 
ROOT
HETATM    1  C   UNL     1      25.005  46.169  50.036  1.00  0.00     0.093 A 
HETATM    2  S   UNL     1      25.484  47.801  49.952  1.00  0.00    -0.074 SA
HETATM    3  C   UNL     1      24.080  48.256  49.134  1.00  0.00     0.018 A 
HETATM    4  C   UNL     1      23.250  47.185  48.875  1.00  0.00    -0.023 A 
HETATM    5  C   UNL     1      21.924  47.378  48.184  1.00  0.00     0.068 C 
HETATM    6  C   UNL     1      21.783  48.785  47.569  1.00  0.00     0.240 C 
HETATM    7  N   UNL     1      22.332  49.882  48.478  1.00  0.00    -0.063 N 
HETATM    8  H   UNL     1      22.259  50.760  47.954  1.00  0.00     0.280 HD
HETATM    9  C   UNL     1      23.812  49.668  48.747  1.00  0.00     0.282 C 
HETATM   10  C   UNL     1      23.803  45.942  49.372  1.00  0.00     0.073 A 
ENDROOT
BRANCH   1  11
HETATM   11  N   UNL     1      25.748  45.249  50.764  1.00  0.00    -0.320 N 
HETATM   12  C   UNL     1      25.328  44.532  51.878  1.00  0.00     0.226 C 
HETATM   13  O   UNL     1      24.273  44.677  52.490  1.00  0.00    -0.273 OA
HETATM   14  H   UNL     1      26.699  45.087  50.447  1.00  0.00     0.169 HD
BRANCH  12  15
HETATM   15  C   UNL     1      26.342  43.487  52.317  1.00  0.00     0.141 C 
BRANCH  15  16
HETATM   16  C   UNL     1      27.368  44.018  53.288  1.00  0.00    -0.049 A 
HETATM   17  C   UNL     1      28.563  43.322  53.512  1.00  0.00     0.009 A 
HETATM   18  C   UNL     1      29.533  43.835  54.378  1.00  0.00     0.019 A 
HETATM   19  C   UNL     1      29.334  45.058  55.022  1.00  0.00     0.001 A 
HETATM   20  C   UNL     1      28.137  45.749  54.810  1.00  0.00     0.019 A 
HETATM   21  C   UNL     1      27.166  45.239  53.944  1.00  0.00     0.009 A 
BRANCH  19  22
HETATM   22  S   UNL     1      30.593  45.664  56.128  1.00  0.00    -0.126 SA
BRANCH  22  23
HETATM   23  C   UNL     1      30.612  44.360  57.425  1.00  0.00     0.044 C 
HETATM   24  C   UNL     1      30.676  44.974  58.820  1.00  0.00     0.021 C 
HETATM   25  C   UNL     1      31.826  43.464  57.181  1.00  0.00     0.021 C 
ENDBRANCH  22  23
ENDBRANCH  19  22
ENDBRANCH  15  16
ENDBRANCH  12  15
ENDBRANCH   1  11
BRANCH  10  26
HETATM   26  C   UNL     1      23.141  44.644  49.241  1.00  0.00     0.252 C 
HETATM   27  N   UNL     1      22.165  44.367  50.158  1.00  0.00    -0.366 N 
HETATM   28  H   UNL     1      22.182  44.821  51.064  1.00  0.00     0.159 HD
HETATM   29  H   UNL     1      21.840  43.406  50.156  1.00  0.00     0.159 HD
HETATM   30  O   UNL     1      23.469  43.819  48.398  1.00  0.00    -0.268 OA
ENDBRANCH  10  26
BRANCH   7  31
HETATM   31  C   UNL     1      21.539  50.103  49.747  1.00  0.00     0.273 C 
BRANCH  31  32
HETATM   32  C   UNL     1      20.235  50.808  49.493  1.00  0.00    -0.033 A 
HETATM   33  C   UNL     1      20.160  51.873  48.583  1.00  0.00     0.009 A 
HETATM   34  C   UNL     1      18.950  52.538  48.372  1.00  0.00     0.001 A 
HETATM   35  C   UNL     1      17.806  52.145  49.064  1.00  0.00     0.000 A 
HETATM   36  C   UNL     1      17.867  51.086  49.967  1.00  0.00     0.001 A 
HETATM   37  C   UNL     1      19.074  50.421  50.183  1.00  0.00     0.009 A 
ENDBRANCH  31  32
ENDBRANCH   7  31
TORSDOF 8
ENDMDL
MODEL 3
REMARK VINA RESULT:      -9.5      1.879      2.403
REMARK  8 active torsions:
REMARK  status: ('A' for Active; 'I' for Inactive)
REMARK    1  A    between atoms: C_2  and  S_3 
REMARK    2  A    between atoms: S_3  and  C_4 
REMARK    3  A    between atoms: C_7  and  C_8 
REMARK    4  A    between atoms: C_8  and  C_9 
REMARK       I    between atoms: C_9  and  N_10 
REMARK    5  A    between atoms: N_10  and  C_11 
REMARK    6  A    between atoms: N_17  and  C_19 
REMARK    7  A    between atoms: C_19  and  C_20 
REMARK    8  A    between atoms: C_27  and  C_28 
REMARK       I    between atoms: C_28  and  N_29 
ROOT
HETATM    1  C   UNL     1      25.056  44.326  50.472  1.00  0.00     0.093 A 
HETATM    2  S   UNL     1      24.891  44.907  52.064  1.00  0.00    -0.074 SA
HETATM    3  C   UNL     1      26.009  43.799  52.672  1.00  0.00     0.018 A 
HETATM    4  C   UNL     1      26.492  42.949  51.698  1.00  0.00    -0.023 A 
HETATM    5  C   UNL     1      27.530  41.905  52.021  1.00  0.00     0.068 C 
HETATM    6  C   UNL     1      27.723  41.722  53.541  1.00  0.00     0.240 C 
HETATM    7  N   UNL     1      27.718  43.048  54.297  1.00  0.00    -0.063 N 
HETATM    8  H   UNL     1      27.779  42.816  55.295  1.00  0.00     0.280 HD
HETATM    9  C   UNL     1      26.396  43.771  54.108  1.00  0.00     0.282 C 
HETATM   10  C   UNL     1      25.909  43.229  50.401  1.00  0.00     0.073 A 
ENDROOT
BRANCH   1  11
HETATM   11  N   UNL     1      24.434  44.975  49.413  1.00  0.00    -0.320 N 
HETATM   12  C   UNL     1      23.117  44.816  48.995  1.00  0.00     0.226 C 
HETATM   13  O   UNL     1      22.312  43.985  49.405  1.00  0.00    -0.273 OA
HETATM   14  H   UNL     1      25.004  45.634  48.891  1.00  0.00     0.169 HD
BRANCH  12  15
HETATM   15  C   UNL     1      22.723  45.813  47.915  1.00  0.00     0.141 C 
BRANCH  15  16
HETATM   16  C   UNL     1      22.122  47.083  48.464  1.00  0.00    -0.049 A 
HETATM   17  C   UNL     1      22.943  48.155  48.840  1.00  0.00     0.009 A 
HETATM   18  C   UNL     1      22.385  49.348  49.307  1.00  0.00     0.019 A 
HETATM   19  C   UNL     1      20.999  49.498  49.393  1.00  0.00     0.001 A 
HETATM   20  C   UNL     1      20.177  48.426  49.032  1.00  0.00     0.019 A 
HETATM   21  C   UNL     1      20.733  47.232  48.562  1.00  0.00     0.009 A 
BRANCH  19  22
HETATM   22  S   UNL     1      20.335  51.033  50.009  1.00  0.00    -0.126 SA
BRANCH  22  23
HETATM   23  C   UNL     1      18.843  51.247  48.954  1.00  0.00     0.044 C 
HETATM   24  C   UNL     1      19.070  52.322  47.895  1.00  0.00     0.021 C 
HETATM   25  C   UNL     1      17.672  51.627  49.858  1.00  0.00     0.021 C 
ENDBRANCH  22  23
ENDBRANCH  19  22
ENDBRANCH  15  16
ENDBRANCH  12  15
ENDBRANCH   1  11
BRANCH  10  26
HETATM   26  C   UNL     1      26.235  42.488  49.183  1.00  0.00     0.252 C 
HETATM   27  N   UNL     1      25.263  41.658  48.699  1.00  0.00    -0.366 N 
HETATM   28  H   UNL     1      24.562  41.283  49.328  1.00  0.00     0.159 HD
HETATM   29  H   UNL     1      25.566  41.033  47.960  1.00  0.00     0.159 HD
HETATM   30  O   UNL     1      27.334  42.556  48.646  1.00  0.00    -0.268 OA
ENDBRANCH  10  26
BRANCH   7  31
HETATM   31  C   UNL     1      28.909  43.938  54.017  1.00  0.00     0.273 C 
BRANCH  31  32
HETATM   32  C   UNL     1      29.775  44.137  55.232  1.00  0.00    -0.033 A 
HETATM   33  C   UNL     1      30.709  43.164  55.616  1.00  0.00     0.009 A 
HETATM   34  C   UNL     1      31.490  43.346  56.758  1.00  0.00     0.001 A 
HETATM   35  C   UNL     1      31.349  44.502  57.524  1.00  0.00     0.000 A 
HETATM   36  C   UNL     1      30.429  45.478  57.150  1.00  0.00     0.001 A 
HETATM   37  C   UNL     1      29.644  45.298  56.011  1.00  0.00     0.009 A 
ENDBRANCH  31  32
ENDBRANCH   7  31
TORSDOF 8
ENDMDL
MODEL 4
REMARK VINA RESULT:      -9.3      3.017      5.409
REMARK  8 active torsions:
REMARK  status: ('A' for Active; 'I' for Inactive)
REMARK    1  A    between atoms: C_2  and  S_3 
REMARK    2  A    between atoms: S_3  and  C_4 
REMARK    3  A    between atoms: C_7  and  C_8 
REMARK    4  A    between atoms: C_8  and  C_9 
REMARK       I    between atoms: C_9  and  N_10 
REMARK    5  A    between atoms: N_10  and  C_11 
REMARK    6  A    between atoms: N_17  and  C_19 
REMARK    7  A    between atoms: C_19  and  C_20 
REMARK    8  A    between atoms: C_27  and  C_28 
REMARK       I    between atoms: C_28  and  N_29 
ROOT
HETATM    1  C   UNL     1      22.695  48.085  48.356  1.00  0.00     0.093 A 
HETATM    2  S   UNL     1      22.487  46.427  48.686  1.00  0.00    -0.074 SA
HETATM    3  C   UNL     1      23.985  46.307  49.453  1.00  0.00     0.018 A 
HETATM    4  C   UNL     1      24.682  47.498  49.438  1.00  0.00    -0.023 A 
HETATM    5  C   UNL     1      26.029  47.619  50.102  1.00  0.00     0.068 C 
HETATM    6  C   UNL     1      26.617  46.246  50.491  1.00  0.00     0.240 C 
HETATM    7  N   UNL     1      25.567  45.301  51.070  1.00  0.00    -0.063 N 
HETATM    8  H   UNL     1      26.037  44.403  51.226  1.00  0.00     0.280 HD
HETATM    9  C   UNL     1      24.465  45.035  50.058  1.00  0.00     0.282 C 
HETATM   10  C   UNL     1      23.944  48.545  48.761  1.00  0.00     0.073 A 
ENDROOT
BRANCH   1  11
HETATM   11  N   UNL     1      21.661  48.834  47.811  1.00  0.00    -0.320 N 
HETATM   12  C   UNL     1      20.686  49.541  48.506  1.00  0.00     0.226 C 
HETATM   13  O   UNL     1      20.492  49.525  49.718  1.00  0.00    -0.273 OA
HETATM   14  H   UNL     1      21.614  48.866  46.797  1.00  0.00     0.169 HD
BRANCH  12  15
HETATM   15  C   UNL     1      19.816  50.389  47.590  1.00  0.00     0.141 C 
BRANCH  15  16
HETATM   16  C   UNL     1      18.607  50.969  48.282  1.00  0.00    -0.049 A 
HETATM   17  C   UNL     1      18.705  52.165  49.004  1.00  0.00     0.009 A 
HETATM   18  C   UNL     1      17.577  52.726  49.609  1.00  0.00     0.019 A 
HETATM   19  C   UNL     1      16.329  52.111  49.491  1.00  0.00     0.001 A 
HETATM   20  C   UNL     1      16.229  50.910  48.782  1.00  0.00     0.019 A 
HETATM   21  C   UNL     1      17.356  50.348  48.175  1.00  0.00     0.009 A 
BRANCH  19  22
HETATM   22  S   UNL     1      14.922  52.856  50.292  1.00  0.00    -0.126 SA
BRANCH  22  23
HETATM   23  C   UNL     1      15.218  54.645  49.982  1.00  0.00     0.044 C 
HETATM   24  C   UNL     1      15.022  55.463  51.256  1.00  0.00     0.021 C 
HETATM   25  C   UNL     1      14.247  55.108  48.897  1.00  0.00     0.021 C 
ENDBRANCH  22  23
ENDBRANCH  19  22
ENDBRANCH  15  16
ENDBRANCH  12  15
ENDBRANCH   1  11
BRANCH  10  26
HETATM   26  C   UNL     1      24.436  49.913  48.595  1.00  0.00     0.252 C 
HETATM   27  N   UNL     1      25.554  50.065  47.822  1.00  0.00    -0.366 N 
HETATM   28  H   UNL     1      26.204  49.294  47.719  1.00  0.00     0.159 HD
HETATM   29  H   UNL     1      25.974  50.988  47.858  1.00  0.00     0.159 HD
HETATM   30  O   UNL     1      23.919  50.871  49.154  1.00  0.00    -0.268 OA
ENDBRANCH  10  26
BRANCH   7  31
HETATM   31  C   UNL     1      25.025  45.713  52.421  1.00  0.00     0.273 C 
BRANCH  31  32
HETATM   32  C   UNL     1      26.119  46.023  53.407  1.00  0.00    -0.033 A 
HETATM   33  C   UNL     1      26.263  47.313  53.937  1.00  0.00     0.009 A 
HETATM   34  C   UNL     1      27.295  47.597  54.833  1.00  0.00     0.001 A 
HETATM   35  C   UNL     1      28.189  46.597  55.209  1.00  0.00     0.000 A 
HETATM   36  C   UNL     1      28.053  45.311  54.694  1.00  0.00     0.001 A 
HETATM   37  C   UNL     1      27.025  45.023  53.796  1.00  0.00     0.009 A 
ENDBRANCH  31  32
ENDBRANCH   7  31
TORSDOF 8
ENDMDL
MODEL 5
REMARK VINA RESULT:      -8.9      2.933      5.106
REMARK  8 active torsions:
REMARK  status: ('A' for Active; 'I' for Inactive)
REMARK    1  A    between atoms: C_2  and  S_3 
REMARK    2  A    between atoms: S_3  and  C_4 
REMARK    3  A    between atoms: C_7  and  C_8 
REMARK    4  A    between atoms: C_8  and  C_9 
REMARK       I    between atoms: C_9  and  N_10 
REMARK    5  A    between atoms: N_10  and  C_11 
REMARK    6  A    between atoms: N_17  and  C_19 
REMARK    7  A    between atoms: C_19  and  C_20 
REMARK    8  A    between atoms: C_27  and  C_28 
REMARK       I    between atoms: C_28  and  N_29 
ROOT
HETATM    1  C   UNL     1      22.133  46.406  48.485  1.00  0.00     0.093 A 
HETATM    2  S   UNL     1      22.730  44.851  48.840  1.00  0.00    -0.074 SA
HETATM    3  C   UNL     1      24.129  45.463  49.559  1.00  0.00     0.018 A 
HETATM    4  C   UNL     1      24.189  46.840  49.507  1.00  0.00    -0.023 A 
HETATM    5  C   UNL     1      25.340  47.592  50.125  1.00  0.00     0.068 C 
HETATM    6  C   UNL     1      26.509  46.662  50.510  1.00  0.00     0.240 C 
HETATM    7  N   UNL     1      26.036  45.352  51.134  1.00  0.00    -0.063 N 
HETATM    8  H   UNL     1      26.874  44.780  51.285  1.00  0.00     0.280 HD
HETATM    9  C   UNL     1      25.162  44.577  50.162  1.00  0.00     0.282 C 
HETATM   10  C   UNL     1      23.032  47.406  48.843  1.00  0.00     0.073 A 
ENDROOT
BRANCH   1  11
HETATM   11  N   UNL     1      20.856  46.572  47.966  1.00  0.00    -0.320 N 
HETATM   12  C   UNL     1      20.495  46.573  46.623  1.00  0.00     0.226 C 
HETATM   13  O   UNL     1      21.254  46.554  45.659  1.00  0.00    -0.273 OA
HETATM   14  H   UNL     1      20.109  46.708  48.641  1.00  0.00     0.169 HD
BRANCH  12  15
HETATM   15  C   UNL     1      18.987  46.606  46.424  1.00  0.00     0.141 C 
BRANCH  15  16
HETATM   16  C   UNL     1      18.364  47.931  46.788  1.00  0.00    -0.049 A 
HETATM   17  C   UNL     1      18.860  49.124  46.243  1.00  0.00     0.009 A 
HETATM   18  C   UNL     1      18.257  50.348  46.545  1.00  0.00     0.019 A 
HETATM   19  C   UNL     1      17.140  50.401  47.382  1.00  0.00     0.001 A 
HETATM   20  C   UNL     1      16.651  49.216  47.938  1.00  0.00     0.019 A 
HETATM   21  C   UNL     1      17.251  47.990  47.636  1.00  0.00     0.009 A 
BRANCH  19  22
HETATM   22  S   UNL     1      16.414  51.988  47.749  1.00  0.00    -0.126 SA
BRANCH  22  23
HETATM   23  C   UNL     1      16.682  52.112  49.565  1.00  0.00     0.044 C 
HETATM   24  C   UNL     1      15.964  53.328  50.143  1.00  0.00     0.021 C 
HETATM   25  C   UNL     1      18.185  52.209  49.818  1.00  0.00     0.021 C 
ENDBRANCH  22  23
ENDBRANCH  19  22
ENDBRANCH  15  16
ENDBRANCH  12  15
ENDBRANCH   1  11
BRANCH  10  26
HETATM   26  C   UNL     1      22.825  48.840  48.645  1.00  0.00     0.252 C 
HETATM   27  N   UNL     1      22.212  49.510  49.667  1.00  0.00    -0.366 N 
HETATM   28  H   UNL     1      21.603  49.010  50.304  1.00  0.00     0.159 HD
HETATM   29  H   UNL     1      21.926  50.458  49.444  1.00  0.00     0.159 HD
HETATM   30  O   UNL     1      23.128  49.412  47.606  1.00  0.00    -0.268 OA
ENDBRANCH  10  26
BRANCH   7  31
HETATM   31  C   UNL     1      25.397  45.498  52.497  1.00  0.00     0.273 C 
BRANCH  31  32
HETATM   32  C   UNL     1      26.368  45.990  53.536  1.00  0.00    -0.033 A 
HETATM   33  C   UNL     1      27.434  45.183  53.961  1.00  0.00     0.009 A 
HETATM   34  C   UNL     1      28.315  45.638  54.944  1.00  0.00     0.001 A 
HETATM   35  C   UNL     1      28.143  46.901  55.507  1.00  0.00     0.000 A 
HETATM   36  C   UNL     1      27.092  47.713  55.089  1.00  0.00     0.001 A 
HETATM   37  C   UNL     1      26.207  47.261  54.110  1.00  0.00     0.009 A 
ENDBRANCH  31  32
ENDBRANCH   7  31
TORSDOF 8
ENDMDL
MODEL 6
REMARK VINA RESULT:      -8.7      3.584     10.797
REMARK  8 active torsions:
REMARK  status: ('A' for Active; 'I' for Inactive)
REMARK    1  A    between atoms: C_2  and  S_3 
REMARK    2  A    between atoms: S_3  and  C_4 
REMARK    3  A    between atoms: C_7  and  C_8 
REMARK    4  A    between atoms: C_8  and  C_9 
REMARK       I    between atoms: C_9  and  N_10 
REMARK    5  A    between atoms: N_10  and  C_11 
REMARK    6  A    between atoms: N_17  and  C_19 
REMARK    7  A    between atoms: C_19  and  C_20 
REMARK    8  A    between atoms: C_27  and  C_28 
REMARK       I    between atoms: C_28  and  N_29 
ROOT
HETATM    1  C   UNL     1      24.734  46.350  49.887  1.00  0.00     0.093 A 
HETATM    2  S   UNL     1      25.280  47.962  49.888  1.00  0.00    -0.074 SA
HETATM    3  C   UNL     1      23.907  48.515  49.078  1.00  0.00     0.018 A 
HETATM    4  C   UNL     1      23.037  47.493  48.758  1.00  0.00    -0.023 A 
HETATM    5  C   UNL     1      21.729  47.773  48.064  1.00  0.00     0.068 C 
HETATM    6  C   UNL     1      21.654  49.214  47.516  1.00  0.00     0.240 C 
HETATM    7  N   UNL     1      22.235  50.241  48.484  1.00  0.00    -0.063 N 
HETATM    8  H   UNL     1      22.205  51.146  48.003  1.00  0.00     0.280 HD
HETATM    9  C   UNL     1      23.701  49.953  48.758  1.00  0.00     0.282 C 
HETATM   10  C   UNL     1      23.533  46.205  49.199  1.00  0.00     0.073 A 
ENDROOT
BRANCH   1  11
HETATM   11  N   UNL     1      25.430  45.366  50.577  1.00  0.00    -0.320 N 
HETATM   12  C   UNL     1      26.760  45.003  50.399  1.00  0.00     0.226 C 
HETATM   13  O   UNL     1      27.517  45.399  49.516  1.00  0.00    -0.273 OA
HETATM   14  H   UNL     1      24.908  44.860  51.287  1.00  0.00     0.169 HD
BRANCH  12  15
HETATM   15  C   UNL     1      27.240  44.009  51.445  1.00  0.00     0.141 C 
BRANCH  15  16
HETATM   16  C   UNL     1      27.323  42.593  50.932  1.00  0.00    -0.049 A 
HETATM   17  C   UNL     1      28.215  41.679  51.508  1.00  0.00     0.009 A 
HETATM   18  C   UNL     1      28.263  40.355  51.062  1.00  0.00     0.019 A 
HETATM   19  C   UNL     1      27.410  39.917  50.046  1.00  0.00     0.001 A 
HETATM   20  C   UNL     1      26.528  40.829  49.461  1.00  0.00     0.019 A 
HETATM   21  C   UNL     1      26.478  42.154  49.905  1.00  0.00     0.009 A 
BRANCH  19  22
HETATM   22  S   UNL     1      27.518  38.222  49.502  1.00  0.00    -0.126 SA
BRANCH  22  23
HETATM   23  C   UNL     1      28.869  38.314  48.257  1.00  0.00     0.044 C 
HETATM   24  C   UNL     1      28.651  37.301  47.137  1.00  0.00     0.021 C 
HETATM   25  C   UNL     1      30.193  38.045  48.970  1.00  0.00     0.021 C 
ENDBRANCH  22  23
ENDBRANCH  19  22
ENDBRANCH  15  16
ENDBRANCH  12  15
ENDBRANCH   1  11
BRANCH  10  26
HETATM   26  C   UNL     1      22.820  44.943  48.999  1.00  0.00     0.252 C 
HETATM   27  N   UNL     1      21.599  44.835  49.603  1.00  0.00    -0.366 N 
HETATM   28  H   UNL     1      21.393  45.389  50.426  1.00  0.00     0.159 HD
HETATM   29  H   UNL     1      21.201  43.902  49.594  1.00  0.00     0.159 HD
HETATM   30  O   UNL     1      23.301  44.008  48.373  1.00  0.00    -0.268 OA
ENDBRANCH  10  26
BRANCH   7  31
HETATM   31  C   UNL     1      21.436  50.433  49.754  1.00  0.00     0.273 C 
BRANCH  31  32
HETATM   32  C   UNL     1      20.088  51.049  49.496  1.00  0.00    -0.033 A 
HETATM   33  C   UNL     1      18.950  50.600  50.182  1.00  0.00     0.009 A 
HETATM   34  C   UNL     1      17.699  51.161  49.917  1.00  0.00     0.001 A 
HETATM   35  C   UNL     1      17.574  52.176  48.971  1.00  0.00     0.000 A 
HETATM   36  C   UNL     1      18.697  52.634  48.288  1.00  0.00     0.001 A 
HETATM   37  C   UNL     1      19.948  52.074  48.546  1.00  0.00     0.009 A 
ENDBRANCH  31  32
ENDBRANCH   7  31
TORSDOF 8
ENDMDL
MODEL 7
REMARK VINA RESULT:      -8.6      6.806      8.689
REMARK  8 active torsions:
REMARK  status: ('A' for Active; 'I' for Inactive)
REMARK    1  A    between atoms: C_2  and  S_3 
REMARK    2  A    between atoms: S_3  and  C_4 
REMARK    3  A    between atoms: C_7  and  C_8 
REMARK    4  A    between atoms: C_8  and  C_9 
REMARK       I    between atoms: C_9  and  N_10 
REMARK    5  A    between atoms: N_10  and  C_11 
REMARK    6  A    between atoms: N_17  and  C_19 
REMARK    7  A    between atoms: C_19  and  C_20 
REMARK    8  A    between atoms: C_27  and  C_28 
REMARK       I    between atoms: C_28  and  N_29 
ROOT
HETATM    1  C   UNL     1      28.235  40.037  48.951  1.00  0.00     0.093 A 
HETATM    2  S   UNL     1      27.381  41.495  49.157  1.00  0.00    -0.074 SA
HETATM    3  C   UNL     1      27.619  41.495  50.827  1.00  0.00     0.018 A 
HETATM    4  C   UNL     1      28.306  40.381  51.261  1.00  0.00    -0.023 A 
HETATM    5  C   UNL     1      28.657  40.201  52.716  1.00  0.00     0.068 C 
HETATM    6  C   UNL     1      27.916  41.202  53.626  1.00  0.00     0.240 C 
HETATM    7  N   UNL     1      27.854  42.605  53.027  1.00  0.00    -0.063 N 
HETATM    8  H   UNL     1      27.285  43.171  53.666  1.00  0.00     0.280 HD
HETATM    9  C   UNL     1      27.118  42.592  51.699  1.00  0.00     0.282 C 
HETATM   10  C   UNL     1      28.644  39.495  50.166  1.00  0.00     0.073 A 
ENDROOT
BRANCH   1  11
HETATM   11  N   UNL     1      28.511  39.551  47.680  1.00  0.00    -0.320 N 
HETATM   12  C   UNL     1      27.852  38.520  47.020  1.00  0.00     0.226 C 
HETATM   13  O   UNL     1      26.998  37.775  47.490  1.00  0.00    -0.273 OA
HETATM   14  H   UNL     1      29.276  39.998  47.183  1.00  0.00     0.169 HD
BRANCH  12  15
HETATM   15  C   UNL     1      28.304  38.370  45.574  1.00  0.00     0.141 C 
BRANCH  15  16
HETATM   16  C   UNL     1      27.973  39.567  44.717  1.00  0.00    -0.049 A 
HETATM   17  C   UNL     1      28.899  40.051  43.784  1.00  0.00     0.009 A 
HETATM   18  C   UNL     1      28.578  41.133  42.959  1.00  0.00     0.019 A 
HETATM   19  C   UNL     1      27.322  41.738  43.039  1.00  0.00     0.001 A 
HETATM   20  C   UNL     1      26.400  41.267  43.978  1.00  0.00     0.019 A 
HETATM   21  C   UNL     1      26.719  40.184  44.804  1.00  0.00     0.009 A 
BRANCH  19  22
HETATM   22  S   UNL     1      26.965  43.124  41.976  1.00  0.00    -0.126 SA
BRANCH  22  23
HETATM   23  C   UNL     1      27.095  42.359  40.308  1.00  0.00     0.044 C 
HETATM   24  C   UNL     1      28.300  42.905  39.547  1.00  0.00     0.021 C 
HETATM   25  C   UNL     1      25.804  42.656  39.546  1.00  0.00     0.021 C 
ENDBRANCH  22  23
ENDBRANCH  19  22
ENDBRANCH  15  16
ENDBRANCH  12  15
ENDBRANCH   1  11
BRANCH  10  26
HETATM   26  C   UNL     1      29.375  38.238  50.328  1.00  0.00     0.252 C 
HETATM   27  N   UNL     1      28.624  37.095  50.321  1.00  0.00    -0.366 N 
HETATM   28  H   UNL     1      27.647  37.133  50.589  1.00  0.00     0.159 HD
HETATM   29  H   UNL     1      29.122  36.257  50.602  1.00  0.00     0.159 HD
HETATM   30  O   UNL     1      30.584  38.199  50.514  1.00  0.00    -0.268 OA
ENDBRANCH  10  26
BRANCH   7  31
HETATM   31  C   UNL     1      29.189  43.312  52.942  1.00  0.00     0.273 C 
BRANCH  31  32
HETATM   32  C   UNL     1      29.628  43.869  54.270  1.00  0.00    -0.033 A 
HETATM   33  C   UNL     1      28.998  44.994  54.821  1.00  0.00     0.009 A 
HETATM   34  C   UNL     1      29.430  45.518  56.041  1.00  0.00     0.001 A 
HETATM   35  C   UNL     1      30.489  44.922  56.722  1.00  0.00     0.000 A 
HETATM   36  C   UNL     1      31.119  43.801  56.188  1.00  0.00     0.001 A 
HETATM   37  C   UNL     1      30.693  43.276  54.967  1.00  0.00     0.009 A 
ENDBRANCH  31  32
ENDBRANCH   7  31
TORSDOF 8
ENDMDL
MODEL 8
REMARK VINA RESULT:      -8.3      8.119     11.748
REMARK  8 active torsions:
REMARK  status: ('A' for Active; 'I' for Inactive)
REMARK    1  A    between atoms: C_2  and  S_3 
REMARK    2  A    between atoms: S_3  and  C_4 
REMARK    3  A    between atoms: C_7  and  C_8 
REMARK    4  A    between atoms: C_8  and  C_9 
REMARK       I    between atoms: C_9  and  N_10 
REMARK    5  A    between atoms: N_10  and  C_11 
REMARK    6  A    between atoms: N_17  and  C_19 
REMARK    7  A    between atoms: C_19  and  C_20 
REMARK    8  A    between atoms: C_27  and  C_28 
REMARK       I    between atoms: C_28  and  N_29 
ROOT
HETATM    1  C   UNL     1      28.270  39.788  48.723  1.00  0.00     0.093 A 
HETATM    2  S   UNL     1      27.334  41.196  48.931  1.00  0.00    -0.074 SA
HETATM    3  C   UNL     1      27.609  41.232  50.596  1.00  0.00     0.018 A 
HETATM    4  C   UNL     1      28.373  40.168  51.027  1.00  0.00    -0.023 A 
HETATM    5  C   UNL     1      28.768  40.029  52.475  1.00  0.00     0.068 C 
HETATM    6  C   UNL     1      27.988  40.996  53.390  1.00  0.00     0.240 C 
HETATM    7  N   UNL     1      27.827  42.384  52.776  1.00  0.00    -0.063 N 
HETATM    8  H   UNL     1      27.240  42.924  53.421  1.00  0.00     0.280 HD
HETATM    9  C   UNL     1      27.063  42.309  51.465  1.00  0.00     0.282 C 
HETATM   10  C   UNL     1      28.739  39.289  49.934  1.00  0.00     0.073 A 
ENDROOT
BRANCH   1  11
HETATM   11  N   UNL     1      28.545  39.303  47.452  1.00  0.00    -0.320 N 
HETATM   12  C   UNL     1      27.650  38.697  46.578  1.00  0.00     0.226 C 
HETATM   13  O   UNL     1      26.492  38.371  46.823  1.00  0.00    -0.273 OA
HETATM   14  H   UNL     1      29.504  39.402  47.130  1.00  0.00     0.169 HD
BRANCH  12  15
HETATM   15  C   UNL     1      28.253  38.448  45.204  1.00  0.00     0.141 C 
BRANCH  15  16
HETATM   16  C   UNL     1      28.882  37.083  45.065  1.00  0.00    -0.049 A 
HETATM   17  C   UNL     1      28.240  35.948  45.581  1.00  0.00     0.009 A 
HETATM   18  C   UNL     1      28.800  34.678  45.415  1.00  0.00     0.019 A 
HETATM   19  C   UNL     1      29.999  34.517  44.719  1.00  0.00     0.001 A 
HETATM   20  C   UNL     1      30.649  35.647  44.214  1.00  0.00     0.019 A 
HETATM   21  C   UNL     1      30.091  36.918  44.377  1.00  0.00     0.009 A 
BRANCH  19  22
HETATM   22  S   UNL     1      30.681  32.878  44.546  1.00  0.00    -0.126 SA
BRANCH  22  23
HETATM   23  C   UNL     1      32.433  33.244  44.122  1.00  0.00     0.044 C 
HETATM   24  C   UNL     1      32.917  32.357  42.978  1.00  0.00     0.021 C 
HETATM   25  C   UNL     1      33.282  33.014  45.371  1.00  0.00     0.021 C 
ENDBRANCH  22  23
ENDBRANCH  19  22
ENDBRANCH  15  16
ENDBRANCH  12  15
ENDBRANCH   1  11
BRANCH  10  26
HETATM   26  C   UNL     1      29.548  38.081  50.094  1.00  0.00     0.252 C 
HETATM   27  N   UNL     1      28.925  37.005  50.663  1.00  0.00    -0.366 N 
HETATM   28  H   UNL     1      28.131  37.149  51.277  1.00  0.00     0.159 HD
HETATM   29  H   UNL     1      29.542  36.242  50.919  1.00  0.00     0.159 HD
HETATM   30  O   UNL     1      30.734  38.038  49.792  1.00  0.00    -0.268 OA
ENDBRANCH  10  26
BRANCH   7  31
HETATM   31  C   UNL     1      29.114  43.170  52.651  1.00  0.00     0.273 C 
BRANCH  31  32
HETATM   32  C   UNL     1      29.544  43.779  53.958  1.00  0.00    -0.033 A 
HETATM   33  C   UNL     1      30.628  43.249  54.674  1.00  0.00     0.009 A 
HETATM   34  C   UNL     1      31.003  43.806  55.898  1.00  0.00     0.001 A 
HETATM   35  C   UNL     1      30.305  44.895  56.415  1.00  0.00     0.000 A 
HETATM   36  C   UNL     1      29.232  45.433  55.710  1.00  0.00     0.001 A 
HETATM   37  C   UNL     1      28.851  44.878  54.488  1.00  0.00     0.009 A 
ENDBRANCH  31  32
ENDBRANCH   7  31
TORSDOF 8
ENDMDL
MODEL 9
REMARK VINA RESULT:      -8.2      2.578     10.757
REMARK  8 active torsions:
REMARK  status: ('A' for Active; 'I' for Inactive)
REMARK    1  A    between atoms: C_2  and  S_3 
REMARK    2  A    between atoms: S_3  and  C_4 
REMARK    3  A    between atoms: C_7  and  C_8 
REMARK    4  A    between atoms: C_8  and  C_9 
REMARK       I    between atoms: C_9  and  N_10 
REMARK    5  A    between atoms: N_10  and  C_11 
REMARK    6  A    between atoms: N_17  and  C_19 
REMARK    7  A    between atoms: C_19  and  C_20 
REMARK    8  A    between atoms: C_27  and  C_28 
REMARK       I    between atoms: C_28  and  N_29 
ROOT
HETATM    1  C   UNL     1      24.296  46.363  49.547  1.00  0.00     0.093 A 
HETATM    2  S   UNL     1      24.210  48.055  49.712  1.00  0.00    -0.074 SA
HETATM    3  C   UNL     1      22.793  48.155  48.802  1.00  0.00     0.018 A 
HETATM    4  C   UNL     1      22.385  46.926  48.326  1.00  0.00    -0.023 A 
HETATM    5  C   UNL     1      21.119  46.785  47.519  1.00  0.00     0.068 C 
HETATM    6  C   UNL     1      20.560  48.149  47.063  1.00  0.00     0.240 C 
HETATM    7  N   UNL     1      20.653  49.215  48.152  1.00  0.00    -0.063 N 
HETATM    8  H   UNL     1      20.327  50.092  47.731  1.00  0.00     0.280 HD
HETATM    9  C   UNL     1      22.098  49.448  48.557  1.00  0.00     0.282 C 
HETATM   10  C   UNL     1      23.285  45.865  48.731  1.00  0.00     0.073 A 
ENDROOT
BRANCH   1  11
HETATM   11  N   UNL     1      25.252  45.631  50.240  1.00  0.00    -0.320 N 
HETATM   12  C   UNL     1      25.027  44.742  51.285  1.00  0.00     0.226 C 
HETATM   13  O   UNL     1      23.962  44.542  51.862  1.00  0.00    -0.273 OA
HETATM   14  H   UNL     1      26.217  45.763  49.950  1.00  0.00     0.169 HD
BRANCH  12  15
HETATM   15  C   UNL     1      26.284  43.988  51.690  1.00  0.00     0.141 C 
BRANCH  15  16
HETATM   16  C   UNL     1      26.896  44.491  52.974  1.00  0.00    -0.049 A 
HETATM   17  C   UNL     1      26.973  45.866  53.235  1.00  0.00     0.009 A 
HETATM   18  C   UNL     1      27.500  46.332  54.443  1.00  0.00     0.019 A 
HETATM   19  C   UNL     1      27.944  45.435  55.416  1.00  0.00     0.001 A 
HETATM   20  C   UNL     1      27.882  44.063  55.155  1.00  0.00     0.019 A 
HETATM   21  C   UNL     1      27.354  43.594  53.948  1.00  0.00     0.009 A 
BRANCH  19  22
HETATM   22  S   UNL     1      28.622  46.078  56.935  1.00  0.00    -0.126 SA
BRANCH  22  23
HETATM   23  C   UNL     1      30.392  45.599  56.788  1.00  0.00     0.044 C 
HETATM   24  C   UNL     1      30.561  44.407  55.849  1.00  0.00     0.021 C 
HETATM   25  C   UNL     1      30.910  45.256  58.183  1.00  0.00     0.021 C 
ENDBRANCH  22  23
ENDBRANCH  19  22
ENDBRANCH  15  16
ENDBRANCH  12  15
ENDBRANCH   1  11
BRANCH  10  26
HETATM   26  C   UNL     1      23.102  44.458  48.374  1.00  0.00     0.252 C 
HETATM   27  N   UNL     1      22.382  43.699  49.254  1.00  0.00    -0.366 N 
HETATM   28  H   UNL     1      22.334  43.968  50.230  1.00  0.00     0.159 HD
HETATM   29  H   UNL     1      22.410  42.701  49.077  1.00  0.00     0.159 HD
HETATM   30  O   UNL     1      23.605  43.961  47.375  1.00  0.00    -0.268 OA
ENDBRANCH  10  26
BRANCH   7  31
HETATM   31  C   UNL     1      19.748  48.979  49.342  1.00  0.00     0.273 C 
BRANCH  31  32
HETATM   32  C   UNL     1      18.298  48.886  48.951  1.00  0.00    -0.033 A 
HETATM   33  C   UNL     1      17.626  47.655  48.977  1.00  0.00     0.009 A 
HETATM   34  C   UNL     1      16.287  47.574  48.589  1.00  0.00     0.001 A 
HETATM   35  C   UNL     1      15.608  48.719  48.175  1.00  0.00     0.000 A 
HETATM   36  C   UNL     1      16.264  49.947  48.151  1.00  0.00     0.001 A 
HETATM   37  C   UNL     1      17.602  50.032  48.535  1.00  0.00     0.009 A 
ENDBRANCH  31  32
ENDBRANCH   7  31
TORSDOF 8
ENDMDL
MODEL 10
REMARK VINA RESULT:      -8.1      3.753      5.885
REMARK  8 active torsions:
REMARK  status: ('A' for Active; 'I' for Inactive)
REMARK    1  A    between atoms: C_2  and  S_3 
REMARK    2  A    between atoms: S_3  and  C_4 
REMARK    3  A    between atoms: C_7  and  C_8 
REMARK    4  A    between atoms: C_8  and  C_9 
REMARK       I    between atoms: C_9  and  N_10 
REMARK    5  A    between atoms: N_10  and  C_11 
REMARK    6  A    between atoms: N_17  and  C_19 
REMARK    7  A    between atoms: C_19  and  C_20 
REMARK    8  A    between atoms: C_27  and  C_28 
REMARK       I    between atoms: C_28  and  N_29 
ROOT
HETATM    1  C   UNL     1      22.268  48.049  48.292  1.00  0.00     0.093 A 
HETATM    2  S   UNL     1      22.230  46.406  48.739  1.00  0.00    -0.074 SA
HETATM    3  C   UNL     1      23.799  46.453  49.359  1.00  0.00     0.018 A 
HETATM    4  C   UNL     1      24.390  47.690  49.204  1.00  0.00    -0.023 A 
HETATM    5  C   UNL     1      25.779  47.959  49.723  1.00  0.00     0.068 C 
HETATM    6  C   UNL     1      26.512  46.664  50.133  1.00  0.00     0.240 C 
HETATM    7  N   UNL     1      25.603  45.683  50.868  1.00  0.00    -0.063 N 
HETATM    8  H   UNL     1      26.159  44.836  51.030  1.00  0.00     0.280 HD
HETATM    9  C   UNL     1      24.438  45.265  49.989  1.00  0.00     0.282 C 
HETATM   10  C   UNL     1      23.508  48.630  48.542  1.00  0.00     0.073 A 
ENDROOT
BRANCH   1  11
HETATM   11  N   UNL     1      21.129  48.677  47.808  1.00  0.00    -0.320 N 
HETATM   12  C   UNL     1      20.121  49.271  48.559  1.00  0.00     0.226 C 
HETATM   13  O   UNL     1      19.995  49.233  49.780  1.00  0.00    -0.273 OA
HETATM   14  H   UNL     1      21.024  48.704  46.798  1.00  0.00     0.169 HD
BRANCH  12  15
HETATM   15  C   UNL     1      19.113  50.017  47.698  1.00  0.00     0.141 C 
BRANCH  15  16
HETATM   16  C   UNL     1      18.300  49.110  46.806  1.00  0.00    -0.049 A 
HETATM   17  C   UNL     1      18.434  49.177  45.413  1.00  0.00     0.009 A 
HETATM   18  C   UNL     1      17.714  48.308  44.588  1.00  0.00     0.019 A 
HETATM   19  C   UNL     1      16.862  47.348  45.139  1.00  0.00     0.001 A 
HETATM   20  C   UNL     1      16.717  47.287  46.528  1.00  0.00     0.019 A 
HETATM   21  C   UNL     1      17.436  48.154  47.355  1.00  0.00     0.009 A 
BRANCH  19  22
HETATM   22  S   UNL     1      15.955  46.272  44.044  1.00  0.00    -0.126 SA
BRANCH  22  23
HETATM   23  C   UNL     1      14.228  46.857  44.291  1.00  0.00     0.044 C 
HETATM   24  C   UNL     1      13.226  45.875  43.691  1.00  0.00     0.021 C 
HETATM   25  C   UNL     1      14.091  48.228  43.633  1.00  0.00     0.021 C 
ENDBRANCH  22  23
ENDBRANCH  19  22
ENDBRANCH  15  16
ENDBRANCH  12  15
ENDBRANCH   1  11
BRANCH  10  26
HETATM   26  C   UNL     1      23.866  50.017  48.247  1.00  0.00     0.252 C 
HETATM   27  N   UNL     1      23.319  50.970  49.060  1.00  0.00    -0.366 N 
HETATM   28  H   UNL     1      22.449  50.781  49.544  1.00  0.00     0.159 HD
HETATM   29  H   UNL     1      23.441  51.925  48.739  1.00  0.00     0.159 HD
HETATM   30  O   UNL     1      24.572  50.326  47.296  1.00  0.00    -0.268 OA
ENDBRANCH  10  26
BRANCH   7  31
HETATM   31  C   UNL     1      25.159  46.142  52.239  1.00  0.00     0.273 C 
BRANCH  31  32
HETATM   32  C   UNL     1      26.297  46.201  53.222  1.00  0.00    -0.033 A 
HETATM   33  C   UNL     1      27.098  45.075  53.462  1.00  0.00     0.009 A 
HETATM   34  C   UNL     1      28.136  45.133  54.393  1.00  0.00     0.001 A 
HETATM   35  C   UNL     1      28.387  46.313  55.089  1.00  0.00     0.000 A 
HETATM   36  C   UNL     1      27.602  47.440  54.855  1.00  0.00     0.001 A 
HETATM   37  C   UNL     1      26.562  47.386  53.928  1.00  0.00     0.009 A 
ENDBRANCH  31  32
ENDBRANCH   7  31
TORSDOF 8
ENDMDL
