MODEL 1
REMARK VINA RESULT:      -8.6      0.000      0.000
REMARK  4 active torsions:
REMARK  status: ('A' for Active; 'I' for Inactive)
REMARK    1  A    between atoms: C_5  and  C_6 
REMARK    2  A    between atoms: C_6  and  N_7 
REMARK    3  A    between atoms: C_6  and  C_18 
REMARK    4  A    between atoms: N_7  and  C_8 
ROOT
HETATM    1  C   UNL     1      26.033  46.244  51.277  1.00  0.00     0.288 C 
ENDROOT
BRANCH   1   2
HETATM    2  C   UNL     1      25.426  44.950  50.760  1.00  0.00    -0.003 A 
HETATM    3  C   UNL     1      24.284  44.369  51.305  1.00  0.00     0.126 A 
HETATM    4  N   UNL     1      23.733  43.211  50.878  1.00  0.00    -0.272 NA
HETATM    5  C   UNL     1      24.313  42.615  49.816  1.00  0.00     0.116 A 
HETATM    6  C   UNL     1      25.432  43.116  49.176  1.00  0.00     0.020 A 
HETATM    7  C   UNL     1      25.994  44.297  49.657  1.00  0.00     0.012 A 
ENDBRANCH   1   2
BRANCH   1   8
HETATM    8  N   UNL     1      25.578  46.670  52.616  1.00  0.00     0.101 N 
HETATM    9  H   UNL     1      24.581  46.471  52.697  1.00  0.00     0.317 HD
BRANCH   8  10
HETATM   10  C   UNL     1      26.336  46.182  53.770  1.00  0.00     0.225 C 
HETATM   11  C   UNL     1      27.370  45.103  53.385  1.00  0.00     0.069 C 
HETATM   12  C   UNL     1      28.211  44.745  54.598  1.00  0.00     0.190 C 
HETATM   13  N   UNL     1      28.898  45.988  55.092  1.00  0.00    -0.067 N 
HETATM   14  C   UNL     1      29.392  43.824  54.372  1.00  0.00     0.035 C 
HETATM   15  H   UNL     1      29.408  46.406  54.299  1.00  0.00     0.280 HD
HETATM   16  C   UNL     1      27.932  47.013  55.587  1.00  0.00     0.237 C 
HETATM   17  C   UNL     1      29.949  45.509  56.059  1.00  0.00     0.235 C 
HETATM   18  C   UNL     1      27.025  47.402  54.424  1.00  0.00     0.063 C 
HETATM   19  C   UNL     1      30.267  44.086  55.597  1.00  0.00     0.030 C 
ENDBRANCH   8  10
ENDBRANCH   1   8
BRANCH   1  20
HETATM   20  C   UNL     1      25.883  47.420  50.309  1.00  0.00    -0.021 A 
HETATM   21  C   UNL     1      24.594  47.821  49.908  1.00  0.00     0.012 A 
HETATM   22  C   UNL     1      24.420  48.873  49.005  1.00  0.00     0.043 A 
HETATM   23  C   UNL     1      25.531  49.524  48.490  1.00  0.00     0.116 A 
HETATM   24  F   UNL     1      25.364  50.530  47.623  1.00  0.00    -0.206 F 
HETATM   25  C   UNL     1      26.815  49.142  48.856  1.00  0.00     0.043 A 
HETATM   26  C   UNL     1      26.993  48.090  49.758  1.00  0.00     0.012 A 
ENDBRANCH   1  20
TORSDOF 4
ENDMDL
MODEL 2
REMARK VINA RESULT:      -8.4      3.315      5.403
REMARK  4 active torsions:
REMARK  status: ('A' for Active; 'I' for Inactive)
REMARK    1  A    between atoms: C_5  and  C_6 
REMARK    2  A    between atoms: C_6  and  N_7 
REMARK    3  A    between atoms: C_6  and  C_18 
REMARK    4  A    between atoms: N_7  and  C_8 
ROOT
HETATM    1  C   UNL     1      27.208  43.622  52.167  1.00  0.00     0.288 C 
ENDROOT
BRANCH   1   2
HETATM    2  C   UNL     1      26.700  44.817  51.378  1.00  0.00    -0.003 A 
HETATM    3  C   UNL     1      27.168  45.151  50.109  1.00  0.00     0.126 A 
HETATM    4  N   UNL     1      26.746  46.216  49.391  1.00  0.00    -0.272 NA
HETATM    5  C   UNL     1      25.768  46.969  49.934  1.00  0.00     0.116 A 
HETATM    6  C   UNL     1      25.207  46.715  51.174  1.00  0.00     0.020 A 
HETATM    7  C   UNL     1      25.681  45.626  51.902  1.00  0.00     0.012 A 
ENDBRANCH   1   2
BRANCH   1   8
HETATM    8  N   UNL     1      28.581  43.746  52.696  1.00  0.00     0.101 N 
HETATM    9  H   UNL     1      29.057  44.491  52.187  1.00  0.00     0.317 HD
BRANCH   8  10
HETATM   10  C   UNL     1      28.734  43.883  54.146  1.00  0.00     0.225 C 
HETATM   11  C   UNL     1      30.127  43.438  54.639  1.00  0.00     0.069 C 
HETATM   12  C   UNL     1      30.265  43.737  56.121  1.00  0.00     0.190 C 
HETATM   13  N   UNL     1      30.072  45.212  56.335  1.00  0.00    -0.067 N 
HETATM   14  C   UNL     1      31.628  43.523  56.745  1.00  0.00     0.035 C 
HETATM   15  H   UNL     1      30.726  45.712  55.713  1.00  0.00     0.280 HD
HETATM   16  C   UNL     1      28.693  45.663  55.982  1.00  0.00     0.237 C 
HETATM   17  C   UNL     1      30.545  45.480  57.741  1.00  0.00     0.235 C 
HETATM   18  C   UNL     1      28.467  45.364  54.503  1.00  0.00     0.063 C 
HETATM   19  C   UNL     1      31.556  44.367  58.017  1.00  0.00     0.030 C 
ENDBRANCH   8  10
ENDBRANCH   1   8
BRANCH   1  20
HETATM   20  C   UNL     1      27.088  42.295  51.415  1.00  0.00    -0.021 A 
HETATM   21  C   UNL     1      28.219  41.463  51.303  1.00  0.00     0.012 A 
HETATM   22  C   UNL     1      28.154  40.257  50.602  1.00  0.00     0.043 A 
HETATM   23  C   UNL     1      26.964  39.878  50.000  1.00  0.00     0.116 A 
HETATM   24  F   UNL     1      26.902  38.724  49.325  1.00  0.00    -0.206 F 
HETATM   25  C   UNL     1      25.835  40.684  50.082  1.00  0.00     0.043 A 
HETATM   26  C   UNL     1      25.897  41.891  50.782  1.00  0.00     0.012 A 
ENDBRANCH   1  20
TORSDOF 4
ENDMDL
MODEL 3
REMARK VINA RESULT:      -8.1      2.215      3.371
REMARK  4 active torsions:
REMARK  status: ('A' for Active; 'I' for Inactive)
REMARK    1  A    between atoms: C_5  and  C_6 
REMARK    2  A    between atoms: C_6  and  N_7 
REMARK    3  A    between atoms: C_6  and  C_18 
REMARK    4  A    between atoms: N_7  and  C_8 
ROOT
HETATM    1  C   UNL     1      27.598  43.862  51.880  1.00  0.00     0.288 C 
ENDROOT
BRANCH   1   2
HETATM    2  C   UNL     1      27.211  42.548  51.222  1.00  0.00    -0.003 A 
HETATM    3  C   UNL     1      28.085  41.472  51.088  1.00  0.00     0.126 A 
HETATM    4  N   UNL     1      27.774  40.299  50.493  1.00  0.00    -0.272 NA
HETATM    5  C   UNL     1      26.509  40.158  50.046  1.00  0.00     0.116 A 
HETATM    6  C   UNL     1      25.547  41.148  50.152  1.00  0.00     0.020 A 
HETATM    7  C   UNL     1      25.906  42.356  50.746  1.00  0.00     0.012 A 
ENDBRANCH   1   2
BRANCH   1   8
HETATM    8  N   UNL     1      27.499  43.889  53.354  1.00  0.00     0.101 N 
HETATM    9  H   UNL     1      27.152  42.983  53.671  1.00  0.00     0.317 HD
BRANCH   8  10
HETATM   10  C   UNL     1      28.684  44.318  54.099  1.00  0.00     0.225 C 
HETATM   11  C   UNL     1      28.326  45.128  55.363  1.00  0.00     0.069 C 
HETATM   12  C   UNL     1      29.586  45.418  56.159  1.00  0.00     0.190 C 
HETATM   13  N   UNL     1      30.233  44.113  56.531  1.00  0.00    -0.067 N 
HETATM   14  C   UNL     1      29.412  46.060  57.520  1.00  0.00     0.035 C 
HETATM   15  H   UNL     1      29.525  43.531  57.005  1.00  0.00     0.280 HD
HETATM   16  C   UNL     1      30.703  43.350  55.336  1.00  0.00     0.237 C 
HETATM   17  C   UNL     1      31.262  44.456  57.577  1.00  0.00     0.235 C 
HETATM   18  C   UNL     1      29.487  43.048  54.465  1.00  0.00     0.063 C 
HETATM   19  C   UNL     1      30.732  45.739  58.219  1.00  0.00     0.030 C 
ENDBRANCH   8  10
ENDBRANCH   1   8
BRANCH   1  20
HETATM   20  C   UNL     1      26.854  45.073  51.315  1.00  0.00    -0.021 A 
HETATM   21  C   UNL     1      27.179  45.540  50.026  1.00  0.00     0.012 A 
HETATM   22  C   UNL     1      26.540  46.659  49.487  1.00  0.00     0.043 A 
HETATM   23  C   UNL     1      25.581  47.325  50.235  1.00  0.00     0.116 A 
HETATM   24  F   UNL     1      24.970  48.399  49.720  1.00  0.00    -0.206 F 
HETATM   25  C   UNL     1      25.249  46.897  51.513  1.00  0.00     0.043 A 
HETATM   26  C   UNL     1      25.886  45.778  52.056  1.00  0.00     0.012 A 
ENDBRANCH   1  20
TORSDOF 4
ENDMDL
MODEL 4
REMARK VINA RESULT:      -8.1      4.287      7.472
REMARK  4 active torsions:
REMARK  status: ('A' for Active; 'I' for Inactive)
REMARK    1  A    between atoms: C_5  and  C_6 
REMARK    2  A    between atoms: C_6  and  N_7 
REMARK    3  A    between atoms: C_6  and  C_18 
REMARK    4  A    between atoms: N_7  and  C_8 
ROOT
HETATM    1  C   UNL     1      28.608  43.399  53.095  1.00  0.00     0.288 C 
ENDROOT
BRANCH   1   2
HETATM    2  C   UNL     1      27.258  44.076  52.928  1.00  0.00    -0.003 A 
HETATM    3  C   UNL     1      26.196  43.894  53.810  1.00  0.00     0.126 A 
HETATM    4  N   UNL     1      24.980  44.470  53.678  1.00  0.00    -0.272 NA
HETATM    5  C   UNL     1      24.816  45.316  52.641  1.00  0.00     0.116 A 
HETATM    6  C   UNL     1      25.809  45.596  51.719  1.00  0.00     0.020 A 
HETATM    7  C   UNL     1      27.043  44.967  51.866  1.00  0.00     0.012 A 
ENDBRANCH   1   2
BRANCH   1   8
HETATM    8  N   UNL     1      28.593  41.924  53.030  1.00  0.00     0.101 N 
HETATM    9  H   UNL     1      27.958  41.576  53.748  1.00  0.00     0.317 HD
BRANCH   8  10
HETATM   10  C   UNL     1      28.340  41.311  51.724  1.00  0.00     0.225 C 
HETATM   11  C   UNL     1      29.097  39.979  51.539  1.00  0.00     0.069 C 
HETATM   12  C   UNL     1      28.682  39.332  50.230  1.00  0.00     0.190 C 
HETATM   13  N   UNL     1      27.197  39.100  50.257  1.00  0.00    -0.067 N 
HETATM   14  C   UNL     1      29.196  37.934  49.957  1.00  0.00     0.035 C 
HETATM   15  H   UNL     1      26.974  38.568  51.112  1.00  0.00     0.280 HD
HETATM   16  C   UNL     1      26.422  40.375  50.315  1.00  0.00     0.237 C 
HETATM   17  C   UNL     1      26.913  38.174  49.103  1.00  0.00     0.235 C 
HETATM   18  C   UNL     1      26.813  41.102  51.598  1.00  0.00     0.063 C 
HETATM   19  C   UNL     1      28.226  37.417  48.896  1.00  0.00     0.030 C 
ENDBRANCH   8  10
ENDBRANCH   1   8
BRANCH   1  20
HETATM   20  C   UNL     1      29.357  43.828  54.359  1.00  0.00    -0.021 A 
HETATM   21  C   UNL     1      30.315  42.961  54.919  1.00  0.00     0.012 A 
HETATM   22  C   UNL     1      30.999  43.308  56.087  1.00  0.00     0.043 A 
HETATM   23  C   UNL     1      30.724  44.516  56.708  1.00  0.00     0.116 A 
HETATM   24  F   UNL     1      31.377  44.847  57.829  1.00  0.00    -0.206 F 
HETATM   25  C   UNL     1      29.775  45.386  56.187  1.00  0.00     0.043 A 
HETATM   26  C   UNL     1      29.088  45.043  55.020  1.00  0.00     0.012 A 
ENDBRANCH   1  20
TORSDOF 4
ENDMDL
MODEL 5
REMARK VINA RESULT:      -8.0     11.498     12.755
REMARK  4 active torsions:
REMARK  status: ('A' for Active; 'I' for Inactive)
REMARK    1  A    between atoms: C_5  and  C_6 
REMARK    2  A    between atoms: C_6  and  N_7 
REMARK    3  A    between atoms: C_6  and  C_18 
REMARK    4  A    between atoms: N_7  and  C_8 
ROOT
HETATM    1  C   UNL     1      30.513  49.366  40.768  1.00  0.00     0.288 C 
ENDROOT
BRANCH   1   2
HETATM    2  C   UNL     1      29.775  48.064  40.506  1.00  0.00    -0.003 A 
HETATM    3  C   UNL     1      30.349  46.977  39.851  1.00  0.00     0.126 A 
HETATM    4  N   UNL     1      29.712  45.814  39.590  1.00  0.00    -0.272 NA
HETATM    5  C   UNL     1      28.448  45.695  40.045  1.00  0.00     0.116 A 
HETATM    6  C   UNL     1      27.787  46.697  40.734  1.00  0.00     0.020 A 
HETATM    7  C   UNL     1      28.460  47.894  40.965  1.00  0.00     0.012 A 
ENDBRANCH   1   2
BRANCH   1   8
HETATM    8  N   UNL     1      30.671  49.734  42.189  1.00  0.00     0.101 N 
HETATM    9  H   UNL     1      30.157  49.059  42.756  1.00  0.00     0.317 HD
BRANCH   8  10
HETATM   10  C   UNL     1      32.033  49.947  42.682  1.00  0.00     0.225 C 
HETATM   11  C   UNL     1      33.088  49.870  41.558  1.00  0.00     0.069 C 
HETATM   12  C   UNL     1      34.453  50.237  42.112  1.00  0.00     0.190 C 
HETATM   13  N   UNL     1      34.384  51.627  42.681  1.00  0.00    -0.067 N 
HETATM   14  C   UNL     1      35.586  50.380  41.117  1.00  0.00     0.035 C 
HETATM   15  H   UNL     1      34.013  52.252  41.949  1.00  0.00     0.280 HD
HETATM   16  C   UNL     1      33.461  51.717  43.852  1.00  0.00     0.237 C 
HETATM   17  C   UNL     1      35.816  52.044  42.899  1.00  0.00     0.235 C 
HETATM   18  C   UNL     1      32.065  51.328  43.377  1.00  0.00     0.063 C 
HETATM   19  C   UNL     1      36.607  51.219  41.883  1.00  0.00     0.030 C 
ENDBRANCH   8  10
ENDBRANCH   1   8
BRANCH   1  20
HETATM   20  C   UNL     1      29.933  50.562  40.011  1.00  0.00    -0.021 A 
HETATM   21  C   UNL     1      30.141  50.664  38.621  1.00  0.00     0.012 A 
HETATM   22  C   UNL     1      29.649  51.755  37.901  1.00  0.00     0.043 A 
HETATM   23  C   UNL     1      28.956  52.756  38.565  1.00  0.00     0.116 A 
HETATM   24  F   UNL     1      28.487  53.803  37.875  1.00  0.00    -0.206 F 
HETATM   25  C   UNL     1      28.746  52.690  39.936  1.00  0.00     0.043 A 
HETATM   26  C   UNL     1      29.238  51.601  40.659  1.00  0.00     0.012 A 
ENDBRANCH   1  20
TORSDOF 4
ENDMDL
MODEL 6
REMARK VINA RESULT:      -7.9      4.433      7.633
REMARK  4 active torsions:
REMARK  status: ('A' for Active; 'I' for Inactive)
REMARK    1  A    between atoms: C_5  and  C_6 
REMARK    2  A    between atoms: C_6  and  N_7 
REMARK    3  A    between atoms: C_6  and  C_18 
REMARK    4  A    between atoms: N_7  and  C_8 
ROOT
HETATM    1  C   UNL     1      28.608  44.506  54.155  1.00  0.00     0.288 C 
ENDROOT
BRANCH   1   2
HETATM    2  C   UNL     1      27.692  45.708  54.310  1.00  0.00    -0.003 A 
HETATM    3  C   UNL     1      26.315  45.652  54.109  1.00  0.00     0.126 A 
HETATM    4  N   UNL     1      25.478  46.708  54.224  1.00  0.00    -0.272 NA
HETATM    5  C   UNL     1      26.024  47.880  54.608  1.00  0.00     0.116 A 
HETATM    6  C   UNL     1      27.374  48.046  54.864  1.00  0.00     0.020 A 
HETATM    7  C   UNL     1      28.215  46.946  54.711  1.00  0.00     0.012 A 
ENDBRANCH   1   2
BRANCH   1   8
HETATM    8  N   UNL     1      27.929  43.212  53.940  1.00  0.00     0.101 N 
HETATM    9  H   UNL     1      26.946  43.317  54.191  1.00  0.00     0.317 HD
BRANCH   8  10
HETATM   10  C   UNL     1      28.100  42.572  52.634  1.00  0.00     0.225 C 
HETATM   11  C   UNL     1      28.764  41.183  52.738  1.00  0.00     0.069 C 
HETATM   12  C   UNL     1      28.782  40.520  51.372  1.00  0.00     0.190 C 
HETATM   13  N   UNL     1      27.368  40.397  50.878  1.00  0.00    -0.067 N 
HETATM   14  C   UNL     1      29.244  39.079  51.309  1.00  0.00     0.035 C 
HETATM   15  H   UNL     1      26.817  39.914  51.604  1.00  0.00     0.280 HD
HETATM   16  C   UNL     1      26.727  41.727  50.648  1.00  0.00     0.237 C 
HETATM   17  C   UNL     1      27.432  39.453  49.705  1.00  0.00     0.235 C 
HETATM   18  C   UNL     1      26.702  42.470  51.980  1.00  0.00     0.063 C 
HETATM   19  C   UNL     1      28.668  38.595  49.979  1.00  0.00     0.030 C 
ENDBRANCH   8  10
ENDBRANCH   1   8
BRANCH   1  20
HETATM   20  C   UNL     1      29.613  44.351  55.298  1.00  0.00    -0.021 A 
HETATM   21  C   UNL     1      29.647  45.319  56.320  1.00  0.00     0.012 A 
HETATM   22  C   UNL     1      30.570  45.224  57.365  1.00  0.00     0.043 A 
HETATM   23  C   UNL     1      31.469  44.169  57.391  1.00  0.00     0.116 A 
HETATM   24  F   UNL     1      32.355  44.080  58.390  1.00  0.00    -0.206 F 
HETATM   25  C   UNL     1      31.469  43.207  56.389  1.00  0.00     0.043 A 
HETATM   26  C   UNL     1      30.549  43.299  55.342  1.00  0.00     0.012 A 
ENDBRANCH   1  20
TORSDOF 4
ENDMDL
MODEL 7
REMARK VINA RESULT:      -7.8      1.873      2.470
REMARK  4 active torsions:
REMARK  status: ('A' for Active; 'I' for Inactive)
REMARK    1  A    between atoms: C_5  and  C_6 
REMARK    2  A    between atoms: C_6  and  N_7 
REMARK    3  A    between atoms: C_6  and  C_18 
REMARK    4  A    between atoms: N_7  and  C_8 
ROOT
HETATM    1  C   UNL     1      26.583  43.646  51.740  1.00  0.00     0.288 C 
ENDROOT
BRANCH   1   2
HETATM    2  C   UNL     1      26.273  42.456  50.847  1.00  0.00    -0.003 A 
HETATM    3  C   UNL     1      26.959  41.246  50.921  1.00  0.00     0.126 A 
HETATM    4  N   UNL     1      26.716  40.177  50.130  1.00  0.00    -0.272 NA
HETATM    5  C   UNL     1      25.704  40.289  49.246  1.00  0.00     0.116 A 
HETATM    6  C   UNL     1      24.935  41.431  49.106  1.00  0.00     0.020 A 
HETATM    7  C   UNL     1      25.227  42.526  49.916  1.00  0.00     0.012 A 
ENDBRANCH   1   2
BRANCH   1   8
HETATM    8  N   UNL     1      25.973  43.610  53.084  1.00  0.00     0.101 N 
HETATM    9  H   UNL     1      25.406  42.765  53.159  1.00  0.00     0.317 HD
BRANCH   8  10
HETATM   10  C   UNL     1      26.866  43.780  54.233  1.00  0.00     0.225 C 
HETATM   11  C   UNL     1      28.273  43.199  53.979  1.00  0.00     0.069 C 
HETATM   12  C   UNL     1      29.182  43.532  55.148  1.00  0.00     0.190 C 
HETATM   13  N   UNL     1      29.244  45.026  55.300  1.00  0.00    -0.067 N 
HETATM   14  C   UNL     1      30.650  43.188  55.002  1.00  0.00     0.035 C 
HETATM   15  H   UNL     1      29.517  45.428  54.390  1.00  0.00     0.280 HD
HETATM   16  C   UNL     1      27.922  45.616  55.666  1.00  0.00     0.237 C 
HETATM   17  C   UNL     1      30.397  45.288  56.235  1.00  0.00     0.235 C 
HETATM   18  C   UNL     1      26.939  45.293  54.544  1.00  0.00     0.063 C 
HETATM   19  C   UNL     1      31.314  44.079  56.050  1.00  0.00     0.030 C 
ENDBRANCH   8  10
ENDBRANCH   1   8
BRANCH   1  20
HETATM   20  C   UNL     1      26.268  44.996  51.092  1.00  0.00    -0.021 A 
HETATM   21  C   UNL     1      25.103  45.689  51.477  1.00  0.00     0.012 A 
HETATM   22  C   UNL     1      24.769  46.910  50.888  1.00  0.00     0.043 A 
HETATM   23  C   UNL     1      25.589  47.443  49.905  1.00  0.00     0.116 A 
HETATM   24  F   UNL     1      25.267  48.613  49.339  1.00  0.00    -0.206 F 
HETATM   25  C   UNL     1      26.736  46.777  49.495  1.00  0.00     0.043 A 
HETATM   26  C   UNL     1      27.073  45.555  50.081  1.00  0.00     0.012 A 
ENDBRANCH   1  20
TORSDOF 4
ENDMDL
MODEL 8
REMARK VINA RESULT:      -7.8      3.762      7.370
REMARK  4 active torsions:
REMARK  status: ('A' for Active; 'I' for Inactive)
REMARK    1  A    between atoms: C_5  and  C_6 
REMARK    2  A    between atoms: C_6  and  N_7 
REMARK    3  A    between atoms: C_6  and  C_18 
REMARK    4  A    between atoms: N_7  and  C_8 
ROOT
HETATM    1  C   UNL     1      27.587  43.060  51.716  1.00  0.00     0.288 C 
ENDROOT
BRANCH   1   2
HETATM    2  C   UNL     1      26.794  44.198  51.096  1.00  0.00    -0.003 A 
HETATM    3  C   UNL     1      27.284  45.003  50.071  1.00  0.00     0.126 A 
HETATM    4  N   UNL     1      26.609  46.032  49.512  1.00  0.00    -0.272 NA
HETATM    5  C   UNL     1      25.354  46.251  49.956  1.00  0.00     0.116 A 
HETATM    6  C   UNL     1      24.753  45.497  50.949  1.00  0.00     0.020 A 
HETATM    7  C   UNL     1      25.484  44.460  51.524  1.00  0.00     0.012 A 
ENDBRANCH   1   2
BRANCH   1   8
HETATM    8  N   UNL     1      26.805  41.857  52.067  1.00  0.00     0.101 N 
HETATM    9  H   UNL     1      25.868  42.150  52.343  1.00  0.00     0.317 HD
BRANCH   8  10
HETATM   10  C   UNL     1      26.778  40.765  51.092  1.00  0.00     0.225 C 
HETATM   11  C   UNL     1      25.825  41.050  49.911  1.00  0.00     0.069 C 
HETATM   12  C   UNL     1      25.951  39.948  48.875  1.00  0.00     0.190 C 
HETATM   13  N   UNL     1      27.378  39.890  48.404  1.00  0.00    -0.067 N 
HETATM   14  C   UNL     1      25.215  40.143  47.565  1.00  0.00     0.035 C 
HETATM   15  H   UNL     1      27.648  40.834  48.091  1.00  0.00     0.280 HD
HETATM   16  C   UNL     1      28.321  39.498  49.493  1.00  0.00     0.237 C 
HETATM   17  C   UNL     1      27.359  39.028  47.167  1.00  0.00     0.235 C 
HETATM   18  C   UNL     1      28.226  40.549  50.595  1.00  0.00     0.063 C 
HETATM   19  C   UNL     1      25.939  39.184  46.622  1.00  0.00     0.030 C 
ENDBRANCH   8  10
ENDBRANCH   1   8
BRANCH   1  20
HETATM   20  C   UNL     1      28.415  43.481  52.932  1.00  0.00    -0.021 A 
HETATM   21  C   UNL     1      29.612  42.797  53.219  1.00  0.00     0.012 A 
HETATM   22  C   UNL     1      30.381  43.136  54.335  1.00  0.00     0.043 A 
HETATM   23  C   UNL     1      29.954  44.152  55.177  1.00  0.00     0.116 A 
HETATM   24  F   UNL     1      30.689  44.475  56.248  1.00  0.00    -0.206 F 
HETATM   25  C   UNL     1      28.771  44.836  54.927  1.00  0.00     0.043 A 
HETATM   26  C   UNL     1      28.000  44.499  53.812  1.00  0.00     0.012 A 
ENDBRANCH   1  20
TORSDOF 4
ENDMDL
MODEL 9
REMARK VINA RESULT:      -7.6      4.610      6.945
REMARK  4 active torsions:
REMARK  status: ('A' for Active; 'I' for Inactive)
REMARK    1  A    between atoms: C_5  and  C_6 
REMARK    2  A    between atoms: C_6  and  N_7 
REMARK    3  A    between atoms: C_6  and  C_18 
REMARK    4  A    between atoms: N_7  and  C_8 
ROOT
HETATM    1  C   UNL     1      20.946  47.900  48.258  1.00  0.00     0.288 C 
ENDROOT
BRANCH   1   2
HETATM    2  C   UNL     1      19.944  46.870  47.765  1.00  0.00    -0.003 A 
HETATM    3  C   UNL     1      19.722  45.652  48.404  1.00  0.00     0.126 A 
HETATM    4  N   UNL     1      18.850  44.711  47.980  1.00  0.00    -0.272 NA
HETATM    5  C   UNL     1      18.116  45.007  46.887  1.00  0.00     0.116 A 
HETATM    6  C   UNL     1      18.230  46.197  46.190  1.00  0.00     0.020 A 
HETATM    7  C   UNL     1      19.157  47.136  46.636  1.00  0.00     0.012 A 
ENDBRANCH   1   2
BRANCH   1   8
HETATM    8  N   UNL     1      21.906  47.421  49.273  1.00  0.00     0.101 N 
HETATM    9  H   UNL     1      21.611  46.496  49.584  1.00  0.00     0.317 HD
BRANCH   8  10
HETATM   10  C   UNL     1      23.328  47.460  48.926  1.00  0.00     0.225 C 
HETATM   11  C   UNL     1      23.842  48.897  48.697  1.00  0.00     0.069 C 
HETATM   12  C   UNL     1      25.344  48.875  48.481  1.00  0.00     0.190 C 
HETATM   13  N   UNL     1      25.996  48.266  49.691  1.00  0.00    -0.067 N 
HETATM   14  C   UNL     1      26.051  50.213  48.406  1.00  0.00     0.035 C 
HETATM   15  H   UNL     1      25.668  48.781  50.522  1.00  0.00     0.280 HD
HETATM   16  C   UNL     1      25.617  46.833  49.880  1.00  0.00     0.237 C 
HETATM   17  C   UNL     1      27.464  48.577  49.557  1.00  0.00     0.235 C 
HETATM   18  C   UNL     1      24.104  46.772  50.072  1.00  0.00     0.063 C 
HETATM   19  C   UNL     1      27.504  49.846  48.706  1.00  0.00     0.030 C 
ENDBRANCH   8  10
ENDBRANCH   1   8
BRANCH   1  20
HETATM   20  C   UNL     1      20.299  49.192  48.763  1.00  0.00    -0.021 A 
HETATM   21  C   UNL     1      19.423  49.137  49.864  1.00  0.00     0.012 A 
HETATM   22  C   UNL     1      18.793  50.291  50.336  1.00  0.00     0.043 A 
HETATM   23  C   UNL     1      19.026  51.504  49.706  1.00  0.00     0.116 A 
HETATM   24  F   UNL     1      18.420  52.610  50.157  1.00  0.00    -0.206 F 
HETATM   25  C   UNL     1      19.874  51.587  48.610  1.00  0.00     0.043 A 
HETATM   26  C   UNL     1      20.505  50.435  48.135  1.00  0.00     0.012 A 
ENDBRANCH   1  20
TORSDOF 4
ENDMDL
MODEL 10
REMARK VINA RESULT:      -7.5     16.765     18.106
REMARK  4 active torsions:
REMARK  status: ('A' for Active; 'I' for Inactive)
REMARK    1  A    between atoms: C_5  and  C_6 
REMARK    2  A    between atoms: C_6  and  N_7 
REMARK    3  A    between atoms: C_6  and  C_18 
REMARK    4  A    between atoms: N_7  and  C_8 
ROOT
HETATM    1  C   UNL     1      37.315  43.214  64.663  1.00  0.00     0.288 C 
ENDROOT
BRANCH   1   2
HETATM    2  C   UNL     1      36.054  42.945  65.467  1.00  0.00    -0.003 A 
HETATM    3  C   UNL     1      35.645  43.739  66.536  1.00  0.00     0.126 A 
HETATM    4  N   UNL     1      34.539  43.514  67.280  1.00  0.00    -0.272 NA
HETATM    5  C   UNL     1      33.761  42.474  66.917  1.00  0.00     0.116 A 
HETATM    6  C   UNL     1      34.052  41.636  65.855  1.00  0.00     0.020 A 
HETATM    7  C   UNL     1      35.214  41.877  65.124  1.00  0.00     0.012 A 
ENDBRANCH   1   2
BRANCH   1   8
HETATM    8  N   UNL     1      37.155  44.132  63.517  1.00  0.00     0.101 N 
HETATM    9  H   UNL     1      36.162  44.206  63.298  1.00  0.00     0.317 HD
BRANCH   8  10
HETATM   10  C   UNL     1      37.799  45.445  63.612  1.00  0.00     0.225 C 
HETATM   11  C   UNL     1      36.894  46.500  64.282  1.00  0.00     0.069 C 
HETATM   12  C   UNL     1      37.670  47.791  64.475  1.00  0.00     0.190 C 
HETATM   13  N   UNL     1      38.875  47.507  65.327  1.00  0.00    -0.067 N 
HETATM   14  C   UNL     1      36.996  48.889  65.271  1.00  0.00     0.035 C 
HETATM   15  H   UNL     1      38.552  47.043  66.190  1.00  0.00     0.280 HD
HETATM   16  C   UNL     1      39.837  46.579  64.660  1.00  0.00     0.237 C 
HETATM   17  C   UNL     1      39.398  48.856  65.747  1.00  0.00     0.235 C 
HETATM   18  C   UNL     1      39.114  45.260  64.404  1.00  0.00     0.063 C 
HETATM   19  C   UNL     1      38.171  49.767  65.700  1.00  0.00     0.030 C 
ENDBRANCH   8  10
ENDBRANCH   1   8
BRANCH   1  20
HETATM   20  C   UNL     1      38.017  41.943  64.181  1.00  0.00    -0.021 A 
HETATM   21  C   UNL     1      38.238  40.892  65.092  1.00  0.00     0.012 A 
HETATM   22  C   UNL     1      38.899  39.727  64.694  1.00  0.00     0.043 A 
HETATM   23  C   UNL     1      39.353  39.609  63.389  1.00  0.00     0.116 A 
HETATM   24  F   UNL     1      39.989  38.494  63.009  1.00  0.00    -0.206 F 
HETATM   25  C   UNL     1      39.161  40.634  62.472  1.00  0.00     0.043 A 
HETATM   26  C   UNL     1      38.501  41.800  62.866  1.00  0.00     0.012 A 
ENDBRANCH   1  20
TORSDOF 4
ENDMDL
