MODEL 1
REMARK VINA RESULT:      -9.9      0.000      0.000
REMARK  5 active torsions:
REMARK  status: ('A' for Active; 'I' for Inactive)
REMARK    1  A    between atoms: C_8  and  N_9 
REMARK    2  A    between atoms: N_9  and  C_10 
REMARK    3  A    between atoms: C_10  and  C_11 
REMARK       I    between atoms: C_11  and  N_12 
REMARK    4  A    between atoms: N_12  and  N_13 
REMARK    5  A    between atoms: C_14  and  C_15 
ROOT
HETATM    1  C   UNL     1      26.192  46.384  53.890  1.00  0.00     0.250 C 
HETATM    2  N   UNL     1      26.259  46.378  52.496  1.00  0.00    -0.246 N 
HETATM    3  O   UNL     1      25.730  47.296  54.573  1.00  0.00    -0.270 OA
HETATM    4  H   UNL     1      26.382  45.488  52.022  1.00  0.00     0.192 HD
ENDROOT
BRANCH   2   5
HETATM    5  N   UNL     1      25.759  47.354  51.666  1.00  0.00    -0.184 NA
HETATM    6  C   UNL     1      26.048  47.308  50.405  1.00  0.00     0.153 C 
BRANCH   6   7
HETATM    7  C   UNL     1      25.557  48.343  49.508  1.00  0.00     0.018 A 
HETATM    8  C   UNL     1      24.213  48.621  49.085  1.00  0.00     0.004 A 
HETATM    9  C   UNL     1      24.266  49.712  48.217  1.00  0.00     0.043 A 
HETATM   10  C   UNL     1      22.950  48.050  49.352  1.00  0.00     0.014 A 
HETATM   11  C   UNL     1      23.128  50.258  47.606  1.00  0.00     0.030 A 
HETATM   12  N   UNL     1      25.582  50.090  48.119  1.00  0.00    -0.358 N 
HETATM   13  C   UNL     1      21.894  49.670  47.890  1.00  0.00     0.002 A 
HETATM   14  C   UNL     1      21.803  48.580  48.751  1.00  0.00     0.001 A 
HETATM   15  H   UNL     1      25.910  50.862  47.556  1.00  0.00     0.166 HD
HETATM   16  C   UNL     1      26.377  49.278  48.888  1.00  0.00     0.018 A 
HETATM   17  C   UNL     1      27.848  49.482  48.958  1.00  0.00     0.069 C 
ENDBRANCH   6   7
ENDBRANCH   2   5
BRANCH   1  18
HETATM   18  C   UNL     1      26.767  45.103  54.515  1.00  0.00     0.197 C 
BRANCH  18  19
HETATM   19  N   UNL     1      28.200  44.962  54.196  1.00  0.00    -0.284 NA
HETATM   20  H   UNL     1      28.482  45.620  53.472  1.00  0.00     0.128 HD
BRANCH  19  21
HETATM   21  C   UNL     1      29.024  45.066  55.338  1.00  0.00     0.016 A 
HETATM   22  C   UNL     1      30.104  44.181  55.554  1.00  0.00    -0.019 A 
HETATM   23  C   UNL     1      30.506  43.176  54.504  1.00  0.00     0.052 C 
HETATM   24  C   UNL     1      30.805  44.258  56.773  1.00  0.00     0.041 A 
HETATM   25 CL   UNL     1      32.111  43.183  57.141  1.00  0.00    -0.084 Cl
HETATM   26  C   UNL     1      30.466  45.206  57.742  1.00  0.00     0.024 A 
HETATM   27  C   UNL     1      29.415  46.086  57.516  1.00  0.00     0.003 A 
HETATM   28  C   UNL     1      28.693  46.010  56.326  1.00  0.00     0.024 A 
ENDBRANCH  19  21
ENDBRANCH  18  19
ENDBRANCH   1  18
TORSDOF 5
ENDMDL
MODEL 2
REMARK VINA RESULT:      -9.3      2.245      2.949
REMARK  5 active torsions:
REMARK  status: ('A' for Active; 'I' for Inactive)
REMARK    1  A    between atoms: C_8  and  N_9 
REMARK    2  A    between atoms: N_9  and  C_10 
REMARK    3  A    between atoms: C_10  and  C_11 
REMARK       I    between atoms: C_11  and  N_12 
REMARK    4  A    between atoms: N_12  and  N_13 
REMARK    5  A    between atoms: C_14  and  C_15 
ROOT
HETATM    1  C   UNL     1      26.428  43.765  50.415  1.00  0.00     0.250 C 
HETATM    2  N   UNL     1      25.410  44.697  50.625  1.00  0.00    -0.246 N 
HETATM    3  O   UNL     1      27.220  43.781  49.475  1.00  0.00    -0.270 OA
HETATM    4  H   UNL     1      25.006  44.770  51.554  1.00  0.00     0.192 HD
ENDROOT
BRANCH   2   5
HETATM    5  N   UNL     1      25.177  45.814  49.857  1.00  0.00    -0.184 NA
HETATM    6  C   UNL     1      25.663  46.950  50.245  1.00  0.00     0.153 C 
BRANCH   6   7
HETATM    7  C   UNL     1      25.408  48.153  49.469  1.00  0.00     0.018 A 
HETATM    8  C   UNL     1      24.156  48.714  49.042  1.00  0.00     0.004 A 
HETATM    9  C   UNL     1      24.443  49.871  48.317  1.00  0.00     0.043 A 
HETATM   10  C   UNL     1      22.800  48.351  49.197  1.00  0.00     0.014 A 
HETATM   11  C   UNL     1      23.452  50.679  47.744  1.00  0.00     0.030 A 
HETATM   12  N   UNL     1      25.809  50.017  48.308  1.00  0.00    -0.358 N 
HETATM   13  C   UNL     1      22.121  50.293  47.914  1.00  0.00     0.002 A 
HETATM   14  C   UNL     1      21.796  49.144  48.631  1.00  0.00     0.001 A 
HETATM   15  H   UNL     1      26.295  50.778  47.855  1.00  0.00     0.166 HD
HETATM   16  C   UNL     1      26.409  48.992  48.995  1.00  0.00     0.018 A 
HETATM   17  C   UNL     1      27.887  48.920  49.135  1.00  0.00     0.069 C 
ENDBRANCH   6   7
ENDBRANCH   2   5
BRANCH   1  18
HETATM   18  C   UNL     1      26.469  42.680  51.503  1.00  0.00     0.197 C 
BRANCH  18  19
HETATM   19  N   UNL     1      26.193  43.257  52.831  1.00  0.00    -0.284 NA
HETATM   20  H   UNL     1      25.495  42.710  53.332  1.00  0.00     0.128 HD
BRANCH  19  21
HETATM   21  C   UNL     1      27.363  43.432  53.603  1.00  0.00     0.016 A 
HETATM   22  C   UNL     1      27.658  44.662  54.230  1.00  0.00    -0.019 A 
HETATM   23  C   UNL     1      26.666  45.798  54.217  1.00  0.00     0.052 C 
HETATM   24  C   UNL     1      28.900  44.809  54.876  1.00  0.00     0.041 A 
HETATM   25 CL   UNL     1      29.365  46.296  55.631  1.00  0.00    -0.084 Cl
HETATM   26  C   UNL     1      29.817  43.755  54.926  1.00  0.00     0.024 A 
HETATM   27  C   UNL     1      29.513  42.540  54.322  1.00  0.00     0.003 A 
HETATM   28  C   UNL     1      28.298  42.384  53.657  1.00  0.00     0.024 A 
ENDBRANCH  19  21
ENDBRANCH  18  19
ENDBRANCH   1  18
TORSDOF 5
ENDMDL
MODEL 3
REMARK VINA RESULT:      -9.1      3.917      9.982
REMARK  5 active torsions:
REMARK  status: ('A' for Active; 'I' for Inactive)
REMARK    1  A    between atoms: C_8  and  N_9 
REMARK    2  A    between atoms: N_9  and  C_10 
REMARK    3  A    between atoms: C_10  and  C_11 
REMARK       I    between atoms: C_11  and  N_12 
REMARK    4  A    between atoms: N_12  and  N_13 
REMARK    5  A    between atoms: C_14  and  C_15 
ROOT
HETATM    1  C   UNL     1      25.129  47.581  50.357  1.00  0.00     0.250 C 
HETATM    2  N   UNL     1      25.157  46.892  51.571  1.00  0.00    -0.246 N 
HETATM    3  O   UNL     1      26.023  48.313  49.938  1.00  0.00    -0.270 OA
HETATM    4  H   UNL     1      24.524  46.107  51.695  1.00  0.00     0.192 HD
ENDROOT
BRANCH   2   5
HETATM    5  N   UNL     1      26.211  46.867  52.453  1.00  0.00    -0.184 NA
HETATM    6  C   UNL     1      26.274  45.908  53.322  1.00  0.00     0.153 C 
BRANCH   6   7
HETATM    7  C   UNL     1      27.362  45.872  54.287  1.00  0.00     0.018 A 
HETATM    8  C   UNL     1      28.417  44.908  54.435  1.00  0.00     0.004 A 
HETATM    9  C   UNL     1      29.205  45.315  55.513  1.00  0.00     0.043 A 
HETATM   10  C   UNL     1      28.783  43.724  53.760  1.00  0.00     0.014 A 
HETATM   11  C   UNL     1      30.331  44.603  55.947  1.00  0.00     0.030 A 
HETATM   12  N   UNL     1      28.661  46.479  55.997  1.00  0.00    -0.358 N 
HETATM   13  C   UNL     1      30.666  43.435  55.260  1.00  0.00     0.002 A 
HETATM   14  C   UNL     1      29.904  42.998  54.180  1.00  0.00     0.001 A 
HETATM   15  H   UNL     1      29.036  46.998  56.779  1.00  0.00     0.166 HD
HETATM   16  C   UNL     1      27.550  46.832  55.274  1.00  0.00     0.018 A 
HETATM   17  C   UNL     1      26.778  48.061  55.597  1.00  0.00     0.069 C 
ENDBRANCH   6   7
ENDBRANCH   2   5
BRANCH   1  18
HETATM   18  C   UNL     1      23.835  47.333  49.566  1.00  0.00     0.197 C 
BRANCH  18  19
HETATM   19  N   UNL     1      23.582  48.431  48.615  1.00  0.00    -0.284 NA
HETATM   20  H   UNL     1      23.941  48.205  47.689  1.00  0.00     0.128 HD
BRANCH  19  21
HETATM   21  C   UNL     1      22.222  48.806  48.565  1.00  0.00     0.016 A 
HETATM   22  C   UNL     1      21.830  50.162  48.523  1.00  0.00    -0.019 A 
HETATM   23  C   UNL     1      22.852  51.263  48.390  1.00  0.00     0.052 C 
HETATM   24  C   UNL     1      20.458  50.470  48.604  1.00  0.00     0.041 A 
HETATM   25 CL   UNL     1      19.890  52.105  48.607  1.00  0.00    -0.084 Cl
HETATM   26  C   UNL     1      19.496  49.460  48.695  1.00  0.00     0.024 A 
HETATM   27  C   UNL     1      19.887  48.126  48.717  1.00  0.00     0.003 A 
HETATM   28  C   UNL     1      21.242  47.803  48.661  1.00  0.00     0.024 A 
ENDBRANCH  19  21
ENDBRANCH  18  19
ENDBRANCH   1  18
TORSDOF 5
ENDMDL
MODEL 4
REMARK VINA RESULT:      -8.8      5.536      7.825
REMARK  5 active torsions:
REMARK  status: ('A' for Active; 'I' for Inactive)
REMARK    1  A    between atoms: C_8  and  N_9 
REMARK    2  A    between atoms: N_9  and  C_10 
REMARK    3  A    between atoms: C_10  and  C_11 
REMARK       I    between atoms: C_11  and  N_12 
REMARK    4  A    between atoms: N_12  and  N_13 
REMARK    5  A    between atoms: C_14  and  C_15 
ROOT
HETATM    1  C   UNL     1      26.965  42.977  52.325  1.00  0.00     0.250 C 
HETATM    2  N   UNL     1      27.405  41.657  52.425  1.00  0.00    -0.246 N 
HETATM    3  O   UNL     1      26.617  43.531  51.284  1.00  0.00    -0.270 OA
HETATM    4  H   UNL     1      27.393  41.211  53.337  1.00  0.00     0.192 HD
ENDROOT
BRANCH   2   5
HETATM    5  N   UNL     1      27.454  40.749  51.393  1.00  0.00    -0.184 NA
HETATM    6  C   UNL     1      28.610  40.352  50.965  1.00  0.00     0.153 C 
BRANCH   6   7
HETATM    7  C   UNL     1      28.692  39.415  49.856  1.00  0.00     0.018 A 
HETATM    8  C   UNL     1      28.286  39.583  48.489  1.00  0.00     0.004 A 
HETATM    9  C   UNL     1      28.569  38.391  47.820  1.00  0.00     0.043 A 
HETATM   10  C   UNL     1      27.703  40.634  47.748  1.00  0.00     0.014 A 
HETATM   11  C   UNL     1      28.298  38.197  46.459  1.00  0.00     0.030 A 
HETATM   12  N   UNL     1      29.128  37.534  48.736  1.00  0.00    -0.358 N 
HETATM   13  C   UNL     1      27.719  39.254  45.754  1.00  0.00     0.002 A 
HETATM   14  C   UNL     1      27.425  40.458  46.388  1.00  0.00     0.001 A 
HETATM   15  H   UNL     1      29.435  36.596  48.520  1.00  0.00     0.166 HD
HETATM   16  C   UNL     1      29.211  38.131  49.968  1.00  0.00     0.018 A 
HETATM   17  C   UNL     1      29.787  37.411  51.135  1.00  0.00     0.069 C 
ENDBRANCH   6   7
ENDBRANCH   2   5
BRANCH   1  18
HETATM   18  C   UNL     1      26.955  43.702  53.681  1.00  0.00     0.197 C 
BRANCH  18  19
HETATM   19  N   UNL     1      27.997  44.744  53.727  1.00  0.00    -0.284 NA
HETATM   20  H   UNL     1      27.585  45.671  53.821  1.00  0.00     0.128 HD
BRANCH  19  21
HETATM   21  C   UNL     1      28.963  44.503  54.729  1.00  0.00     0.016 A 
HETATM   22  C   UNL     1      29.142  45.394  55.811  1.00  0.00    -0.019 A 
HETATM   23  C   UNL     1      28.214  46.565  56.016  1.00  0.00     0.052 C 
HETATM   24  C   UNL     1      30.206  45.163  56.704  1.00  0.00     0.041 A 
HETATM   25 CL   UNL     1      30.529  46.228  58.031  1.00  0.00    -0.084 Cl
HETATM   26  C   UNL     1      31.054  44.064  56.548  1.00  0.00     0.024 A 
HETATM   27  C   UNL     1      30.862  43.181  55.491  1.00  0.00     0.003 A 
HETATM   28  C   UNL     1      29.828  43.406  54.583  1.00  0.00     0.024 A 
ENDBRANCH  19  21
ENDBRANCH  18  19
ENDBRANCH   1  18
TORSDOF 5
ENDMDL
MODEL 5
REMARK VINA RESULT:      -8.8      4.661     10.177
REMARK  5 active torsions:
REMARK  status: ('A' for Active; 'I' for Inactive)
REMARK    1  A    between atoms: C_8  and  N_9 
REMARK    2  A    between atoms: N_9  and  C_10 
REMARK    3  A    between atoms: C_10  and  C_11 
REMARK       I    between atoms: C_11  and  N_12 
REMARK    4  A    between atoms: N_12  and  N_13 
REMARK    5  A    between atoms: C_14  and  C_15 
ROOT
HETATM    1  C   UNL     1      23.760  48.241  49.363  1.00  0.00     0.250 C 
HETATM    2  N   UNL     1      23.846  46.975  49.945  1.00  0.00    -0.246 N 
HETATM    3  O   UNL     1      24.635  49.103  49.410  1.00  0.00    -0.270 OA
HETATM    4  H   UNL     1      23.217  46.248  49.616  1.00  0.00     0.192 HD
ENDROOT
BRANCH   2   5
HETATM    5  N   UNL     1      24.944  46.468  50.599  1.00  0.00    -0.184 NA
HETATM    6  C   UNL     1      24.759  45.709  51.632  1.00  0.00     0.153 C 
BRANCH   6   7
HETATM    7  C   UNL     1      25.901  45.182  52.362  1.00  0.00     0.018 A 
HETATM    8  C   UNL     1      26.703  45.809  53.375  1.00  0.00     0.004 A 
HETATM    9  C   UNL     1      27.684  44.893  53.757  1.00  0.00     0.043 A 
HETATM   10  C   UNL     1      26.695  47.071  54.009  1.00  0.00     0.014 A 
HETATM   11  C   UNL     1      28.651  45.171  54.733  1.00  0.00     0.030 A 
HETATM   12  N   UNL     1      27.487  43.754  53.016  1.00  0.00    -0.358 N 
HETATM   13  C   UNL     1      28.617  46.428  55.340  1.00  0.00     0.002 A 
HETATM   14  C   UNL     1      27.653  47.368  54.985  1.00  0.00     0.001 A 
HETATM   15  H   UNL     1      28.055  42.922  53.093  1.00  0.00     0.166 HD
HETATM   16  C   UNL     1      26.419  43.907  52.169  1.00  0.00     0.018 A 
HETATM   17  C   UNL     1      25.994  42.811  51.258  1.00  0.00     0.069 C 
ENDBRANCH   6   7
ENDBRANCH   2   5
BRANCH   1  18
HETATM   18  C   UNL     1      22.425  48.467  48.634  1.00  0.00     0.197 C 
BRANCH  18  19
HETATM   19  N   UNL     1      21.315  48.586  49.596  1.00  0.00    -0.284 NA
HETATM   20  H   UNL     1      21.663  48.679  50.549  1.00  0.00     0.128 HD
BRANCH  19  21
HETATM   21  C   UNL     1      20.421  49.629  49.269  1.00  0.00     0.016 A 
HETATM   22  C   UNL     1      19.031  49.405  49.164  1.00  0.00    -0.019 A 
HETATM   23  C   UNL     1      18.428  48.073  49.533  1.00  0.00     0.052 C 
HETATM   24  C   UNL     1      18.211  50.456  48.710  1.00  0.00     0.041 A 
HETATM   25 CL   UNL     1      16.503  50.257  48.507  1.00  0.00    -0.084 Cl
HETATM   26  C   UNL     1      18.749  51.707  48.396  1.00  0.00     0.024 A 
HETATM   27  C   UNL     1      20.116  51.927  48.518  1.00  0.00     0.003 A 
HETATM   28  C   UNL     1      20.947  50.892  48.944  1.00  0.00     0.024 A 
ENDBRANCH  19  21
ENDBRANCH  18  19
ENDBRANCH   1  18
TORSDOF 5
ENDMDL
MODEL 6
REMARK VINA RESULT:      -8.7      4.364      9.845
REMARK  5 active torsions:
REMARK  status: ('A' for Active; 'I' for Inactive)
REMARK    1  A    between atoms: C_8  and  N_9 
REMARK    2  A    between atoms: N_9  and  C_10 
REMARK    3  A    between atoms: C_10  and  C_11 
REMARK       I    between atoms: C_11  and  N_12 
REMARK    4  A    between atoms: N_12  and  N_13 
REMARK    5  A    between atoms: C_14  and  C_15 
ROOT
HETATM    1  C   UNL     1      23.918  47.060  49.664  1.00  0.00     0.250 C 
HETATM    2  N   UNL     1      24.881  47.794  50.356  1.00  0.00    -0.246 N 
HETATM    3  O   UNL     1      23.809  45.835  49.687  1.00  0.00    -0.270 OA
HETATM    4  H   UNL     1      24.718  48.785  50.506  1.00  0.00     0.192 HD
ENDROOT
BRANCH   2   5
HETATM    5  N   UNL     1      25.813  47.275  51.224  1.00  0.00    -0.184 NA
HETATM    6  C   UNL     1      25.452  47.009  52.439  1.00  0.00     0.153 C 
BRANCH   6   7
HETATM    7  C   UNL     1      26.423  46.486  53.388  1.00  0.00     0.018 A 
HETATM    8  C   UNL     1      27.221  45.294  53.312  1.00  0.00     0.004 A 
HETATM    9  C   UNL     1      27.990  45.232  54.475  1.00  0.00     0.043 A 
HETATM   10  C   UNL     1      27.366  44.255  52.368  1.00  0.00     0.014 A 
HETATM   11  C   UNL     1      28.891  44.192  54.740  1.00  0.00     0.030 A 
HETATM   12  N   UNL     1      27.682  46.340  55.225  1.00  0.00    -0.358 N 
HETATM   13  C   UNL     1      29.011  43.178  53.787  1.00  0.00     0.002 A 
HETATM   14  C   UNL     1      28.260  43.206  52.615  1.00  0.00     0.001 A 
HETATM   15  H   UNL     1      28.100  46.552  56.120  1.00  0.00     0.166 HD
HETATM   16  C   UNL     1      26.740  47.108  54.589  1.00  0.00     0.018 A 
HETATM   17  C   UNL     1      26.238  48.370  55.195  1.00  0.00     0.069 C 
ENDBRANCH   6   7
ENDBRANCH   2   5
BRANCH   1  18
HETATM   18  C   UNL     1      22.973  47.951  48.841  1.00  0.00     0.197 C 
BRANCH  18  19
HETATM   19  N   UNL     1      21.631  47.995  49.450  1.00  0.00    -0.284 NA
HETATM   20  H   UNL     1      21.658  47.689  50.421  1.00  0.00     0.128 HD
BRANCH  19  21
HETATM   21  C   UNL     1      21.018  49.262  49.324  1.00  0.00     0.016 A 
HETATM   22  C   UNL     1      19.683  49.480  49.731  1.00  0.00    -0.019 A 
HETATM   23  C   UNL     1      18.903  48.405  50.445  1.00  0.00     0.052 C 
HETATM   24  C   UNL     1      19.092  50.729  49.461  1.00  0.00     0.041 A 
HETATM   25 CL   UNL     1      17.448  51.069  49.882  1.00  0.00    -0.084 Cl
HETATM   26  C   UNL     1      19.813  51.747  48.830  1.00  0.00     0.024 A 
HETATM   27  C   UNL     1      21.132  51.532  48.448  1.00  0.00     0.003 A 
HETATM   28  C   UNL     1      21.727  50.294  48.686  1.00  0.00     0.024 A 
ENDBRANCH  19  21
ENDBRANCH  18  19
ENDBRANCH   1  18
TORSDOF 5
ENDMDL
MODEL 7
REMARK VINA RESULT:      -8.3      2.658      3.955
REMARK  5 active torsions:
REMARK  status: ('A' for Active; 'I' for Inactive)
REMARK    1  A    between atoms: C_8  and  N_9 
REMARK    2  A    between atoms: N_9  and  C_10 
REMARK    3  A    between atoms: C_10  and  C_11 
REMARK       I    between atoms: C_11  and  N_12 
REMARK    4  A    between atoms: N_12  and  N_13 
REMARK    5  A    between atoms: C_14  and  C_15 
ROOT
HETATM    1  C   UNL     1      25.184  44.028  51.131  1.00  0.00     0.250 C 
HETATM    2  N   UNL     1      25.287  45.255  50.473  1.00  0.00    -0.246 N 
HETATM    3  O   UNL     1      24.155  43.576  51.629  1.00  0.00    -0.270 OA
HETATM    4  H   UNL     1      26.080  45.408  49.858  1.00  0.00     0.192 HD
ENDROOT
BRANCH   2   5
HETATM    5  N   UNL     1      24.246  46.116  50.218  1.00  0.00    -0.184 NA
HETATM    6  C   UNL     1      23.674  46.076  49.056  1.00  0.00     0.153 C 
BRANCH   6   7
HETATM    7  C   UNL     1      22.590  46.994  48.748  1.00  0.00     0.018 A 
HETATM    8  C   UNL     1      22.602  48.429  48.679  1.00  0.00     0.004 A 
HETATM    9  C   UNL     1      21.310  48.842  48.353  1.00  0.00     0.043 A 
HETATM   10  C   UNL     1      23.587  49.424  48.863  1.00  0.00     0.014 A 
HETATM   11  C   UNL     1      20.954  50.190  48.203  1.00  0.00     0.030 A 
HETATM   12  N   UNL     1      20.543  47.711  48.221  1.00  0.00    -0.358 N 
HETATM   13  C   UNL     1      21.950  51.150  48.394  1.00  0.00     0.002 A 
HETATM   14  C   UNL     1      23.250  50.775  48.719  1.00  0.00     0.001 A 
HETATM   15  H   UNL     1      19.561  47.717  47.982  1.00  0.00     0.166 HD
HETATM   16  C   UNL     1      21.293  46.587  48.456  1.00  0.00     0.018 A 
HETATM   17  C   UNL     1      20.695  45.229  48.371  1.00  0.00     0.069 C 
ENDBRANCH   6   7
ENDBRANCH   2   5
BRANCH   1  18
HETATM   18  C   UNL     1      26.520  43.268  51.178  1.00  0.00     0.197 C 
BRANCH  18  19
HETATM   19  N   UNL     1      26.647  42.508  52.435  1.00  0.00    -0.284 NA
HETATM   20  H   UNL     1      26.554  41.507  52.270  1.00  0.00     0.128 HD
BRANCH  19  21
HETATM   21  C   UNL     1      27.837  42.808  53.134  1.00  0.00     0.016 A 
HETATM   22  C   UNL     1      27.868  43.783  54.156  1.00  0.00    -0.019 A 
HETATM   23  C   UNL     1      26.601  44.444  54.638  1.00  0.00     0.052 C 
HETATM   24  C   UNL     1      29.111  44.124  54.724  1.00  0.00     0.041 A 
HETATM   25 CL   UNL     1      29.249  45.341  55.948  1.00  0.00    -0.084 Cl
HETATM   26  C   UNL     1      30.289  43.497  54.312  1.00  0.00     0.024 A 
HETATM   27  C   UNL     1      30.250  42.525  53.319  1.00  0.00     0.003 A 
HETATM   28  C   UNL     1      29.032  42.190  52.728  1.00  0.00     0.024 A 
ENDBRANCH  19  21
ENDBRANCH  18  19
ENDBRANCH   1  18
TORSDOF 5
ENDMDL
MODEL 8
REMARK VINA RESULT:      -8.2      3.840      9.283
REMARK  5 active torsions:
REMARK  status: ('A' for Active; 'I' for Inactive)
REMARK    1  A    between atoms: C_8  and  N_9 
REMARK    2  A    between atoms: N_9  and  C_10 
REMARK    3  A    between atoms: C_10  and  C_11 
REMARK       I    between atoms: C_11  and  N_12 
REMARK    4  A    between atoms: N_12  and  N_13 
REMARK    5  A    between atoms: C_14  and  C_15 
ROOT
HETATM    1  C   UNL     1      23.163  44.013  50.314  1.00  0.00     0.250 C 
HETATM    2  N   UNL     1      24.061  44.977  50.776  1.00  0.00    -0.246 N 
HETATM    3  O   UNL     1      23.046  42.878  50.771  1.00  0.00    -0.270 OA
HETATM    4  H   UNL     1      23.890  45.950  50.539  1.00  0.00     0.192 HD
ENDROOT
BRANCH   2   5
HETATM    5  N   UNL     1      24.904  44.835  51.853  1.00  0.00    -0.184 NA
HETATM    6  C   UNL     1      25.991  45.537  51.891  1.00  0.00     0.153 C 
BRANCH   6   7
HETATM    7  C   UNL     1      26.916  45.386  53.003  1.00  0.00     0.018 A 
HETATM    8  C   UNL     1      27.983  44.441  53.180  1.00  0.00     0.004 A 
HETATM    9  C   UNL     1      28.571  44.703  54.418  1.00  0.00     0.043 A 
HETATM   10  C   UNL     1      28.510  43.382  52.409  1.00  0.00     0.014 A 
HETATM   11  C   UNL     1      29.652  43.965  54.921  1.00  0.00     0.030 A 
HETATM   12  N   UNL     1      27.899  45.765  54.971  1.00  0.00    -0.358 N 
HETATM   13  C   UNL     1      30.149  42.923  54.136  1.00  0.00     0.002 A 
HETATM   14  C   UNL     1      29.588  42.634  52.895  1.00  0.00     0.001 A 
HETATM   15  H   UNL     1      28.121  46.170  55.869  1.00  0.00     0.166 HD
HETATM   16  C   UNL     1      26.898  46.191  54.136  1.00  0.00     0.018 A 
HETATM   17  C   UNL     1      26.022  47.335  54.504  1.00  0.00     0.069 C 
ENDBRANCH   6   7
ENDBRANCH   2   5
BRANCH   1  18
HETATM   18  C   UNL     1      22.305  44.517  49.143  1.00  0.00     0.197 C 
BRANCH  18  19
HETATM   19  N   UNL     1      22.936  45.681  48.492  1.00  0.00    -0.284 NA
HETATM   20  H   UNL     1      23.232  45.456  47.544  1.00  0.00     0.128 HD
BRANCH  19  21
HETATM   21  C   UNL     1      22.116  46.830  48.518  1.00  0.00     0.016 A 
HETATM   22  C   UNL     1      22.611  48.081  48.946  1.00  0.00    -0.019 A 
HETATM   23  C   UNL     1      24.073  48.272  49.262  1.00  0.00     0.052 C 
HETATM   24  C   UNL     1      21.709  49.156  49.070  1.00  0.00     0.041 A 
HETATM   25 CL   UNL     1      22.218  50.713  49.632  1.00  0.00    -0.084 Cl
HETATM   26  C   UNL     1      20.357  49.005  48.750  1.00  0.00     0.024 A 
HETATM   27  C   UNL     1      19.880  47.775  48.312  1.00  0.00     0.003 A 
HETATM   28  C   UNL     1      20.752  46.693  48.205  1.00  0.00     0.024 A 
ENDBRANCH  19  21
ENDBRANCH  18  19
ENDBRANCH   1  18
TORSDOF 5
ENDMDL
MODEL 9
REMARK VINA RESULT:      -8.1      2.160      2.895
REMARK  5 active torsions:
REMARK  status: ('A' for Active; 'I' for Inactive)
REMARK    1  A    between atoms: C_8  and  N_9 
REMARK    2  A    between atoms: N_9  and  C_10 
REMARK    3  A    between atoms: C_10  and  C_11 
REMARK       I    between atoms: C_11  and  N_12 
REMARK    4  A    between atoms: N_12  and  N_13 
REMARK    5  A    between atoms: C_14  and  C_15 
ROOT
HETATM    1  C   UNL     1      26.146  46.624  53.699  1.00  0.00     0.250 C 
HETATM    2  N   UNL     1      25.830  45.387  53.134  1.00  0.00    -0.246 N 
HETATM    3  O   UNL     1      25.720  47.709  53.309  1.00  0.00    -0.270 OA
HETATM    4  H   UNL     1      25.990  44.549  53.686  1.00  0.00     0.192 HD
ENDROOT
BRANCH   2   5
HETATM    5  N   UNL     1      24.944  45.181  52.103  1.00  0.00    -0.184 NA
HETATM    6  C   UNL     1      25.346  45.373  50.887  1.00  0.00     0.153 C 
BRANCH   6   7
HETATM    7  C   UNL     1      24.422  45.191  49.779  1.00  0.00     0.018 A 
HETATM    8  C   UNL     1      23.585  46.156  49.122  1.00  0.00     0.004 A 
HETATM    9  C   UNL     1      22.879  45.485  48.123  1.00  0.00     0.043 A 
HETATM   10  C   UNL     1      23.353  47.540  49.279  1.00  0.00     0.014 A 
HETATM   11  C   UNL     1      21.960  46.122  47.278  1.00  0.00     0.030 A 
HETATM   12  N   UNL     1      23.273  44.170  48.161  1.00  0.00    -0.358 N 
HETATM   13  C   UNL     1      21.751  47.491  47.459  1.00  0.00     0.002 A 
HETATM   14  C   UNL     1      22.438  48.193  48.445  1.00  0.00     0.001 A 
HETATM   15  H   UNL     1      22.922  43.455  47.539  1.00  0.00     0.166 HD
HETATM   16  C   UNL     1      24.200  43.971  49.152  1.00  0.00     0.018 A 
HETATM   17  C   UNL     1      24.790  42.628  49.398  1.00  0.00     0.069 C 
ENDBRANCH   6   7
ENDBRANCH   2   5
BRANCH   1  18
HETATM   18  C   UNL     1      27.107  46.501  54.892  1.00  0.00     0.197 C 
BRANCH  18  19
HETATM   19  N   UNL     1      28.152  45.496  54.623  1.00  0.00    -0.284 NA
HETATM   20  H   UNL     1      28.624  45.684  53.739  1.00  0.00     0.128 HD
BRANCH  19  21
HETATM   21  C   UNL     1      29.075  45.373  55.685  1.00  0.00     0.016 A 
HETATM   22  C   UNL     1      30.079  44.380  55.679  1.00  0.00    -0.019 A 
HETATM   23  C   UNL     1      30.295  43.499  54.475  1.00  0.00     0.052 C 
HETATM   24  C   UNL     1      30.884  44.229  56.825  1.00  0.00     0.041 A 
HETATM   25 CL   UNL     1      32.108  43.008  56.925  1.00  0.00    -0.084 Cl
HETATM   26  C   UNL     1      30.720  45.059  57.937  1.00  0.00     0.024 A 
HETATM   27  C   UNL     1      29.742  46.048  57.929  1.00  0.00     0.003 A 
HETATM   28  C   UNL     1      28.920  46.197  56.813  1.00  0.00     0.024 A 
ENDBRANCH  19  21
ENDBRANCH  18  19
ENDBRANCH   1  18
TORSDOF 5
ENDMDL
MODEL 10
REMARK VINA RESULT:      -8.1      4.085      6.431
REMARK  5 active torsions:
REMARK  status: ('A' for Active; 'I' for Inactive)
REMARK    1  A    between atoms: C_8  and  N_9 
REMARK    2  A    between atoms: N_9  and  C_10 
REMARK    3  A    between atoms: C_10  and  C_11 
REMARK       I    between atoms: C_11  and  N_12 
REMARK    4  A    between atoms: N_12  and  N_13 
REMARK    5  A    between atoms: C_14  and  C_15 
ROOT
HETATM    1  C   UNL     1      23.436  48.242  49.571  1.00  0.00     0.250 C 
HETATM    2  N   UNL     1      22.194  47.670  49.290  1.00  0.00    -0.246 N 
HETATM    3  O   UNL     1      23.679  49.447  49.556  1.00  0.00    -0.270 OA
HETATM    4  H   UNL     1      22.019  46.720  49.603  1.00  0.00     0.192 HD
ENDROOT
BRANCH   2   5
HETATM    5  N   UNL     1      21.037  48.361  49.021  1.00  0.00    -0.184 NA
HETATM    6  C   UNL     1      19.904  47.839  49.371  1.00  0.00     0.153 C 
BRANCH   6   7
HETATM    7  C   UNL     1      18.661  48.534  49.073  1.00  0.00     0.018 A 
HETATM    8  C   UNL     1      18.329  49.922  49.241  1.00  0.00     0.004 A 
HETATM    9  C   UNL     1      17.011  50.090  48.816  1.00  0.00     0.043 A 
HETATM   10  C   UNL     1      19.020  51.058  49.716  1.00  0.00     0.014 A 
HETATM   11  C   UNL     1      16.352  51.327  48.842  1.00  0.00     0.030 A 
HETATM   12  N   UNL     1      16.558  48.862  48.400  1.00  0.00    -0.358 N 
HETATM   13  C   UNL     1      17.062  52.431  49.318  1.00  0.00     0.002 A 
HETATM   14  C   UNL     1      18.379  52.301  49.750  1.00  0.00     0.001 A 
HETATM   15  H   UNL     1      15.631  48.693  48.035  1.00  0.00     0.166 HD
HETATM   16  C   UNL     1      17.536  47.911  48.547  1.00  0.00     0.018 A 
HETATM   17  C   UNL     1      17.297  46.494  48.163  1.00  0.00     0.069 C 
ENDBRANCH   6   7
ENDBRANCH   2   5
BRANCH   1  18
HETATM   18  C   UNL     1      24.507  47.194  49.913  1.00  0.00     0.197 C 
BRANCH  18  19
HETATM   19  N   UNL     1      25.144  47.498  51.208  1.00  0.00    -0.284 NA
HETATM   20  H   UNL     1      24.464  47.855  51.877  1.00  0.00     0.128 HD
BRANCH  19  21
HETATM   21  C   UNL     1      25.857  46.398  51.734  1.00  0.00     0.016 A 
HETATM   22  C   UNL     1      26.299  46.378  53.076  1.00  0.00    -0.019 A 
HETATM   23  C   UNL     1      25.906  47.469  54.040  1.00  0.00     0.052 C 
HETATM   24  C   UNL     1      27.114  45.312  53.501  1.00  0.00     0.041 A 
HETATM   25 CL   UNL     1      27.738  45.229  55.114  1.00  0.00    -0.084 Cl
HETATM   26  C   UNL     1      27.459  44.276  52.630  1.00  0.00     0.024 A 
HETATM   27  C   UNL     1      27.007  44.292  51.315  1.00  0.00     0.003 A 
HETATM   28  C   UNL     1      26.218  45.351  50.869  1.00  0.00     0.024 A 
ENDBRANCH  19  21
ENDBRANCH  18  19
ENDBRANCH   1  18
TORSDOF 5
ENDMDL
