MODEL 1
REMARK VINA RESULT:      -9.2      0.000      0.000
REMARK  3 active torsions:
REMARK  status: ('A' for Active; 'I' for Inactive)
REMARK    1  A    between atoms: C_3  and  C_4 
REMARK    2  A    between atoms: C_11  and  N_12 
REMARK       I    between atoms: N_12  and  C_13 
REMARK       I    between atoms: C_13  and  N_14 
REMARK    3  A    between atoms: N_14  and  C_15 
ROOT
HETATM    1  C   UNL     1      26.532  46.917  49.783  1.00  0.00     0.001 A 
HETATM    2  C   UNL     1      26.973  45.597  49.752  1.00  0.00     0.016 A 
HETATM    3  C   UNL     1      26.760  44.763  50.858  1.00  0.00     0.021 A 
HETATM    4  C   UNL     1      26.115  45.249  52.012  1.00  0.00     0.049 A 
HETATM    5  C   UNL     1      25.695  46.585  52.034  1.00  0.00     0.030 A 
HETATM    6  C   UNL     1      25.893  47.410  50.922  1.00  0.00     0.002 A 
ENDROOT
BRANCH   4   7
HETATM    7  N   UNL     1      26.004  44.424  53.148  1.00  0.00    -0.308 N 
HETATM    8  C   UNL     1      26.924  44.004  54.070  1.00  0.00     0.325 C 
HETATM    9  N   UNL     1      28.127  44.648  54.075  1.00  0.00    -0.306 N 
HETATM   10  O   UNL     1      26.556  43.168  54.893  1.00  0.00    -0.247 OA
HETATM   11  H   UNL     1      28.294  45.333  53.351  1.00  0.00     0.171 HD
HETATM   12  H   UNL     1      25.070  44.126  53.411  1.00  0.00     0.170 HD
BRANCH   9  13
HETATM   13  C   UNL     1      29.151  44.565  55.044  1.00  0.00     0.075 A 
HETATM   14  C   UNL     1      29.179  45.566  56.027  1.00  0.00     0.146 A 
HETATM   15  F   UNL     1      28.273  46.557  55.981  1.00  0.00    -0.204 F 
HETATM   16  C   UNL     1      30.116  45.560  57.053  1.00  0.00     0.086 A 
HETATM   17  C   UNL     1      31.039  44.527  57.103  1.00  0.00     0.119 A 
HETATM   18  F   UNL     1      31.939  44.494  58.093  1.00  0.00    -0.206 F 
HETATM   19  C   UNL     1      31.039  43.519  56.143  1.00  0.00     0.044 A 
HETATM   20  C   UNL     1      30.098  43.541  55.107  1.00  0.00     0.036 A 
ENDBRANCH   9  13
ENDBRANCH   4   7
BRANCH   3  21
HETATM   21  C   UNL     1      27.178  43.346  50.726  1.00  0.00     0.089 A 
HETATM   22  N   UNL     1      28.190  42.911  51.411  1.00  0.00    -0.171 NA
HETATM   23  N   UNL     1      28.513  41.593  51.250  1.00  0.00    -0.243 N 
HETATM   24  C   UNL     1      27.862  40.698  50.439  1.00  0.00     0.261 A 
HETATM   25  H   UNL     1      29.294  41.245  51.796  1.00  0.00     0.192 HD
HETATM   26  O   UNL     1      28.180  39.518  50.344  1.00  0.00    -0.267 OA
HETATM   27  C   UNL     1      26.735  41.239  49.657  1.00  0.00     0.078 A 
HETATM   28  C   UNL     1      26.394  42.524  49.772  1.00  0.00     0.040 A 
ENDBRANCH   3  21
TORSDOF 3
ENDMDL
MODEL 2
REMARK VINA RESULT:      -8.9      3.742      7.197
REMARK  3 active torsions:
REMARK  status: ('A' for Active; 'I' for Inactive)
REMARK    1  A    between atoms: C_3  and  C_4 
REMARK    2  A    between atoms: C_11  and  N_12 
REMARK       I    between atoms: N_12  and  C_13 
REMARK       I    between atoms: C_13  and  N_14 
REMARK    3  A    between atoms: N_14  and  C_15 
ROOT
HETATM    1  C   UNL     1      28.363  41.868  52.072  1.00  0.00     0.001 A 
HETATM    2  C   UNL     1      28.876  42.619  53.127  1.00  0.00     0.016 A 
HETATM    3  C   UNL     1      28.217  43.784  53.540  1.00  0.00     0.021 A 
HETATM    4  C   UNL     1      27.044  44.215  52.892  1.00  0.00     0.049 A 
HETATM    5  C   UNL     1      26.552  43.459  51.821  1.00  0.00     0.030 A 
HETATM    6  C   UNL     1      27.203  42.287  51.422  1.00  0.00     0.002 A 
ENDROOT
BRANCH   4   7
HETATM    7  N   UNL     1      26.456  45.442  53.256  1.00  0.00    -0.308 N 
HETATM    8  C   UNL     1      26.285  46.616  52.574  1.00  0.00     0.325 C 
HETATM    9  N   UNL     1      26.491  46.578  51.225  1.00  0.00    -0.306 N 
HETATM   10  O   UNL     1      25.846  47.576  53.204  1.00  0.00    -0.247 OA
HETATM   11  H   UNL     1      26.835  45.714  50.828  1.00  0.00     0.171 HD
HETATM   12  H   UNL     1      25.994  45.481  54.160  1.00  0.00     0.170 HD
BRANCH   9  13
HETATM   13  C   UNL     1      26.177  47.571  50.272  1.00  0.00     0.075 A 
HETATM   14  C   UNL     1      24.831  47.680  49.888  1.00  0.00     0.146 A 
HETATM   15  F   UNL     1      23.929  46.830  50.406  1.00  0.00    -0.204 F 
HETATM   16  C   UNL     1      24.402  48.649  48.990  1.00  0.00     0.086 A 
HETATM   17  C   UNL     1      25.334  49.533  48.470  1.00  0.00     0.119 A 
HETATM   18  F   UNL     1      24.938  50.484  47.616  1.00  0.00    -0.206 F 
HETATM   19  C   UNL     1      26.677  49.451  48.828  1.00  0.00     0.044 A 
HETATM   20  C   UNL     1      27.101  48.465  49.726  1.00  0.00     0.036 A 
ENDBRANCH   9  13
ENDBRANCH   4   7
BRANCH   3  21
HETATM   21  C   UNL     1      28.768  44.489  54.723  1.00  0.00     0.089 A 
HETATM   22  N   UNL     1      28.089  45.449  55.269  1.00  0.00    -0.171 NA
HETATM   23  N   UNL     1      28.652  46.047  56.362  1.00  0.00    -0.243 N 
HETATM   24  C   UNL     1      29.857  45.720  56.928  1.00  0.00     0.261 A 
HETATM   25  H   UNL     1      28.115  46.788  56.802  1.00  0.00     0.192 HD
HETATM   26  O   UNL     1      30.310  46.276  57.922  1.00  0.00    -0.267 OA
HETATM   27  C   UNL     1      30.610  44.642  56.260  1.00  0.00     0.078 A 
HETATM   28  C   UNL     1      30.106  44.040  55.181  1.00  0.00     0.040 A 
ENDBRANCH   3  21
TORSDOF 3
ENDMDL
MODEL 3
REMARK VINA RESULT:      -8.8      4.354      6.390
REMARK  3 active torsions:
REMARK  status: ('A' for Active; 'I' for Inactive)
REMARK    1  A    between atoms: C_3  and  C_4 
REMARK    2  A    between atoms: C_11  and  N_12 
REMARK       I    between atoms: N_12  and  C_13 
REMARK       I    between atoms: C_13  and  N_14 
REMARK    3  A    between atoms: N_14  and  C_15 
ROOT
HETATM    1  C   UNL     1      26.516  49.859  48.269  1.00  0.00     0.001 A 
HETATM    2  C   UNL     1      25.125  49.805  48.321  1.00  0.00     0.016 A 
HETATM    3  C   UNL     1      24.494  48.840  49.116  1.00  0.00     0.021 A 
HETATM    4  C   UNL     1      25.250  47.910  49.856  1.00  0.00     0.049 A 
HETATM    5  C   UNL     1      26.647  47.966  49.777  1.00  0.00     0.030 A 
HETATM    6  C   UNL     1      27.275  48.941  48.995  1.00  0.00     0.002 A 
ENDROOT
BRANCH   4   7
HETATM    7  N   UNL     1      24.595  46.885  50.567  1.00  0.00    -0.308 N 
HETATM    8  C   UNL     1      25.067  45.814  51.274  1.00  0.00     0.325 C 
HETATM    9  N   UNL     1      26.398  45.814  51.575  1.00  0.00    -0.306 N 
HETATM   10  O   UNL     1      24.241  45.001  51.685  1.00  0.00    -0.247 OA
HETATM   11  H   UNL     1      26.965  46.557  51.189  1.00  0.00     0.171 HD
HETATM   12  H   UNL     1      23.586  46.960  50.658  1.00  0.00     0.170 HD
BRANCH   9  13
HETATM   13  C   UNL     1      27.087  44.959  52.464  1.00  0.00     0.075 A 
HETATM   14  C   UNL     1      27.752  43.860  51.901  1.00  0.00     0.146 A 
HETATM   15  F   UNL     1      27.677  43.654  50.575  1.00  0.00    -0.204 F 
HETATM   16  C   UNL     1      28.495  42.978  52.675  1.00  0.00     0.086 A 
HETATM   17  C   UNL     1      28.582  43.203  54.040  1.00  0.00     0.119 A 
HETATM   18  F   UNL     1      29.306  42.374  54.801  1.00  0.00    -0.206 F 
HETATM   19  C   UNL     1      27.931  44.283  54.630  1.00  0.00     0.044 A 
HETATM   20  C   UNL     1      27.177  45.160  53.843  1.00  0.00     0.036 A 
ENDBRANCH   9  13
ENDBRANCH   4   7
BRANCH   3  21
HETATM   21  C   UNL     1      23.014  48.892  49.195  1.00  0.00     0.089 A 
HETATM   22  N   UNL     1      22.325  47.808  49.013  1.00  0.00    -0.171 NA
HETATM   23  N   UNL     1      20.967  47.927  49.110  1.00  0.00    -0.243 N 
HETATM   24  C   UNL     1      20.277  49.080  49.387  1.00  0.00     0.261 A 
HETATM   25  H   UNL     1      20.425  47.078  48.985  1.00  0.00     0.192 HD
HETATM   26  O   UNL     1      19.056  49.129  49.483  1.00  0.00    -0.267 OA
HETATM   27  C   UNL     1      21.095  50.294  49.560  1.00  0.00     0.078 A 
HETATM   28  C   UNL     1      22.424  50.228  49.459  1.00  0.00     0.040 A 
ENDBRANCH   3  21
TORSDOF 3
ENDMDL
MODEL 4
REMARK VINA RESULT:      -8.7      2.198      4.171
REMARK  3 active torsions:
REMARK  status: ('A' for Active; 'I' for Inactive)
REMARK    1  A    between atoms: C_3  and  C_4 
REMARK    2  A    between atoms: C_11  and  N_12 
REMARK       I    between atoms: N_12  and  C_13 
REMARK       I    between atoms: C_13  and  N_14 
REMARK    3  A    between atoms: N_14  and  C_15 
ROOT
HETATM    1  C   UNL     1      27.532  41.470  49.120  1.00  0.00     0.001 A 
HETATM    2  C   UNL     1      26.876  42.699  49.100  1.00  0.00     0.016 A 
HETATM    3  C   UNL     1      26.376  43.243  50.290  1.00  0.00     0.021 A 
HETATM    4  C   UNL     1      26.517  42.555  51.511  1.00  0.00     0.049 A 
HETATM    5  C   UNL     1      27.163  41.312  51.510  1.00  0.00     0.030 A 
HETATM    6  C   UNL     1      27.676  40.779  50.323  1.00  0.00     0.002 A 
ENDROOT
BRANCH   4   7
HETATM    7  N   UNL     1      25.919  43.072  52.676  1.00  0.00    -0.308 N 
HETATM    8  C   UNL     1      26.447  43.536  53.850  1.00  0.00     0.325 C 
HETATM    9  N   UNL     1      27.790  43.783  53.865  1.00  0.00    -0.306 N 
HETATM   10  O   UNL     1      25.660  43.807  54.755  1.00  0.00    -0.247 OA
HETATM   11  H   UNL     1      28.320  43.531  53.042  1.00  0.00     0.171 HD
HETATM   12  H   UNL     1      24.914  43.212  52.654  1.00  0.00     0.170 HD
BRANCH   9  13
HETATM   13  C   UNL     1      28.536  44.459  54.854  1.00  0.00     0.075 A 
HETATM   14  C   UNL     1      29.793  43.927  55.177  1.00  0.00     0.146 A 
HETATM   15  F   UNL     1      30.206  42.802  54.570  1.00  0.00    -0.204 F 
HETATM   16  C   UNL     1      30.630  44.534  56.105  1.00  0.00     0.086 A 
HETATM   17  C   UNL     1      30.205  45.702  56.718  1.00  0.00     0.119 A 
HETATM   18  F   UNL     1      31.003  46.311  57.603  1.00  0.00    -0.206 F 
HETATM   19  C   UNL     1      28.963  46.255  56.422  1.00  0.00     0.044 A 
HETATM   20  C   UNL     1      28.123  45.630  55.493  1.00  0.00     0.036 A 
ENDBRANCH   9  13
ENDBRANCH   4   7
BRANCH   3  21
HETATM   21  C   UNL     1      25.765  44.592  50.212  1.00  0.00     0.089 A 
HETATM   22  N   UNL     1      24.489  44.728  50.398  1.00  0.00    -0.171 NA
HETATM   23  N   UNL     1      23.995  46.000  50.322  1.00  0.00    -0.243 N 
HETATM   24  C   UNL     1      24.725  47.135  50.076  1.00  0.00     0.261 A 
HETATM   25  H   UNL     1      22.999  46.112  50.484  1.00  0.00     0.192 HD
HETATM   26  O   UNL     1      24.236  48.258  50.038  1.00  0.00    -0.267 OA
HETATM   27  C   UNL     1      26.167  46.933  49.843  1.00  0.00     0.078 A 
HETATM   28  C   UNL     1      26.691  45.707  49.893  1.00  0.00     0.040 A 
ENDBRANCH   3  21
TORSDOF 3
ENDMDL
MODEL 5
REMARK VINA RESULT:      -8.7      3.230      4.643
REMARK  3 active torsions:
REMARK  status: ('A' for Active; 'I' for Inactive)
REMARK    1  A    between atoms: C_3  and  C_4 
REMARK    2  A    between atoms: C_11  and  N_12 
REMARK       I    between atoms: N_12  and  C_13 
REMARK       I    between atoms: C_13  and  N_14 
REMARK    3  A    between atoms: N_14  and  C_15 
ROOT
HETATM    1  C   UNL     1      24.208  43.650  50.016  1.00  0.00     0.001 A 
HETATM    2  C   UNL     1      24.580  44.893  49.509  1.00  0.00     0.016 A 
HETATM    3  C   UNL     1      25.246  45.812  50.330  1.00  0.00     0.021 A 
HETATM    4  C   UNL     1      25.534  45.500  51.673  1.00  0.00     0.049 A 
HETATM    5  C   UNL     1      25.135  44.253  52.173  1.00  0.00     0.030 A 
HETATM    6  C   UNL     1      24.486  43.332  51.345  1.00  0.00     0.002 A 
ENDROOT
BRANCH   4   7
HETATM    7  N   UNL     1      26.112  46.476  52.508  1.00  0.00    -0.308 N 
HETATM    8  C   UNL     1      26.979  46.383  53.562  1.00  0.00     0.325 C 
HETATM    9  N   UNL     1      27.610  45.185  53.736  1.00  0.00    -0.306 N 
HETATM   10  O   UNL     1      27.211  47.413  54.193  1.00  0.00    -0.247 OA
HETATM   11  H   UNL     1      27.339  44.422  53.132  1.00  0.00     0.171 HD
HETATM   12  H   UNL     1      25.937  47.447  52.270  1.00  0.00     0.170 HD
BRANCH   9  13
HETATM   13  C   UNL     1      28.694  44.893  54.592  1.00  0.00     0.075 A 
HETATM   14  C   UNL     1      29.370  43.683  54.372  1.00  0.00     0.146 A 
HETATM   15  F   UNL     1      28.942  42.859  53.402  1.00  0.00    -0.204 F 
HETATM   16  C   UNL     1      30.476  43.313  55.126  1.00  0.00     0.086 A 
HETATM   17  C   UNL     1      30.922  44.174  56.116  1.00  0.00     0.119 A 
HETATM   18  F   UNL     1      31.997  43.844  56.844  1.00  0.00    -0.206 F 
HETATM   19  C   UNL     1      30.274  45.381  56.362  1.00  0.00     0.044 A 
HETATM   20  C   UNL     1      29.154  45.739  55.603  1.00  0.00     0.036 A 
ENDBRANCH   9  13
ENDBRANCH   4   7
BRANCH   3  21
HETATM   21  C   UNL     1      25.690  47.081  49.704  1.00  0.00     0.089 A 
HETATM   22  N   UNL     1      26.946  47.256  49.436  1.00  0.00    -0.171 NA
HETATM   23  N   UNL     1      27.283  48.444  48.849  1.00  0.00    -0.243 N 
HETATM   24  C   UNL     1      26.415  49.453  48.517  1.00  0.00     0.261 A 
HETATM   25  H   UNL     1      28.263  48.578  48.623  1.00  0.00     0.192 HD
HETATM   26  O   UNL     1      26.766  50.494  47.973  1.00  0.00    -0.267 OA
HETATM   27  C   UNL     1      25.000  49.225  48.864  1.00  0.00     0.078 A 
HETATM   28  C   UNL     1      24.628  48.086  49.451  1.00  0.00     0.040 A 
ENDBRANCH   3  21
TORSDOF 3
ENDMDL
MODEL 6
REMARK VINA RESULT:      -8.5      2.548      5.751
REMARK  3 active torsions:
REMARK  status: ('A' for Active; 'I' for Inactive)
REMARK    1  A    between atoms: C_3  and  C_4 
REMARK    2  A    between atoms: C_11  and  N_12 
REMARK       I    between atoms: N_12  and  C_13 
REMARK       I    between atoms: C_13  and  N_14 
REMARK    3  A    between atoms: N_14  and  C_15 
ROOT
HETATM    1  C   UNL     1      30.849  44.287  55.235  1.00  0.00     0.001 A 
HETATM    2  C   UNL     1      30.228  43.401  54.357  1.00  0.00     0.016 A 
HETATM    3  C   UNL     1      28.831  43.381  54.259  1.00  0.00     0.021 A 
HETATM    4  C   UNL     1      28.041  44.239  55.049  1.00  0.00     0.049 A 
HETATM    5  C   UNL     1      28.681  45.109  55.940  1.00  0.00     0.030 A 
HETATM    6  C   UNL     1      30.077  45.139  56.024  1.00  0.00     0.002 A 
ENDROOT
BRANCH   4   7
HETATM    7  N   UNL     1      26.638  44.130  55.008  1.00  0.00    -0.308 N 
HETATM    8  C   UNL     1      25.701  44.659  54.162  1.00  0.00     0.325 C 
HETATM    9  N   UNL     1      26.163  45.206  52.999  1.00  0.00    -0.306 N 
HETATM   10  O   UNL     1      24.519  44.494  54.455  1.00  0.00    -0.247 OA
HETATM   11  H   UNL     1      27.164  45.260  52.873  1.00  0.00     0.171 HD
HETATM   12  H   UNL     1      26.206  43.490  55.666  1.00  0.00     0.170 HD
BRANCH   9  13
HETATM   13  C   UNL     1      25.412  45.612  51.874  1.00  0.00     0.075 A 
HETATM   14  C   UNL     1      25.584  46.935  51.440  1.00  0.00     0.146 A 
HETATM   15  F   UNL     1      26.410  47.748  52.119  1.00  0.00    -0.204 F 
HETATM   16  C   UNL     1      24.928  47.430  50.320  1.00  0.00     0.086 A 
HETATM   17  C   UNL     1      24.088  46.583  49.614  1.00  0.00     0.119 A 
HETATM   18  F   UNL     1      23.460  47.035  48.522  1.00  0.00    -0.206 F 
HETATM   19  C   UNL     1      23.894  45.265  50.019  1.00  0.00     0.044 A 
HETATM   20  C   UNL     1      24.551  44.780  51.155  1.00  0.00     0.036 A 
ENDBRANCH   9  13
ENDBRANCH   4   7
BRANCH   3  21
HETATM   21  C   UNL     1      28.238  42.477  53.244  1.00  0.00     0.089 A 
HETATM   22  N   UNL     1      27.714  41.351  53.619  1.00  0.00    -0.171 NA
HETATM   23  N   UNL     1      27.176  40.572  52.633  1.00  0.00    -0.243 N 
HETATM   24  C   UNL     1      27.137  40.877  51.296  1.00  0.00     0.261 A 
HETATM   25  H   UNL     1      26.750  39.698  52.925  1.00  0.00     0.192 HD
HETATM   26  O   UNL     1      26.624  40.151  50.452  1.00  0.00    -0.267 OA
HETATM   27  C   UNL     1      27.768  42.152  50.909  1.00  0.00     0.078 A 
HETATM   28  C   UNL     1      28.319  42.938  51.836  1.00  0.00     0.040 A 
ENDBRANCH   3  21
TORSDOF 3
ENDMDL
MODEL 7
REMARK VINA RESULT:      -8.4      6.937     10.425
REMARK  3 active torsions:
REMARK  status: ('A' for Active; 'I' for Inactive)
REMARK    1  A    between atoms: C_3  and  C_4 
REMARK    2  A    between atoms: C_11  and  N_12 
REMARK       I    between atoms: N_12  and  C_13 
REMARK       I    between atoms: C_13  and  N_14 
REMARK    3  A    between atoms: N_14  and  C_15 
ROOT
HETATM    1  C   UNL     1      26.446  49.692  48.381  1.00  0.00     0.001 A 
HETATM    2  C   UNL     1      26.267  48.651  49.289  1.00  0.00     0.016 A 
HETATM    3  C   UNL     1      24.977  48.177  49.562  1.00  0.00     0.021 A 
HETATM    4  C   UNL     1      23.852  48.752  48.938  1.00  0.00     0.049 A 
HETATM    5  C   UNL     1      24.049  49.810  48.043  1.00  0.00     0.030 A 
HETATM    6  C   UNL     1      25.339  50.270  47.759  1.00  0.00     0.002 A 
ENDROOT
BRANCH   4   7
HETATM    7  N   UNL     1      22.559  48.329  49.304  1.00  0.00    -0.308 N 
HETATM    8  C   UNL     1      21.325  48.889  49.118  1.00  0.00     0.325 C 
HETATM    9  N   UNL     1      21.246  49.921  48.227  1.00  0.00    -0.306 N 
HETATM   10  O   UNL     1      20.370  48.346  49.670  1.00  0.00    -0.247 OA
HETATM   11  H   UNL     1      22.109  50.259  47.826  1.00  0.00     0.171 HD
HETATM   12  H   UNL     1      22.477  47.406  49.719  1.00  0.00     0.170 HD
BRANCH   9  13
HETATM   13  C   UNL     1      20.083  50.519  47.695  1.00  0.00     0.075 A 
HETATM   14  C   UNL     1      19.539  51.597  48.409  1.00  0.00     0.146 A 
HETATM   15  F   UNL     1      20.115  51.981  49.560  1.00  0.00    -0.204 F 
HETATM   16  C   UNL     1      18.421  52.287  47.956  1.00  0.00     0.086 A 
HETATM   17  C   UNL     1      17.839  51.897  46.760  1.00  0.00     0.119 A 
HETATM   18  F   UNL     1      16.772  52.559  46.298  1.00  0.00    -0.206 F 
HETATM   19  C   UNL     1      18.353  50.830  46.028  1.00  0.00     0.044 A 
HETATM   20  C   UNL     1      19.472  50.135  46.499  1.00  0.00     0.036 A 
ENDBRANCH   9  13
ENDBRANCH   4   7
BRANCH   3  21
HETATM   21  C   UNL     1      24.863  47.011  50.471  1.00  0.00     0.089 A 
HETATM   22  N   UNL     1      24.107  46.011  50.138  1.00  0.00    -0.171 NA
HETATM   23  N   UNL     1      24.058  44.967  51.018  1.00  0.00    -0.243 N 
HETATM   24  C   UNL     1      24.736  44.882  52.207  1.00  0.00     0.261 A 
HETATM   25  H   UNL     1      23.481  44.175  50.753  1.00  0.00     0.192 HD
HETATM   26  O   UNL     1      24.673  43.911  52.953  1.00  0.00    -0.267 OA
HETATM   27  C   UNL     1      25.562  46.051  52.561  1.00  0.00     0.078 A 
HETATM   28  C   UNL     1      25.629  47.100  51.739  1.00  0.00     0.040 A 
ENDBRANCH   3  21
TORSDOF 3
ENDMDL
MODEL 8
REMARK VINA RESULT:      -8.3      3.917      7.167
REMARK  3 active torsions:
REMARK  status: ('A' for Active; 'I' for Inactive)
REMARK    1  A    between atoms: C_3  and  C_4 
REMARK    2  A    between atoms: C_11  and  N_12 
REMARK       I    between atoms: N_12  and  C_13 
REMARK       I    between atoms: C_13  and  N_14 
REMARK    3  A    between atoms: N_14  and  C_15 
ROOT
HETATM    1  C   UNL     1      29.958  43.677  54.823  1.00  0.00     0.001 A 
HETATM    2  C   UNL     1      29.112  44.532  54.120  1.00  0.00     0.016 A 
HETATM    3  C   UNL     1      28.053  44.004  53.370  1.00  0.00     0.021 A 
HETATM    4  C   UNL     1      27.839  42.614  53.307  1.00  0.00     0.049 A 
HETATM    5  C   UNL     1      28.709  41.768  54.005  1.00  0.00     0.030 A 
HETATM    6  C   UNL     1      29.756  42.299  54.766  1.00  0.00     0.002 A 
ENDROOT
BRANCH   4   7
HETATM    7  N   UNL     1      26.832  42.100  52.466  1.00  0.00    -0.308 N 
HETATM    8  C   UNL     1      26.886  41.430  51.275  1.00  0.00     0.325 C 
HETATM    9  N   UNL     1      28.104  40.940  50.900  1.00  0.00    -0.306 N 
HETATM   10  O   UNL     1      25.821  41.218  50.698  1.00  0.00    -0.247 OA
HETATM   11  H   UNL     1      28.899  41.172  51.478  1.00  0.00     0.171 HD
HETATM   12  H   UNL     1      25.877  42.150  52.807  1.00  0.00     0.170 HD
BRANCH   9  13
HETATM   13  C   UNL     1      28.390  40.040  49.850  1.00  0.00     0.075 A 
HETATM   14  C   UNL     1      29.114  38.885  50.182  1.00  0.00     0.146 A 
HETATM   15  F   UNL     1      29.524  38.708  51.449  1.00  0.00    -0.204 F 
HETATM   16  C   UNL     1      29.415  37.912  49.238  1.00  0.00     0.086 A 
HETATM   17  C   UNL     1      28.978  38.093  47.935  1.00  0.00     0.119 A 
HETATM   18  F   UNL     1      29.243  37.159  47.014  1.00  0.00    -0.206 F 
HETATM   19  C   UNL     1      28.259  39.228  47.572  1.00  0.00     0.044 A 
HETATM   20  C   UNL     1      27.970  40.207  48.528  1.00  0.00     0.036 A 
ENDBRANCH   9  13
ENDBRANCH   4   7
BRANCH   3  21
HETATM   21  C   UNL     1      27.140  44.973  52.715  1.00  0.00     0.089 A 
HETATM   22  N   UNL     1      26.871  44.845  51.453  1.00  0.00    -0.171 NA
HETATM   23  N   UNL     1      26.015  45.765  50.917  1.00  0.00    -0.243 N 
HETATM   24  C   UNL     1      25.416  46.798  51.594  1.00  0.00     0.261 A 
HETATM   25  H   UNL     1      25.788  45.659  49.934  1.00  0.00     0.192 HD
HETATM   26  O   UNL     1      24.637  47.587  51.070  1.00  0.00    -0.267 OA
HETATM   27  C   UNL     1      25.770  46.924  53.019  1.00  0.00     0.078 A 
HETATM   28  C   UNL     1      26.614  46.056  53.581  1.00  0.00     0.040 A 
ENDBRANCH   3  21
TORSDOF 3
ENDMDL
MODEL 9
REMARK VINA RESULT:      -8.3      3.369      6.854
REMARK  3 active torsions:
REMARK  status: ('A' for Active; 'I' for Inactive)
REMARK    1  A    between atoms: C_3  and  C_4 
REMARK    2  A    between atoms: C_11  and  N_12 
REMARK       I    between atoms: N_12  and  C_13 
REMARK       I    between atoms: C_13  and  N_14 
REMARK    3  A    between atoms: N_14  and  C_15 
ROOT
HETATM    1  C   UNL     1      26.566  47.585  54.114  1.00  0.00     0.001 A 
HETATM    2  C   UNL     1      27.534  47.155  55.018  1.00  0.00     0.016 A 
HETATM    3  C   UNL     1      27.897  45.802  55.061  1.00  0.00     0.021 A 
HETATM    4  C   UNL     1      27.282  44.865  54.208  1.00  0.00     0.049 A 
HETATM    5  C   UNL     1      26.297  45.312  53.318  1.00  0.00     0.030 A 
HETATM    6  C   UNL     1      25.950  46.665  53.266  1.00  0.00     0.002 A 
ENDROOT
BRANCH   4   7
HETATM    7  N   UNL     1      27.588  43.496  54.339  1.00  0.00    -0.308 N 
HETATM    8  C   UNL     1      27.387  42.428  53.507  1.00  0.00     0.325 C 
HETATM    9  N   UNL     1      27.046  42.710  52.216  1.00  0.00    -0.306 N 
HETATM   10  O   UNL     1      27.645  41.311  53.952  1.00  0.00    -0.247 OA
HETATM   11  H   UNL     1      26.883  43.678  51.976  1.00  0.00     0.171 HD
HETATM   12  H   UNL     1      28.125  43.220  55.155  1.00  0.00     0.170 HD
BRANCH   9  13
HETATM   13  C   UNL     1      26.998  41.822  51.119  1.00  0.00     0.075 A 
HETATM   14  C   UNL     1      25.756  41.661  50.486  1.00  0.00     0.146 A 
HETATM   15  F   UNL     1      24.685  42.317  50.963  1.00  0.00    -0.204 F 
HETATM   16  C   UNL     1      25.602  40.847  49.372  1.00  0.00     0.086 A 
HETATM   17  C   UNL     1      26.712  40.184  48.874  1.00  0.00     0.119 A 
HETATM   18  F   UNL     1      26.588  39.407  47.791  1.00  0.00    -0.206 F 
HETATM   19  C   UNL     1      27.959  40.320  49.480  1.00  0.00     0.044 A 
HETATM   20  C   UNL     1      28.101  41.136  50.608  1.00  0.00     0.036 A 
ENDBRANCH   9  13
ENDBRANCH   4   7
BRANCH   3  21
HETATM   21  C   UNL     1      28.994  45.425  55.985  1.00  0.00     0.089 A 
HETATM   22  N   UNL     1      29.923  44.617  55.579  1.00  0.00    -0.171 NA
HETATM   23  N   UNL     1      30.908  44.321  56.479  1.00  0.00    -0.243 N 
HETATM   24  C   UNL     1      31.002  44.806  57.759  1.00  0.00     0.261 A 
HETATM   25  H   UNL     1      31.646  43.702  56.159  1.00  0.00     0.192 HD
HETATM   26  O   UNL     1      31.920  44.525  58.522  1.00  0.00    -0.267 OA
HETATM   27  C   UNL     1      29.912  45.700  58.190  1.00  0.00     0.078 A 
HETATM   28  C   UNL     1      28.921  46.004  57.349  1.00  0.00     0.040 A 
ENDBRANCH   3  21
TORSDOF 3
ENDMDL
MODEL 10
REMARK VINA RESULT:      -7.9     13.206     14.157
REMARK  3 active torsions:
REMARK  status: ('A' for Active; 'I' for Inactive)
REMARK    1  A    between atoms: C_3  and  C_4 
REMARK    2  A    between atoms: C_11  and  N_12 
REMARK       I    between atoms: N_12  and  C_13 
REMARK       I    between atoms: C_13  and  N_14 
REMARK    3  A    between atoms: N_14  and  C_15 
ROOT
HETATM    1  C   UNL     1      29.009  52.776  38.721  1.00  0.00     0.001 A 
HETATM    2  C   UNL     1      29.103  51.386  38.703  1.00  0.00     0.016 A 
HETATM    3  C   UNL     1      29.499  50.699  39.858  1.00  0.00     0.021 A 
HETATM    4  C   UNL     1      29.818  51.398  41.038  1.00  0.00     0.049 A 
HETATM    5  C   UNL     1      29.737  52.796  41.033  1.00  0.00     0.030 A 
HETATM    6  C   UNL     1      29.324  53.478  39.884  1.00  0.00     0.002 A 
ENDROOT
BRANCH   4   7
HETATM    7  N   UNL     1      30.312  50.694  42.154  1.00  0.00    -0.308 N 
HETATM    8  C   UNL     1      31.584  50.452  42.596  1.00  0.00     0.325 C 
HETATM    9  N   UNL     1      32.583  51.189  42.028  1.00  0.00    -0.306 N 
HETATM   10  O   UNL     1      31.714  49.683  43.546  1.00  0.00    -0.247 OA
HETATM   11  H   UNL     1      32.335  51.803  41.265  1.00  0.00     0.171 HD
HETATM   12  H   UNL     1      29.628  50.351  42.821  1.00  0.00     0.170 HD
BRANCH   9  13
HETATM   13  C   UNL     1      33.928  51.294  42.445  1.00  0.00     0.075 A 
HETATM   14  C   UNL     1      34.889  50.633  41.665  1.00  0.00     0.146 A 
HETATM   15  F   UNL     1      34.492  49.918  40.600  1.00  0.00    -0.204 F 
HETATM   16  C   UNL     1      36.245  50.704  41.959  1.00  0.00     0.086 A 
HETATM   17  C   UNL     1      36.650  51.456  43.050  1.00  0.00     0.119 A 
HETATM   18  F   UNL     1      37.954  51.549  43.340  1.00  0.00    -0.206 F 
HETATM   19  C   UNL     1      35.722  52.121  43.846  1.00  0.00     0.044 A 
HETATM   20  C   UNL     1      34.358  52.036  43.547  1.00  0.00     0.036 A 
ENDBRANCH   9  13
ENDBRANCH   4   7
BRANCH   3  21
HETATM   21  C   UNL     1      29.496  49.217  39.796  1.00  0.00     0.089 A 
HETATM   22  N   UNL     1      28.672  48.547  40.541  1.00  0.00    -0.171 NA
HETATM   23  N   UNL     1      28.715  47.186  40.426  1.00  0.00    -0.243 N 
HETATM   24  C   UNL     1      29.542  46.474  39.594  1.00  0.00     0.261 A 
HETATM   25  H   UNL     1      28.060  46.660  40.995  1.00  0.00     0.192 HD
HETATM   26  O   UNL     1      29.528  45.251  39.514  1.00  0.00    -0.267 OA
HETATM   27  C   UNL     1      30.482  47.272  38.785  1.00  0.00     0.078 A 
HETATM   28  C   UNL     1      30.485  48.603  38.876  1.00  0.00     0.040 A 
ENDBRANCH   3  21
TORSDOF 3
ENDMDL
