MODEL 1
REMARK VINA RESULT:      -8.7      0.000      0.000
REMARK  7 active torsions:
REMARK  status: ('A' for Active; 'I' for Inactive)
REMARK    1  A    between atoms: C_2  and  C_3 
REMARK    2  A    between atoms: C_6  and  C_7 
REMARK    3  A    between atoms: C_7  and  N_8 
REMARK    4  A    between atoms: C_7  and  C_25 
REMARK    5  A    between atoms: N_8  and  C_11 
REMARK    6  A    between atoms: C_11  and  C_12 
REMARK       I    between atoms: C_12  and  N_13 
REMARK    7  A    between atoms: N_13  and  C_14 
ROOT
HETATM    1  N   UNL     1      22.843  47.202  48.147  1.00  0.00    -0.054 N 
HETATM    2  H   UNL     1      22.063  47.460  47.521  1.00  0.00     0.278 HD
HETATM    3  H   UNL     1      23.624  47.028  47.508  1.00  0.00     0.278 HD
ENDROOT
BRANCH   1   4
HETATM    4  C   UNL     1      23.150  48.351  49.050  1.00  0.00     0.259 C 
BRANCH   4   5
HETATM    5  C   UNL     1      22.121  49.461  48.922  1.00  0.00    -0.023 A 
HETATM    6  C   UNL     1      21.370  49.568  47.738  1.00  0.00     0.010 A 
HETATM    7  C   UNL     1      20.391  50.555  47.596  1.00  0.00     0.007 A 
HETATM    8  C   UNL     1      20.136  51.456  48.633  1.00  0.00    -0.059 A 
HETATM    9  C   UNL     1      20.874  51.355  49.816  1.00  0.00     0.007 A 
HETATM   10  C   UNL     1      21.857  50.372  49.960  1.00  0.00     0.010 A 
BRANCH   8  11
HETATM   11  C   UNL     1      19.045  52.490  48.495  1.00  0.00     0.034 C 
HETATM   12  C   UNL     1      17.870  52.198  49.418  1.00  0.00     0.010 C 
ENDBRANCH   8  11
ENDBRANCH   4   5
BRANCH   4  13
HETATM   13  C   UNL     1      24.566  48.842  48.863  1.00  0.00     0.017 A 
HETATM   14  S   UNL     1      25.847  48.033  49.679  1.00  0.00    -0.104 SA
HETATM   15  C   UNL     1      27.025  49.066  49.003  1.00  0.00     0.050 A 
HETATM   16  C   UNL     1      26.468  50.006  48.167  1.00  0.00     0.008 A 
HETATM   17  C   UNL     1      25.050  49.878  48.084  1.00  0.00     0.017 A 
ENDBRANCH   4  13
ENDBRANCH   1   4
BRANCH   1  18
HETATM   18  C   UNL     1      22.465  45.912  48.829  1.00  0.00     0.336 C 
BRANCH  18  19
HETATM   19  C   UNL     1      23.716  45.219  49.366  1.00  0.00     0.248 C 
HETATM   20  N   UNL     1      23.798  45.186  50.743  1.00  0.00    -0.326 N 
HETATM   21  H   UNL     1      23.071  45.644  51.284  1.00  0.00     0.169 HD
HETATM   22  O   UNL     1      24.520  44.771  48.550  1.00  0.00    -0.271 OA
BRANCH  20  23
HETATM   23  C   UNL     1      24.819  44.590  51.520  1.00  0.00     0.037 A 
HETATM   24  C   UNL     1      25.341  43.315  51.271  1.00  0.00     0.061 A 
HETATM   25  C   UNL     1      26.327  42.864  52.122  1.00  0.00     0.065 A 
HETATM   26  C   UNL     1      26.804  43.624  53.186  1.00  0.00     0.063 A 
HETATM   27  N   UNL     1      27.013  41.654  52.121  1.00  0.00    -0.306 N 
HETATM   28  N   UNL     1      27.783  42.886  53.839  1.00  0.00    -0.307 N 
HETATM   29  C   UNL     1      26.319  44.877  53.460  1.00  0.00     0.034 A 
HETATM   30  C   UNL     1      27.925  41.652  53.187  1.00  0.00     0.325 A 
HETATM   31  H   UNL     1      28.322  43.150  54.648  1.00  0.00     0.170 HD
HETATM   32  O   UNL     1      28.689  40.752  53.486  1.00  0.00    -0.247 OA
HETATM   33  C   UNL     1      25.311  45.358  52.612  1.00  0.00     0.032 A 
HETATM   34  H   UNL     1      26.904  40.881  51.485  1.00  0.00     0.170 HD
ENDBRANCH  20  23
ENDBRANCH  18  19
ENDBRANCH   1  18
TORSDOF 7
ENDMDL
MODEL 2
REMARK VINA RESULT:      -8.7      3.404      6.484
REMARK  7 active torsions:
REMARK  status: ('A' for Active; 'I' for Inactive)
REMARK    1  A    between atoms: C_2  and  C_3 
REMARK    2  A    between atoms: C_6  and  C_7 
REMARK    3  A    between atoms: C_7  and  N_8 
REMARK    4  A    between atoms: C_7  and  C_25 
REMARK    5  A    between atoms: N_8  and  C_11 
REMARK    6  A    between atoms: C_11  and  C_12 
REMARK       I    between atoms: C_12  and  N_13 
REMARK    7  A    between atoms: N_13  and  C_14 
ROOT
HETATM    1  N   UNL     1      24.144  45.518  50.719  1.00  0.00    -0.054 N 
HETATM    2  H   UNL     1      23.953  45.242  51.696  1.00  0.00     0.278 HD
HETATM    3  H   UNL     1      23.519  46.314  50.561  1.00  0.00     0.278 HD
ENDROOT
BRANCH   1   4
HETATM    4  C   UNL     1      25.571  45.940  50.595  1.00  0.00     0.259 C 
BRANCH   4   5
HETATM    5  C   UNL     1      26.281  45.931  51.939  1.00  0.00    -0.023 A 
HETATM    6  C   UNL     1      26.149  47.039  52.793  1.00  0.00     0.010 A 
HETATM    7  C   UNL     1      26.759  47.054  54.050  1.00  0.00     0.007 A 
HETATM    8  C   UNL     1      27.512  45.961  54.486  1.00  0.00    -0.059 A 
HETATM    9  C   UNL     1      27.646  44.852  53.645  1.00  0.00     0.007 A 
HETATM   10  C   UNL     1      27.041  44.836  52.385  1.00  0.00     0.010 A 
BRANCH   8  11
HETATM   11  C   UNL     1      28.130  45.959  55.862  1.00  0.00     0.034 C 
HETATM   12  C   UNL     1      29.565  45.453  55.837  1.00  0.00     0.010 C 
ENDBRANCH   8  11
ENDBRANCH   4   5
BRANCH   4  13
HETATM   13  C   UNL     1      25.700  47.261  49.875  1.00  0.00     0.017 A 
HETATM   14  S   UNL     1      24.274  48.135  49.471  1.00  0.00    -0.104 SA
HETATM   15  C   UNL     1      25.168  49.406  48.766  1.00  0.00     0.050 A 
HETATM   16  C   UNL     1      26.524  49.185  48.838  1.00  0.00     0.008 A 
HETATM   17  C   UNL     1      26.833  47.948  49.477  1.00  0.00     0.017 A 
ENDBRANCH   4  13
ENDBRANCH   1   4
BRANCH   1  18
HETATM   18  C   UNL     1      23.718  44.372  49.837  1.00  0.00     0.336 C 
BRANCH  18  19
HETATM   19  C   UNL     1      24.452  43.097  50.248  1.00  0.00     0.248 C 
HETATM   20  N   UNL     1      25.247  42.558  49.258  1.00  0.00    -0.326 N 
HETATM   21  H   UNL     1      25.257  43.004  48.346  1.00  0.00     0.169 HD
HETATM   22  O   UNL     1      24.272  42.671  51.388  1.00  0.00    -0.271 OA
BRANCH  20  23
HETATM   23  C   UNL     1      26.063  41.406  49.355  1.00  0.00     0.037 A 
HETATM   24  C   UNL     1      27.148  41.295  50.233  1.00  0.00     0.061 A 
HETATM   25  C   UNL     1      27.857  40.113  50.207  1.00  0.00     0.065 A 
HETATM   26  C   UNL     1      27.528  39.060  49.359  1.00  0.00     0.063 A 
HETATM   27  N   UNL     1      28.968  39.729  50.951  1.00  0.00    -0.306 N 
HETATM   28  N   UNL     1      28.431  38.029  49.580  1.00  0.00    -0.307 N 
HETATM   29  C   UNL     1      26.471  39.131  48.488  1.00  0.00     0.034 A 
HETATM   30  C   UNL     1      29.339  38.432  50.570  1.00  0.00     0.325 A 
HETATM   31  H   UNL     1      28.468  37.130  49.126  1.00  0.00     0.170 HD
HETATM   32  O   UNL     1      30.269  37.783  51.014  1.00  0.00    -0.247 OA
HETATM   33  C   UNL     1      25.736  40.325  48.490  1.00  0.00     0.032 A 
HETATM   34  H   UNL     1      29.458  40.261  51.651  1.00  0.00     0.170 HD
ENDBRANCH  20  23
ENDBRANCH  18  19
ENDBRANCH   1  18
TORSDOF 7
ENDMDL
MODEL 3
REMARK VINA RESULT:      -8.4      5.170      9.458
REMARK  7 active torsions:
REMARK  status: ('A' for Active; 'I' for Inactive)
REMARK    1  A    between atoms: C_2  and  C_3 
REMARK    2  A    between atoms: C_6  and  C_7 
REMARK    3  A    between atoms: C_7  and  N_8 
REMARK    4  A    between atoms: C_7  and  C_25 
REMARK    5  A    between atoms: N_8  and  C_11 
REMARK    6  A    between atoms: C_11  and  C_12 
REMARK       I    between atoms: C_12  and  N_13 
REMARK    7  A    between atoms: N_13  and  C_14 
ROOT
HETATM    1  N   UNL     1      27.594  41.838  53.022  1.00  0.00    -0.054 N 
HETATM    2  H   UNL     1      27.707  41.675  54.036  1.00  0.00     0.278 HD
HETATM    3  H   UNL     1      26.596  41.679  52.856  1.00  0.00     0.278 HD
ENDROOT
BRANCH   1   4
HETATM    4  C   UNL     1      27.960  43.251  52.706  1.00  0.00     0.259 C 
BRANCH   4   5
HETATM    5  C   UNL     1      28.619  43.942  53.888  1.00  0.00    -0.023 A 
HETATM    6  C   UNL     1      28.028  45.099  54.425  1.00  0.00     0.010 A 
HETATM    7  C   UNL     1      28.586  45.743  55.532  1.00  0.00     0.007 A 
HETATM    8  C   UNL     1      29.745  45.244  56.133  1.00  0.00    -0.059 A 
HETATM    9  C   UNL     1      30.337  44.091  55.610  1.00  0.00     0.007 A 
HETATM   10  C   UNL     1      29.784  43.447  54.499  1.00  0.00     0.010 A 
BRANCH   8  11
HETATM   11  C   UNL     1      30.318  45.913  57.359  1.00  0.00     0.034 C 
HETATM   12  C   UNL     1      31.038  44.919  58.259  1.00  0.00     0.010 C 
ENDBRANCH   8  11
ENDBRANCH   4   5
BRANCH   4  13
HETATM   13  C   UNL     1      26.780  44.022  52.162  1.00  0.00     0.017 A 
HETATM   14  S   UNL     1      26.958  44.893  50.689  1.00  0.00    -0.104 SA
HETATM   15  C   UNL     1      25.338  45.426  50.727  1.00  0.00     0.050 A 
HETATM   16  C   UNL     1      24.664  44.952  51.828  1.00  0.00     0.008 A 
HETATM   17  C   UNL     1      25.494  44.142  52.657  1.00  0.00     0.017 A 
ENDBRANCH   4  13
ENDBRANCH   1   4
BRANCH   1  18
HETATM   18  C   UNL     1      28.389  40.777  52.305  1.00  0.00     0.336 C 
BRANCH  18  19
HETATM   19  C   UNL     1      27.769  40.495  50.938  1.00  0.00     0.248 C 
HETATM   20  N   UNL     1      28.687  40.352  49.918  1.00  0.00    -0.326 N 
HETATM   21  H   UNL     1      29.672  40.480  50.130  1.00  0.00     0.169 HD
HETATM   22  O   UNL     1      26.543  40.429  50.865  1.00  0.00    -0.271 OA
BRANCH  20  23
HETATM   23  C   UNL     1      28.414  40.058  48.561  1.00  0.00     0.037 A 
HETATM   24  C   UNL     1      28.066  41.027  47.612  1.00  0.00     0.061 A 
HETATM   25  C   UNL     1      27.820  40.586  46.329  1.00  0.00     0.065 A 
HETATM   26  C   UNL     1      27.908  39.246  45.966  1.00  0.00     0.063 A 
HETATM   27  N   UNL     1      27.454  41.310  45.199  1.00  0.00    -0.306 N 
HETATM   28  N   UNL     1      27.600  39.143  44.616  1.00  0.00    -0.307 N 
HETATM   29  C   UNL     1      28.247  38.270  46.867  1.00  0.00     0.034 A 
HETATM   30  C   UNL     1      27.312  40.424  44.122  1.00  0.00     0.325 A 
HETATM   31  H   UNL     1      27.572  38.311  44.049  1.00  0.00     0.170 HD
HETATM   32  O   UNL     1      26.999  40.712  42.981  1.00  0.00    -0.247 OA
HETATM   33  C   UNL     1      28.499  38.690  48.181  1.00  0.00     0.032 A 
HETATM   34  H   UNL     1      27.301  42.303  45.121  1.00  0.00     0.170 HD
ENDBRANCH  20  23
ENDBRANCH  18  19
ENDBRANCH   1  18
TORSDOF 7
ENDMDL
MODEL 4
REMARK VINA RESULT:      -8.4      2.432      3.234
REMARK  7 active torsions:
REMARK  status: ('A' for Active; 'I' for Inactive)
REMARK    1  A    between atoms: C_2  and  C_3 
REMARK    2  A    between atoms: C_6  and  C_7 
REMARK    3  A    between atoms: C_7  and  N_8 
REMARK    4  A    between atoms: C_7  and  C_25 
REMARK    5  A    between atoms: N_8  and  C_11 
REMARK    6  A    between atoms: C_11  and  C_12 
REMARK       I    between atoms: C_12  and  N_13 
REMARK    7  A    between atoms: N_13  and  C_14 
ROOT
HETATM    1  N   UNL     1      24.507  46.043  49.689  1.00  0.00    -0.054 N 
HETATM    2  H   UNL     1      23.807  45.640  49.045  1.00  0.00     0.278 HD
HETATM    3  H   UNL     1      25.401  45.873  49.219  1.00  0.00     0.278 HD
ENDROOT
BRANCH   1   4
HETATM    4  C   UNL     1      24.259  47.509  49.831  1.00  0.00     0.259 C 
BRANCH   4   5
HETATM    5  C   UNL     1      22.987  47.938  49.118  1.00  0.00    -0.023 A 
HETATM    6  C   UNL     1      22.482  47.142  48.074  1.00  0.00     0.010 A 
HETATM    7  C   UNL     1      21.298  47.486  47.418  1.00  0.00     0.007 A 
HETATM    8  C   UNL     1      20.587  48.631  47.789  1.00  0.00    -0.059 A 
HETATM    9  C   UNL     1      21.078  49.426  48.829  1.00  0.00     0.007 A 
HETATM   10  C   UNL     1      22.266  49.088  49.484  1.00  0.00     0.010 A 
BRANCH   8  11
HETATM   11  C   UNL     1      19.283  48.973  47.111  1.00  0.00     0.034 C 
HETATM   12  C   UNL     1      19.286  50.396  46.569  1.00  0.00     0.010 C 
ENDBRANCH   8  11
ENDBRANCH   4   5
BRANCH   4  13
HETATM   13  C   UNL     1      25.463  48.319  49.415  1.00  0.00     0.017 A 
HETATM   14  S   UNL     1      25.240  49.687  48.395  1.00  0.00    -0.104 SA
HETATM   15  C   UNL     1      26.908  50.048  48.396  1.00  0.00     0.050 A 
HETATM   16  C   UNL     1      27.628  49.158  49.159  1.00  0.00     0.008 A 
HETATM   17  C   UNL     1      26.797  48.161  49.747  1.00  0.00     0.017 A 
ENDBRANCH   4  13
ENDBRANCH   1   4
BRANCH   1  18
HETATM   18  C   UNL     1      24.458  45.242  50.965  1.00  0.00     0.336 C 
BRANCH  18  19
HETATM   19  C   UNL     1      25.849  45.177  51.592  1.00  0.00     0.248 C 
HETATM   20  N   UNL     1      25.885  45.529  52.926  1.00  0.00    -0.326 N 
HETATM   21  H   UNL     1      25.025  45.836  53.371  1.00  0.00     0.169 HD
HETATM   22  O   UNL     1      26.789  44.834  50.877  1.00  0.00    -0.271 OA
BRANCH  20  23
HETATM   23  C   UNL     1      27.017  45.536  53.775  1.00  0.00     0.037 A 
HETATM   24  C   UNL     1      27.861  44.433  53.952  1.00  0.00     0.061 A 
HETATM   25  C   UNL     1      28.921  44.588  54.820  1.00  0.00     0.065 A 
HETATM   26  C   UNL     1      29.165  45.777  55.500  1.00  0.00     0.063 A 
HETATM   27  N   UNL     1      29.903  43.675  55.191  1.00  0.00    -0.306 N 
HETATM   28  N   UNL     1      30.296  45.600  56.286  1.00  0.00    -0.307 N 
HETATM   29  C   UNL     1      28.362  46.878  55.351  1.00  0.00     0.034 A 
HETATM   30  C   UNL     1      30.769  44.291  56.106  1.00  0.00     0.325 A 
HETATM   31  H   UNL     1      30.735  46.268  56.899  1.00  0.00     0.170 HD
HETATM   32  O   UNL     1      31.740  43.787  56.639  1.00  0.00    -0.247 OA
HETATM   33  C   UNL     1      27.274  46.746  54.476  1.00  0.00     0.032 A 
HETATM   34  H   UNL     1      30.011  42.722  54.883  1.00  0.00     0.170 HD
ENDBRANCH  20  23
ENDBRANCH  18  19
ENDBRANCH   1  18
TORSDOF 7
ENDMDL
MODEL 5
REMARK VINA RESULT:      -8.4      2.937      9.119
REMARK  7 active torsions:
REMARK  status: ('A' for Active; 'I' for Inactive)
REMARK    1  A    between atoms: C_2  and  C_3 
REMARK    2  A    between atoms: C_6  and  C_7 
REMARK    3  A    between atoms: C_7  and  N_8 
REMARK    4  A    between atoms: C_7  and  C_25 
REMARK    5  A    between atoms: N_8  and  C_11 
REMARK    6  A    between atoms: C_11  and  C_12 
REMARK       I    between atoms: C_12  and  N_13 
REMARK    7  A    between atoms: N_13  and  C_14 
ROOT
HETATM    1  N   UNL     1      26.134  42.601  51.784  1.00  0.00    -0.054 N 
HETATM    2  H   UNL     1      26.510  41.805  52.325  1.00  0.00     0.278 HD
HETATM    3  H   UNL     1      25.415  42.998  52.396  1.00  0.00     0.278 HD
ENDROOT
BRANCH   1   4
HETATM    4  C   UNL     1      27.224  43.592  51.542  1.00  0.00     0.259 C 
BRANCH   4   5
HETATM    5  C   UNL     1      28.275  43.554  52.639  1.00  0.00    -0.023 A 
HETATM    6  C   UNL     1      28.086  44.327  53.798  1.00  0.00     0.010 A 
HETATM    7  C   UNL     1      29.013  44.293  54.843  1.00  0.00     0.007 A 
HETATM    8  C   UNL     1      30.149  43.484  54.758  1.00  0.00    -0.059 A 
HETATM    9  C   UNL     1      30.343  42.707  53.611  1.00  0.00     0.007 A 
HETATM   10  C   UNL     1      29.420  42.743  52.562  1.00  0.00     0.010 A 
BRANCH   8  11
HETATM   11  C   UNL     1      31.124  43.412  55.907  1.00  0.00     0.034 C 
HETATM   12  C   UNL     1      30.853  44.491  56.946  1.00  0.00     0.010 C 
ENDBRANCH   8  11
ENDBRANCH   4   5
BRANCH   4  13
HETATM   13  C   UNL     1      26.673  44.978  51.308  1.00  0.00     0.017 A 
HETATM   14  S   UNL     1      27.129  45.830  49.885  1.00  0.00    -0.104 SA
HETATM   15  C   UNL     1      26.167  47.178  50.298  1.00  0.00     0.050 A 
HETATM   16  C   UNL     1      25.503  46.992  51.489  1.00  0.00     0.008 A 
HETATM   17  C   UNL     1      25.793  45.724  52.072  1.00  0.00     0.017 A 
ENDBRANCH   4  13
ENDBRANCH   1   4
BRANCH   1  18
HETATM   18  C   UNL     1      25.475  42.035  50.551  1.00  0.00     0.336 C 
BRANCH  18  19
HETATM   19  C   UNL     1      24.271  42.891  50.164  1.00  0.00     0.248 C 
HETATM   20  N   UNL     1      24.465  43.664  49.037  1.00  0.00    -0.326 N 
HETATM   21  H   UNL     1      25.373  43.643  48.585  1.00  0.00     0.169 HD
HETATM   22  O   UNL     1      23.266  42.825  50.871  1.00  0.00    -0.271 OA
BRANCH  20  23
HETATM   23  C   UNL     1      23.525  44.528  48.426  1.00  0.00     0.037 A 
HETATM   24  C   UNL     1      22.967  45.643  49.063  1.00  0.00     0.061 A 
HETATM   25  C   UNL     1      22.058  46.386  48.342  1.00  0.00     0.065 A 
HETATM   26  C   UNL     1      21.695  46.066  47.036  1.00  0.00     0.063 A 
HETATM   27  N   UNL     1      21.348  47.523  48.714  1.00  0.00    -0.306 N 
HETATM   28  N   UNL     1      20.768  47.005  46.604  1.00  0.00    -0.307 N 
HETATM   29  C   UNL     1      22.222  44.984  46.380  1.00  0.00     0.034 A 
HETATM   30  C   UNL     1      20.538  47.921  47.641  1.00  0.00     0.325 A 
HETATM   31  H   UNL     1      20.309  47.055  45.708  1.00  0.00     0.170 HD
HETATM   32  O   UNL     1      19.784  48.876  47.617  1.00  0.00    -0.247 OA
HETATM   33  C   UNL     1      23.147  44.208  47.093  1.00  0.00     0.032 A 
HETATM   34  H   UNL     1      21.377  48.010  49.595  1.00  0.00     0.170 HD
ENDBRANCH  20  23
ENDBRANCH  18  19
ENDBRANCH   1  18
TORSDOF 7
ENDMDL
MODEL 6
REMARK VINA RESULT:      -8.4      1.986      3.373
REMARK  7 active torsions:
REMARK  status: ('A' for Active; 'I' for Inactive)
REMARK    1  A    between atoms: C_2  and  C_3 
REMARK    2  A    between atoms: C_6  and  C_7 
REMARK    3  A    between atoms: C_7  and  N_8 
REMARK    4  A    between atoms: C_7  and  C_25 
REMARK    5  A    between atoms: N_8  and  C_11 
REMARK    6  A    between atoms: C_11  and  C_12 
REMARK       I    between atoms: C_12  and  N_13 
REMARK    7  A    between atoms: N_13  and  C_14 
ROOT
HETATM    1  N   UNL     1      22.456  48.549  49.462  1.00  0.00    -0.054 N 
HETATM    2  H   UNL     1      22.093  48.948  50.343  1.00  0.00     0.278 HD
HETATM    3  H   UNL     1      22.457  47.539  49.631  1.00  0.00     0.278 HD
ENDROOT
BRANCH   1   4
HETATM    4  C   UNL     1      21.526  48.893  48.345  1.00  0.00     0.259 C 
BRANCH   4   5
HETATM    5  C   UNL     1      20.463  49.888  48.781  1.00  0.00    -0.023 A 
HETATM    6  C   UNL     1      20.488  51.192  48.257  1.00  0.00     0.010 A 
HETATM    7  C   UNL     1      19.509  52.125  48.608  1.00  0.00     0.007 A 
HETATM    8  C   UNL     1      18.480  51.777  49.487  1.00  0.00    -0.059 A 
HETATM    9  C   UNL     1      18.444  50.481  50.010  1.00  0.00     0.007 A 
HETATM   10  C   UNL     1      19.425  49.547  49.665  1.00  0.00     0.010 A 
BRANCH   8  11
HETATM   11  C   UNL     1      17.396  52.772  49.827  1.00  0.00     0.034 C 
HETATM   12  C   UNL     1      16.009  52.158  49.705  1.00  0.00     0.010 C 
ENDBRANCH   8  11
ENDBRANCH   4   5
BRANCH   4  13
HETATM   13  C   UNL     1      20.941  47.655  47.708  1.00  0.00     0.017 A 
HETATM   14  S   UNL     1      21.483  46.108  48.234  1.00  0.00    -0.104 SA
HETATM   15  C   UNL     1      20.435  45.297  47.159  1.00  0.00     0.050 A 
HETATM   16  C   UNL     1      19.679  46.174  46.416  1.00  0.00     0.008 A 
HETATM   17  C   UNL     1      19.969  47.533  46.731  1.00  0.00     0.017 A 
ENDBRANCH   4  13
ENDBRANCH   1   4
BRANCH   1  18
HETATM   18  C   UNL     1      23.877  49.026  49.304  1.00  0.00     0.336 C 
BRANCH  18  19
HETATM   19  C   UNL     1      24.845  47.954  49.801  1.00  0.00     0.248 C 
HETATM   20  N   UNL     1      24.305  47.093  50.734  1.00  0.00    -0.326 N 
HETATM   21  H   UNL     1      23.351  47.251  51.046  1.00  0.00     0.169 HD
HETATM   22  O   UNL     1      25.987  47.954  49.346  1.00  0.00    -0.271 OA
BRANCH  20  23
HETATM   23  C   UNL     1      24.946  45.991  51.348  1.00  0.00     0.037 A 
HETATM   24  C   UNL     1      26.054  46.111  52.196  1.00  0.00     0.061 A 
HETATM   25  C   UNL     1      26.576  44.944  52.712  1.00  0.00     0.065 A 
HETATM   26  C   UNL     1      26.045  43.691  52.421  1.00  0.00     0.063 A 
HETATM   27  N   UNL     1      27.662  44.759  53.562  1.00  0.00    -0.306 N 
HETATM   28  N   UNL     1      26.798  42.737  53.093  1.00  0.00    -0.307 N 
HETATM   29  C   UNL     1      24.960  43.535  51.598  1.00  0.00     0.034 A 
HETATM   30  C   UNL     1      27.813  43.388  53.809  1.00  0.00     0.325 A 
HETATM   31  H   UNL     1      26.674  41.737  53.091  1.00  0.00     0.170 HD
HETATM   32  O   UNL     1      28.662  42.866  54.508  1.00  0.00    -0.247 OA
HETATM   33  C   UNL     1      24.411  44.706  51.055  1.00  0.00     0.032 A 
HETATM   34  H   UNL     1      28.267  45.462  53.956  1.00  0.00     0.170 HD
ENDBRANCH  20  23
ENDBRANCH  18  19
ENDBRANCH   1  18
TORSDOF 7
ENDMDL
MODEL 7
REMARK VINA RESULT:      -8.4      2.306      4.781
REMARK  7 active torsions:
REMARK  status: ('A' for Active; 'I' for Inactive)
REMARK    1  A    between atoms: C_2  and  C_3 
REMARK    2  A    between atoms: C_6  and  C_7 
REMARK    3  A    between atoms: C_7  and  N_8 
REMARK    4  A    between atoms: C_7  and  C_25 
REMARK    5  A    between atoms: N_8  and  C_11 
REMARK    6  A    between atoms: C_11  and  C_12 
REMARK       I    between atoms: C_12  and  N_13 
REMARK    7  A    between atoms: N_13  and  C_14 
ROOT
HETATM    1  N   UNL     1      20.746  47.600  49.269  1.00  0.00    -0.054 N 
HETATM    2  H   UNL     1      21.541  47.364  49.886  1.00  0.00     0.278 HD
HETATM    3  H   UNL     1      19.993  47.844  49.919  1.00  0.00     0.278 HD
ENDROOT
BRANCH   1   4
HETATM    4  C   UNL     1      21.111  48.775  48.423  1.00  0.00     0.259 C 
BRANCH   4   5
HETATM    5  C   UNL     1      22.607  49.042  48.443  1.00  0.00    -0.023 A 
HETATM    6  C   UNL     1      23.126  50.100  47.676  1.00  0.00     0.010 A 
HETATM    7  C   UNL     1      24.491  50.398  47.694  1.00  0.00     0.007 A 
HETATM    8  C   UNL     1      25.370  49.649  48.482  1.00  0.00    -0.059 A 
HETATM    9  C   UNL     1      24.863  48.599  49.252  1.00  0.00     0.007 A 
HETATM   10  C   UNL     1      23.499  48.295  49.232  1.00  0.00     0.010 A 
BRANCH   8  11
HETATM   11  C   UNL     1      26.836  50.004  48.538  1.00  0.00     0.034 C 
HETATM   12  C   UNL     1      27.658  48.902  49.191  1.00  0.00     0.010 C 
ENDBRANCH   8  11
ENDBRANCH   4   5
BRANCH   4  13
HETATM   13  C   UNL     1      20.295  49.993  48.783  1.00  0.00     0.017 A 
HETATM   14  S   UNL     1      19.190  49.901  50.099  1.00  0.00    -0.104 SA
HETATM   15  C   UNL     1      18.715  51.528  49.906  1.00  0.00     0.050 A 
HETATM   16  C   UNL     1      19.381  52.141  48.870  1.00  0.00     0.008 A 
HETATM   17  C   UNL     1      20.293  51.258  48.221  1.00  0.00     0.017 A 
ENDBRANCH   4  13
ENDBRANCH   1   4
BRANCH   1  18
HETATM   18  C   UNL     1      20.369  46.345  48.523  1.00  0.00     0.336 C 
BRANCH  18  19
HETATM   19  C   UNL     1      21.591  45.443  48.369  1.00  0.00     0.248 C 
HETATM   20  N   UNL     1      21.794  44.579  49.426  1.00  0.00    -0.326 N 
HETATM   21  H   UNL     1      21.166  44.630  50.222  1.00  0.00     0.169 HD
HETATM   22  O   UNL     1      22.272  45.564  47.352  1.00  0.00    -0.271 OA
BRANCH  20  23
HETATM   23  C   UNL     1      22.820  43.611  49.550  1.00  0.00     0.037 A 
HETATM   24  C   UNL     1      23.820  43.662  50.529  1.00  0.00     0.061 A 
HETATM   25  C   UNL     1      24.757  42.651  50.518  1.00  0.00     0.065 A 
HETATM   26  C   UNL     1      24.733  41.614  49.590  1.00  0.00     0.063 A 
HETATM   27  N   UNL     1      25.852  42.449  51.353  1.00  0.00    -0.306 N 
HETATM   28  N   UNL     1      25.806  40.774  49.853  1.00  0.00    -0.307 N 
HETATM   29  C   UNL     1      23.768  41.531  48.619  1.00  0.00     0.034 A 
HETATM   30  C   UNL     1      26.517  41.283  50.951  1.00  0.00     0.325 A 
HETATM   31  H   UNL     1      26.070  39.935  49.362  1.00  0.00     0.170 HD
HETATM   32  O   UNL     1      27.516  40.806  51.456  1.00  0.00    -0.247 OA
HETATM   33  C   UNL     1      22.804  42.549  48.604  1.00  0.00     0.032 A 
HETATM   34  H   UNL     1      26.155  43.020  52.126  1.00  0.00     0.170 HD
ENDBRANCH  20  23
ENDBRANCH  18  19
ENDBRANCH   1  18
TORSDOF 7
ENDMDL
MODEL 8
REMARK VINA RESULT:      -8.3      3.355      9.441
REMARK  7 active torsions:
REMARK  status: ('A' for Active; 'I' for Inactive)
REMARK    1  A    between atoms: C_2  and  C_3 
REMARK    2  A    between atoms: C_6  and  C_7 
REMARK    3  A    between atoms: C_7  and  N_8 
REMARK    4  A    between atoms: C_7  and  C_25 
REMARK    5  A    between atoms: N_8  and  C_11 
REMARK    6  A    between atoms: C_11  and  C_12 
REMARK       I    between atoms: C_12  and  N_13 
REMARK    7  A    between atoms: N_13  and  C_14 
ROOT
HETATM    1  N   UNL     1      25.176  46.325  50.339  1.00  0.00    -0.054 N 
HETATM    2  H   UNL     1      25.286  47.240  50.806  1.00  0.00     0.278 HD
HETATM    3  H   UNL     1      26.012  46.245  49.753  1.00  0.00     0.278 HD
ENDROOT
BRANCH   1   4
HETATM    4  C   UNL     1      25.152  45.245  51.370  1.00  0.00     0.259 C 
BRANCH   4   5
HETATM    5  C   UNL     1      26.076  45.556  52.535  1.00  0.00    -0.023 A 
HETATM    6  C   UNL     1      26.062  46.845  53.098  1.00  0.00     0.010 A 
HETATM    7  C   UNL     1      26.873  47.160  54.191  1.00  0.00     0.007 A 
HETATM    8  C   UNL     1      27.714  46.195  54.752  1.00  0.00    -0.059 A 
HETATM    9  C   UNL     1      27.732  44.909  54.202  1.00  0.00     0.007 A 
HETATM   10  C   UNL     1      26.926  44.593  53.105  1.00  0.00     0.010 A 
BRANCH   8  11
HETATM   11  C   UNL     1      28.553  46.524  55.962  1.00  0.00     0.034 C 
HETATM   12  C   UNL     1      29.618  45.466  56.216  1.00  0.00     0.010 C 
ENDBRANCH   8  11
ENDBRANCH   4   5
BRANCH   4  13
HETATM   13  C   UNL     1      25.417  43.889  50.760  1.00  0.00     0.017 A 
HETATM   14  S   UNL     1      26.780  43.688  49.729  1.00  0.00    -0.104 SA
HETATM   15  C   UNL     1      26.440  42.034  49.484  1.00  0.00     0.050 A 
HETATM   16  C   UNL     1      25.319  41.630  50.173  1.00  0.00     0.008 A 
HETATM   17  C   UNL     1      24.729  42.698  50.910  1.00  0.00     0.017 A 
ENDBRANCH   4  13
ENDBRANCH   1   4
BRANCH   1  18
HETATM   18  C   UNL     1      23.959  46.416  49.454  1.00  0.00     0.336 C 
BRANCH  18  19
HETATM   19  C   UNL     1      23.376  47.827  49.513  1.00  0.00     0.248 C 
HETATM   20  N   UNL     1      22.050  47.907  49.138  1.00  0.00    -0.326 N 
HETATM   21  H   UNL     1      21.583  47.063  48.822  1.00  0.00     0.169 HD
HETATM   22  O   UNL     1      24.116  48.741  49.870  1.00  0.00    -0.271 OA
BRANCH  20  23
HETATM   23  C   UNL     1      21.239  49.066  49.122  1.00  0.00     0.037 A 
HETATM   24  C   UNL     1      19.980  49.142  49.731  1.00  0.00     0.061 A 
HETATM   25  C   UNL     1      19.303  50.338  49.621  1.00  0.00     0.065 A 
HETATM   26  C   UNL     1      19.824  51.436  48.945  1.00  0.00     0.063 A 
HETATM   27  N   UNL     1      18.051  50.695  50.112  1.00  0.00    -0.306 N 
HETATM   28  N   UNL     1      18.899  52.469  49.020  1.00  0.00    -0.307 N 
HETATM   29  C   UNL     1      21.054  51.400  48.339  1.00  0.00     0.034 A 
HETATM   30  C   UNL     1      17.784  52.022  49.745  1.00  0.00     0.325 A 
HETATM   31  H   UNL     1      18.972  53.396  48.632  1.00  0.00     0.170 HD
HETATM   32  O   UNL     1      16.780  52.658  50.005  1.00  0.00    -0.247 OA
HETATM   33  C   UNL     1      21.763  50.194  48.431  1.00  0.00     0.032 A 
HETATM   34  H   UNL     1      17.409  50.128  50.643  1.00  0.00     0.170 HD
ENDBRANCH  20  23
ENDBRANCH  18  19
ENDBRANCH   1  18
TORSDOF 7
ENDMDL
MODEL 9
REMARK VINA RESULT:      -8.3      4.586      8.789
REMARK  7 active torsions:
REMARK  status: ('A' for Active; 'I' for Inactive)
REMARK    1  A    between atoms: C_2  and  C_3 
REMARK    2  A    between atoms: C_6  and  C_7 
REMARK    3  A    between atoms: C_7  and  N_8 
REMARK    4  A    between atoms: C_7  and  C_25 
REMARK    5  A    between atoms: N_8  and  C_11 
REMARK    6  A    between atoms: C_11  and  C_12 
REMARK       I    between atoms: C_12  and  N_13 
REMARK    7  A    between atoms: N_13  and  C_14 
ROOT
HETATM    1  N   UNL     1      25.786  42.899  52.073  1.00  0.00    -0.054 N 
HETATM    2  H   UNL     1      26.104  42.027  52.526  1.00  0.00     0.278 HD
HETATM    3  H   UNL     1      25.254  43.378  52.805  1.00  0.00     0.278 HD
ENDROOT
BRANCH   1   4
HETATM    4  C   UNL     1      26.975  43.708  51.673  1.00  0.00     0.259 C 
BRANCH   4   5
HETATM    5  C   UNL     1      28.086  43.629  52.707  1.00  0.00    -0.023 A 
HETATM    6  C   UNL     1      27.912  44.259  53.952  1.00  0.00     0.010 A 
HETATM    7  C   UNL     1      28.896  44.180  54.941  1.00  0.00     0.007 A 
HETATM    8  C   UNL     1      30.076  43.467  54.712  1.00  0.00    -0.059 A 
HETATM    9  C   UNL     1      30.256  42.833  53.479  1.00  0.00     0.007 A 
HETATM   10  C   UNL     1      29.276  42.914  52.486  1.00  0.00     0.010 A 
BRANCH   8  11
HETATM   11  C   UNL     1      31.115  43.343  55.799  1.00  0.00     0.034 C 
HETATM   12  C   UNL     1      30.970  44.436  56.848  1.00  0.00     0.010 C 
ENDBRANCH   8  11
ENDBRANCH   4   5
BRANCH   4  13
HETATM   13  C   UNL     1      26.592  45.129  51.335  1.00  0.00     0.017 A 
HETATM   14  S   UNL     1      26.915  45.729  49.755  1.00  0.00    -0.104 SA
HETATM   15  C   UNL     1      26.235  47.252  50.118  1.00  0.00     0.050 A 
HETATM   16  C   UNL     1      25.762  47.312  51.409  1.00  0.00     0.008 A 
HETATM   17  C   UNL     1      25.967  46.089  52.112  1.00  0.00     0.017 A 
ENDBRANCH   4  13
ENDBRANCH   1   4
BRANCH   1  18
HETATM   18  C   UNL     1      24.851  42.509  50.956  1.00  0.00     0.336 C 
BRANCH  18  19
HETATM   19  C   UNL     1      25.628  41.800  49.848  1.00  0.00     0.248 C 
HETATM   20  N   UNL     1      26.185  40.597  50.230  1.00  0.00    -0.326 N 
HETATM   21  H   UNL     1      26.081  40.297  51.194  1.00  0.00     0.169 HD
HETATM   22  O   UNL     1      25.694  42.348  48.749  1.00  0.00    -0.271 OA
BRANCH  20  23
HETATM   23  C   UNL     1      26.930  39.708  49.418  1.00  0.00     0.037 A 
HETATM   24  C   UNL     1      26.367  38.936  48.394  1.00  0.00     0.061 A 
HETATM   25  C   UNL     1      27.219  38.108  47.694  1.00  0.00     0.065 A 
HETATM   26  C   UNL     1      28.580  38.027  47.970  1.00  0.00     0.063 A 
HETATM   27  N   UNL     1      26.943  37.236  46.646  1.00  0.00    -0.306 N 
HETATM   28  N   UNL     1      29.144  37.109  47.093  1.00  0.00    -0.307 N 
HETATM   29  C   UNL     1      29.166  38.769  48.962  1.00  0.00     0.034 A 
HETATM   30  C   UNL     1      28.134  36.604  46.261  1.00  0.00     0.325 A 
HETATM   31  H   UNL     1      30.107  36.821  47.033  1.00  0.00     0.170 HD
HETATM   32  O   UNL     1      28.264  35.778  45.376  1.00  0.00    -0.247 OA
HETATM   33  C   UNL     1      28.322  39.617  49.694  1.00  0.00     0.032 A 
HETATM   34  H   UNL     1      26.054  37.054  46.209  1.00  0.00     0.170 HD
ENDBRANCH  20  23
ENDBRANCH  18  19
ENDBRANCH   1  18
TORSDOF 7
ENDMDL
MODEL 10
REMARK VINA RESULT:      -8.2      3.148      9.643
REMARK  7 active torsions:
REMARK  status: ('A' for Active; 'I' for Inactive)
REMARK    1  A    between atoms: C_2  and  C_3 
REMARK    2  A    between atoms: C_6  and  C_7 
REMARK    3  A    between atoms: C_7  and  N_8 
REMARK    4  A    between atoms: C_7  and  C_25 
REMARK    5  A    between atoms: N_8  and  C_11 
REMARK    6  A    between atoms: C_11  and  C_12 
REMARK       I    between atoms: C_12  and  N_13 
REMARK    7  A    between atoms: N_13  and  C_14 
ROOT
HETATM    1  N   UNL     1      26.599  42.506  50.755  1.00  0.00    -0.054 N 
HETATM    2  H   UNL     1      27.044  43.427  50.896  1.00  0.00     0.278 HD
HETATM    3  H   UNL     1      26.760  42.303  49.763  1.00  0.00     0.278 HD
ENDROOT
BRANCH   1   4
HETATM    4  C   UNL     1      27.279  41.493  51.615  1.00  0.00     0.259 C 
BRANCH   4   5
HETATM    5  C   UNL     1      28.147  42.146  52.678  1.00  0.00    -0.023 A 
HETATM    6  C   UNL     1      29.544  42.145  52.521  1.00  0.00     0.010 A 
HETATM    7  C   UNL     1      30.372  42.765  53.459  1.00  0.00     0.007 A 
HETATM    8  C   UNL     1      29.826  43.403  54.576  1.00  0.00    -0.059 A 
HETATM    9  C   UNL     1      28.438  43.413  54.739  1.00  0.00     0.007 A 
HETATM   10  C   UNL     1      27.606  42.790  53.804  1.00  0.00     0.010 A 
BRANCH   8  11
HETATM   11  C   UNL     1      30.720  44.113  55.563  1.00  0.00     0.034 C 
HETATM   12  C   UNL     1      30.005  45.276  56.237  1.00  0.00     0.010 C 
ENDBRANCH   8  11
ENDBRANCH   4   5
BRANCH   4  13
HETATM   13  C   UNL     1      28.033  40.478  50.788  1.00  0.00     0.017 A 
HETATM   14  S   UNL     1      28.042  40.637  49.074  1.00  0.00    -0.104 SA
HETATM   15  C   UNL     1      29.028  39.258  48.882  1.00  0.00     0.050 A 
HETATM   16  C   UNL     1      29.357  38.685  50.089  1.00  0.00     0.008 A 
HETATM   17  C   UNL     1      28.784  39.387  51.189  1.00  0.00     0.017 A 
ENDBRANCH   4  13
ENDBRANCH   1   4
BRANCH   1  18
HETATM   18  C   UNL     1      25.120  42.680  50.989  1.00  0.00     0.336 C 
BRANCH  18  19
HETATM   19  C   UNL     1      24.771  44.167  51.034  1.00  0.00     0.248 C 
HETATM   20  N   UNL     1      25.084  44.857  49.881  1.00  0.00    -0.326 N 
HETATM   21  H   UNL     1      25.546  44.358  49.127  1.00  0.00     0.169 HD
HETATM   22  O   UNL     1      24.263  44.608  52.064  1.00  0.00    -0.271 OA
BRANCH  20  23
HETATM   23  C   UNL     1      24.853  46.228  49.620  1.00  0.00     0.037 A 
HETATM   24  C   UNL     1      23.590  46.761  49.331  1.00  0.00     0.061 A 
HETATM   25  C   UNL     1      23.523  48.116  49.089  1.00  0.00     0.065 A 
HETATM   26  C   UNL     1      24.643  48.941  49.127  1.00  0.00     0.063 A 
HETATM   27  N   UNL     1      22.422  48.906  48.775  1.00  0.00    -0.306 N 
HETATM   28  N   UNL     1      24.234  50.237  48.839  1.00  0.00    -0.307 N 
HETATM   29  C   UNL     1      25.894  48.456  49.408  1.00  0.00     0.034 A 
HETATM   30  C   UNL     1      22.850  50.232  48.615  1.00  0.00     0.325 A 
HETATM   31  H   UNL     1      24.802  51.068  48.786  1.00  0.00     0.170 HD
HETATM   32  O   UNL     1      22.153  51.190  48.335  1.00  0.00    -0.247 OA
HETATM   33  C   UNL     1      25.992  47.079  49.654  1.00  0.00     0.032 A 
HETATM   34  H   UNL     1      21.463  48.618  48.666  1.00  0.00     0.170 HD
ENDBRANCH  20  23
ENDBRANCH  18  19
ENDBRANCH   1  18
TORSDOF 7
ENDMDL
