MODEL 1
REMARK VINA RESULT:     -10.0      0.000      0.000
REMARK  8 active torsions:
REMARK  status: ('A' for Active; 'I' for Inactive)
REMARK    1  A    between atoms: C_5  and  C_6 
REMARK    2  A    between atoms: C_8  and  C_9 
REMARK    3  A    between atoms: C_9  and  C_10 
REMARK    4  A    between atoms: C_10  and  C_11 
REMARK       I    between atoms: C_11  and  N_12 
REMARK    5  A    between atoms: N_12  and  N_13 
REMARK       I    between atoms: N_13  and  C_14 
REMARK    6  A    between atoms: C_14  and  C_15 
REMARK    7  A    between atoms: C_15  and  O_16 
REMARK    8  A    between atoms: O_16  and  C_17 
ROOT
HETATM    1  C   UNL     1      24.596  46.273  50.763  1.00  0.00     0.236 C 
HETATM    2  N   UNL     1      25.423  47.076  51.519  1.00  0.00    -0.267 N 
HETATM    3  O   UNL     1      24.436  45.075  50.988  1.00  0.00    -0.272 OA
HETATM    4  H   UNL     1      25.771  47.971  51.180  1.00  0.00     0.190 HD
ENDROOT
BRANCH   1   5
HETATM    5  C   UNL     1      23.874  47.003  49.650  1.00  0.00     0.112 C 
BRANCH   5   6
HETATM    6  C   UNL     1      24.508  48.369  49.399  1.00  0.00     0.096 C 
BRANCH   6   7
HETATM    7  C   UNL     1      23.586  49.268  48.657  1.00  0.00     0.146 A 
HETATM    8  O   UNL     1      22.373  49.496  49.239  1.00  0.00    -0.294 OA
HETATM    9  C   UNL     1      21.757  50.403  48.420  1.00  0.00     0.105 A 
HETATM   10  C   UNL     1      22.620  50.641  47.371  1.00  0.00     0.157 A 
HETATM   11  N   UNL     1      23.785  49.927  47.535  1.00  0.00    -0.238 NA
BRANCH   9  12
HETATM   12  C   UNL     1      20.447  50.877  48.840  1.00  0.00    -0.001 A 
HETATM   13  C   UNL     1      19.941  52.103  48.381  1.00  0.00     0.015 A 
HETATM   14  C   UNL     1      18.670  52.547  48.756  1.00  0.00     0.007 A 
HETATM   15  C   UNL     1      17.879  51.780  49.615  1.00  0.00    -0.062 A 
HETATM   16  C   UNL     1      16.503  52.234  50.003  1.00  0.00     0.048 C 
HETATM   17  C   UNL     1      18.373  50.554  50.077  1.00  0.00     0.007 A 
HETATM   18  C   UNL     1      19.644  50.110  49.695  1.00  0.00     0.015 A 
ENDBRANCH   9  12
ENDBRANCH   6   7
ENDBRANCH   5   6
ENDBRANCH   1   5
BRANCH   2  19
HETATM   19  N   UNL     1      26.164  46.479  52.542  1.00  0.00    -0.266 N 
HETATM   20  C   UNL     1      26.166  47.073  53.789  1.00  0.00     0.260 C 
HETATM   21  O   UNL     1      25.460  48.042  54.066  1.00  0.00    -0.269 OA
HETATM   22  H   UNL     1      26.896  45.826  52.262  1.00  0.00     0.190 HD
BRANCH  20  23
HETATM   23  C   UNL     1      27.161  46.458  54.764  1.00  0.00     0.280 C 
BRANCH  23  24
HETATM   24  O   UNL     1      27.842  45.383  54.124  1.00  0.00    -0.342 OA
BRANCH  24  25
HETATM   25  C   UNL     1      28.880  44.830  54.821  1.00  0.00     0.069 A 
HETATM   26  C   UNL     1      29.450  43.583  54.569  1.00  0.00     0.037 A 
HETATM   27  C   UNL     1      30.501  43.117  55.365  1.00  0.00     0.009 A 
HETATM   28  C   UNL     1      30.985  43.886  56.430  1.00  0.00    -0.062 A 
HETATM   29  C   UNL     1      32.132  43.402  57.267  1.00  0.00     0.048 C 
HETATM   30  C   UNL     1      30.412  45.137  56.677  1.00  0.00     0.009 A 
HETATM   31  C   UNL     1      29.359  45.599  55.883  1.00  0.00     0.037 A 
ENDBRANCH  24  25
ENDBRANCH  23  24
ENDBRANCH  20  23
ENDBRANCH   2  19
TORSDOF 8
ENDMDL
MODEL 2
REMARK VINA RESULT:      -9.8      1.180     11.577
REMARK  8 active torsions:
REMARK  status: ('A' for Active; 'I' for Inactive)
REMARK    1  A    between atoms: C_5  and  C_6 
REMARK    2  A    between atoms: C_8  and  C_9 
REMARK    3  A    between atoms: C_9  and  C_10 
REMARK    4  A    between atoms: C_10  and  C_11 
REMARK       I    between atoms: C_11  and  N_12 
REMARK    5  A    between atoms: N_12  and  N_13 
REMARK       I    between atoms: N_13  and  C_14 
REMARK    6  A    between atoms: C_14  and  C_15 
REMARK    7  A    between atoms: C_15  and  O_16 
REMARK    8  A    between atoms: O_16  and  C_17 
ROOT
HETATM    1  C   UNL     1      24.435  46.486  49.961  1.00  0.00     0.236 C 
HETATM    2  N   UNL     1      24.200  47.787  50.352  1.00  0.00    -0.267 N 
HETATM    3  O   UNL     1      23.852  45.954  49.019  1.00  0.00    -0.272 OA
HETATM    4  H   UNL     1      24.459  48.133  51.275  1.00  0.00     0.190 HD
ENDROOT
BRANCH   1   5
HETATM    5  C   UNL     1      25.501  45.780  50.773  1.00  0.00     0.112 C 
BRANCH   5   6
HETATM    6  C   UNL     1      24.985  45.447  52.170  1.00  0.00     0.096 C 
BRANCH   6   7
HETATM    7  C   UNL     1      25.869  46.008  53.224  1.00  0.00     0.146 A 
HETATM    8  O   UNL     1      26.838  45.175  53.701  1.00  0.00    -0.294 OA
HETATM    9  C   UNL     1      27.556  45.939  54.580  1.00  0.00     0.105 A 
HETATM   10  C   UNL     1      26.954  47.179  54.611  1.00  0.00     0.157 A 
HETATM   11  N   UNL     1      25.891  47.220  53.737  1.00  0.00    -0.238 NA
BRANCH   9  12
HETATM   12  C   UNL     1      28.709  45.307  55.204  1.00  0.00    -0.001 A 
HETATM   13  C   UNL     1      29.302  45.858  56.351  1.00  0.00     0.015 A 
HETATM   14  C   UNL     1      30.390  45.238  56.972  1.00  0.00     0.007 A 
HETATM   15  C   UNL     1      30.921  44.056  56.449  1.00  0.00    -0.062 A 
HETATM   16  C   UNL     1      32.071  43.368  57.122  1.00  0.00     0.048 C 
HETATM   17  C   UNL     1      30.336  43.498  55.306  1.00  0.00     0.007 A 
HETATM   18  C   UNL     1      29.244  44.119  54.690  1.00  0.00     0.015 A 
ENDBRANCH   9  12
ENDBRANCH   6   7
ENDBRANCH   5   6
ENDBRANCH   1   5
BRANCH   2  19
HETATM   19  N   UNL     1      23.201  48.504  49.688  1.00  0.00    -0.266 N 
HETATM   20  C   UNL     1      23.574  49.393  48.700  1.00  0.00     0.260 C 
HETATM   21  O   UNL     1      24.735  49.503  48.305  1.00  0.00    -0.269 OA
HETATM   22  H   UNL     1      22.295  48.571  50.152  1.00  0.00     0.190 HD
BRANCH  20  23
HETATM   23  C   UNL     1      22.432  50.261  48.188  1.00  0.00     0.280 C 
BRANCH  23  24
HETATM   24  O   UNL     1      21.192  49.623  48.477  1.00  0.00    -0.342 OA
BRANCH  24  25
HETATM   25  C   UNL     1      20.146  50.451  48.777  1.00  0.00     0.069 A 
HETATM   26  C   UNL     1      19.988  51.755  48.307  1.00  0.00     0.037 A 
HETATM   27  C   UNL     1      18.880  52.513  48.699  1.00  0.00     0.009 A 
HETATM   28  C   UNL     1      17.925  51.982  49.574  1.00  0.00    -0.062 A 
HETATM   29  C   UNL     1      16.720  52.781  49.973  1.00  0.00     0.048 C 
HETATM   30  C   UNL     1      18.087  50.673  50.040  1.00  0.00     0.009 A 
HETATM   31  C   UNL     1      19.198  49.919  49.651  1.00  0.00     0.037 A 
ENDBRANCH  24  25
ENDBRANCH  23  24
ENDBRANCH  20  23
ENDBRANCH   2  19
TORSDOF 8
ENDMDL
MODEL 3
REMARK VINA RESULT:      -9.6      1.880     11.321
REMARK  8 active torsions:
REMARK  status: ('A' for Active; 'I' for Inactive)
REMARK    1  A    between atoms: C_5  and  C_6 
REMARK    2  A    between atoms: C_8  and  C_9 
REMARK    3  A    between atoms: C_9  and  C_10 
REMARK    4  A    between atoms: C_10  and  C_11 
REMARK       I    between atoms: C_11  and  N_12 
REMARK    5  A    between atoms: N_12  and  N_13 
REMARK       I    between atoms: N_13  and  C_14 
REMARK    6  A    between atoms: C_14  and  C_15 
REMARK    7  A    between atoms: C_15  and  O_16 
REMARK    8  A    between atoms: O_16  and  C_17 
ROOT
HETATM    1  C   UNL     1      24.539  45.074  49.975  1.00  0.00     0.236 C 
HETATM    2  N   UNL     1      24.220  46.261  50.602  1.00  0.00    -0.267 N 
HETATM    3  O   UNL     1      24.249  44.835  48.805  1.00  0.00    -0.272 OA
HETATM    4  H   UNL     1      24.203  46.353  51.616  1.00  0.00     0.190 HD
ENDROOT
BRANCH   1   5
HETATM    5  C   UNL     1      25.311  44.104  50.846  1.00  0.00     0.112 C 
BRANCH   5   6
HETATM    6  C   UNL     1      26.706  43.859  50.278  1.00  0.00     0.096 C 
BRANCH   6   7
HETATM    7  C   UNL     1      27.622  43.301  51.306  1.00  0.00     0.146 A 
HETATM    8  O   UNL     1      27.961  44.141  52.326  1.00  0.00    -0.294 OA
HETATM    9  C   UNL     1      28.727  43.380  53.167  1.00  0.00     0.105 A 
HETATM   10  C   UNL     1      28.836  42.135  52.585  1.00  0.00     0.157 A 
HETATM   11  N   UNL     1      28.121  42.087  51.410  1.00  0.00    -0.238 NA
BRANCH   9  12
HETATM   12  C   UNL     1      29.185  44.020  54.391  1.00  0.00    -0.001 A 
HETATM   13  C   UNL     1      30.312  43.541  55.078  1.00  0.00     0.015 A 
HETATM   14  C   UNL     1      30.774  44.172  56.236  1.00  0.00     0.007 A 
HETATM   15  C   UNL     1      30.108  45.289  56.745  1.00  0.00    -0.062 A 
HETATM   16  C   UNL     1      30.610  45.990  57.973  1.00  0.00     0.048 C 
HETATM   17  C   UNL     1      28.984  45.775  56.067  1.00  0.00     0.007 A 
HETATM   18  C   UNL     1      28.526  45.145  54.905  1.00  0.00     0.015 A 
ENDBRANCH   9  12
ENDBRANCH   6   7
ENDBRANCH   5   6
ENDBRANCH   1   5
BRANCH   2  19
HETATM   19  N   UNL     1      23.470  47.199  49.889  1.00  0.00    -0.266 N 
HETATM   20  C   UNL     1      24.078  48.380  49.511  1.00  0.00     0.260 C 
HETATM   21  O   UNL     1      25.278  48.595  49.680  1.00  0.00    -0.269 OA
HETATM   22  H   UNL     1      22.455  47.116  49.943  1.00  0.00     0.190 HD
BRANCH  20  23
HETATM   23  C   UNL     1      23.120  49.408  48.924  1.00  0.00     0.280 C 
BRANCH  23  24
HETATM   24  O   UNL     1      21.785  48.926  49.045  1.00  0.00    -0.342 OA
BRANCH  24  25
HETATM   25  C   UNL     1      20.809  49.880  49.135  1.00  0.00     0.069 A 
HETATM   26  C   UNL     1      20.795  51.089  48.439  1.00  0.00     0.037 A 
HETATM   27  C   UNL     1      19.746  51.996  48.628  1.00  0.00     0.009 A 
HETATM   28  C   UNL     1      18.709  51.710  49.523  1.00  0.00    -0.062 A 
HETATM   29  C   UNL     1      17.567  52.667  49.705  1.00  0.00     0.048 C 
HETATM   30  C   UNL     1      18.727  50.495  50.215  1.00  0.00     0.009 A 
HETATM   31  C   UNL     1      19.777  49.593  50.029  1.00  0.00     0.037 A 
ENDBRANCH  24  25
ENDBRANCH  23  24
ENDBRANCH  20  23
ENDBRANCH   2  19
TORSDOF 8
ENDMDL
MODEL 4
REMARK VINA RESULT:      -9.5      1.768     11.624
REMARK  8 active torsions:
REMARK  status: ('A' for Active; 'I' for Inactive)
REMARK    1  A    between atoms: C_5  and  C_6 
REMARK    2  A    between atoms: C_8  and  C_9 
REMARK    3  A    between atoms: C_9  and  C_10 
REMARK    4  A    between atoms: C_10  and  C_11 
REMARK       I    between atoms: C_11  and  N_12 
REMARK    5  A    between atoms: N_12  and  N_13 
REMARK       I    between atoms: N_13  and  C_14 
REMARK    6  A    between atoms: C_14  and  C_15 
REMARK    7  A    between atoms: C_15  and  O_16 
REMARK    8  A    between atoms: O_16  and  C_17 
ROOT
HETATM    1  C   UNL     1      24.941  46.489  51.372  1.00  0.00     0.236 C 
HETATM    2  N   UNL     1      23.977  46.526  50.387  1.00  0.00    -0.267 N 
HETATM    3  O   UNL     1      25.437  47.501  51.862  1.00  0.00    -0.272 OA
HETATM    4  H   UNL     1      23.774  45.723  49.794  1.00  0.00     0.190 HD
ENDROOT
BRANCH   1   5
HETATM    5  C   UNL     1      25.312  45.091  51.822  1.00  0.00     0.112 C 
BRANCH   5   6
HETATM    6  C   UNL     1      26.290  44.448  50.842  1.00  0.00     0.096 C 
BRANCH   6   7
HETATM    7  C   UNL     1      27.384  43.738  51.553  1.00  0.00     0.146 A 
HETATM    8  O   UNL     1      27.872  44.352  52.669  1.00  0.00    -0.294 OA
HETATM    9  C   UNL     1      28.792  43.476  53.178  1.00  0.00     0.105 A 
HETATM   10  C   UNL     1      28.832  42.400  52.317  1.00  0.00     0.157 A 
HETATM   11  N   UNL     1      27.926  42.567  51.294  1.00  0.00    -0.238 NA
BRANCH   9  12
HETATM   12  C   UNL     1      29.437  43.857  54.425  1.00  0.00    -0.001 A 
HETATM   13  C   UNL     1      29.008  44.984  55.145  1.00  0.00     0.015 A 
HETATM   14  C   UNL     1      29.604  45.336  56.359  1.00  0.00     0.007 A 
HETATM   15  C   UNL     1      30.656  44.575  56.876  1.00  0.00    -0.062 A 
HETATM   16  C   UNL     1      31.285  44.927  58.191  1.00  0.00     0.048 C 
HETATM   17  C   UNL     1      31.089  43.448  56.167  1.00  0.00     0.007 A 
HETATM   18  C   UNL     1      30.487  43.095  54.954  1.00  0.00     0.015 A 
ENDBRANCH   9  12
ENDBRANCH   6   7
ENDBRANCH   5   6
ENDBRANCH   1   5
BRANCH   2  19
HETATM   19  N   UNL     1      23.604  47.772  49.878  1.00  0.00    -0.266 N 
HETATM   20  C   UNL     1      22.604  47.824  48.926  1.00  0.00     0.260 C 
HETATM   21  O   UNL     1      21.956  46.835  48.587  1.00  0.00    -0.269 OA
HETATM   22  H   UNL     1      24.269  48.536  49.994  1.00  0.00     0.190 HD
BRANCH  20  23
HETATM   23  C   UNL     1      22.421  49.199  48.298  1.00  0.00     0.280 C 
BRANCH  23  24
HETATM   24  O   UNL     1      22.169  50.154  49.324  1.00  0.00    -0.342 OA
BRANCH  24  25
HETATM   25  C   UNL     1      20.881  50.603  49.422  1.00  0.00     0.069 A 
HETATM   26  C   UNL     1      19.887  50.035  50.218  1.00  0.00     0.037 A 
HETATM   27  C   UNL     1      18.596  50.576  50.222  1.00  0.00     0.009 A 
HETATM   28  C   UNL     1      18.283  51.680  49.422  1.00  0.00    -0.062 A 
HETATM   29  C   UNL     1      16.908  52.281  49.447  1.00  0.00     0.048 C 
HETATM   30  C   UNL     1      19.285  52.248  48.628  1.00  0.00     0.009 A 
HETATM   31  C   UNL     1      20.572  51.703  48.622  1.00  0.00     0.037 A 
ENDBRANCH  24  25
ENDBRANCH  23  24
ENDBRANCH  20  23
ENDBRANCH   2  19
TORSDOF 8
ENDMDL
MODEL 5
REMARK VINA RESULT:      -9.3      5.412      6.722
REMARK  8 active torsions:
REMARK  status: ('A' for Active; 'I' for Inactive)
REMARK    1  A    between atoms: C_5  and  C_6 
REMARK    2  A    between atoms: C_8  and  C_9 
REMARK    3  A    between atoms: C_9  and  C_10 
REMARK    4  A    between atoms: C_10  and  C_11 
REMARK       I    between atoms: C_11  and  N_12 
REMARK    5  A    between atoms: N_12  and  N_13 
REMARK       I    between atoms: N_13  and  C_14 
REMARK    6  A    between atoms: C_14  and  C_15 
REMARK    7  A    between atoms: C_15  and  O_16 
REMARK    8  A    between atoms: O_16  and  C_17 
ROOT
HETATM    1  C   UNL     1      26.619  40.237  50.263  1.00  0.00     0.236 C 
HETATM    2  N   UNL     1      26.275  40.740  51.500  1.00  0.00    -0.267 N 
HETATM    3  O   UNL     1      27.709  39.718  50.030  1.00  0.00    -0.272 OA
HETATM    4  H   UNL     1      25.513  41.405  51.624  1.00  0.00     0.190 HD
ENDROOT
BRANCH   1   5
HETATM    5  C   UNL     1      25.524  40.350  49.223  1.00  0.00     0.112 C 
BRANCH   5   6
HETATM    6  C   UNL     1      25.549  41.723  48.557  1.00  0.00     0.096 C 
BRANCH   6   7
HETATM    7  C   UNL     1      24.764  42.719  49.333  1.00  0.00     0.146 A 
HETATM    8  O   UNL     1      25.428  43.350  50.344  1.00  0.00    -0.294 OA
HETATM    9  C   UNL     1      24.531  44.258  50.838  1.00  0.00     0.105 A 
HETATM   10  C   UNL     1      23.365  44.095  50.121  1.00  0.00     0.157 A 
HETATM   11  N   UNL     1      23.524  43.124  49.158  1.00  0.00    -0.238 NA
BRANCH   9  12
HETATM   12  C   UNL     1      25.003  45.126  51.907  1.00  0.00    -0.001 A 
HETATM   13  C   UNL     1      25.243  44.622  53.195  1.00  0.00     0.015 A 
HETATM   14  C   UNL     1      25.726  45.445  54.215  1.00  0.00     0.007 A 
HETATM   15  C   UNL     1      25.968  46.800  53.974  1.00  0.00    -0.062 A 
HETATM   16  C   UNL     1      26.512  47.687  55.054  1.00  0.00     0.048 C 
HETATM   17  C   UNL     1      25.734  47.312  52.693  1.00  0.00     0.007 A 
HETATM   18  C   UNL     1      25.255  46.485  51.671  1.00  0.00     0.015 A 
ENDBRANCH   9  12
ENDBRANCH   6   7
ENDBRANCH   5   6
ENDBRANCH   1   5
BRANCH   2  19
HETATM   19  N   UNL     1      27.240  40.718  52.510  1.00  0.00    -0.266 N 
HETATM   20  C   UNL     1      28.060  41.819  52.663  1.00  0.00     0.260 C 
HETATM   21  O   UNL     1      27.907  42.858  52.020  1.00  0.00    -0.269 OA
HETATM   22  H   UNL     1      27.501  39.805  52.880  1.00  0.00     0.190 HD
BRANCH  20  23
HETATM   23  C   UNL     1      29.199  41.608  53.651  1.00  0.00     0.280 C 
BRANCH  23  24
HETATM   24  O   UNL     1      30.099  42.710  53.570  1.00  0.00    -0.342 OA
BRANCH  24  25
HETATM   25  C   UNL     1      30.212  43.475  54.698  1.00  0.00     0.069 A 
HETATM   26  C   UNL     1      31.107  43.247  55.742  1.00  0.00     0.037 A 
HETATM   27  C   UNL     1      31.117  44.094  56.856  1.00  0.00     0.009 A 
HETATM   28  C   UNL     1      30.225  45.169  56.943  1.00  0.00    -0.062 A 
HETATM   29  C   UNL     1      30.253  46.096  58.122  1.00  0.00     0.048 C 
HETATM   30  C   UNL     1      29.331  45.394  55.891  1.00  0.00     0.009 A 
HETATM   31  C   UNL     1      29.319  44.545  54.782  1.00  0.00     0.037 A 
ENDBRANCH  24  25
ENDBRANCH  23  24
ENDBRANCH  20  23
ENDBRANCH   2  19
TORSDOF 8
ENDMDL
MODEL 6
REMARK VINA RESULT:      -9.1      2.262      3.203
REMARK  8 active torsions:
REMARK  status: ('A' for Active; 'I' for Inactive)
REMARK    1  A    between atoms: C_5  and  C_6 
REMARK    2  A    between atoms: C_8  and  C_9 
REMARK    3  A    between atoms: C_9  and  C_10 
REMARK    4  A    between atoms: C_10  and  C_11 
REMARK       I    between atoms: C_11  and  N_12 
REMARK    5  A    between atoms: N_12  and  N_13 
REMARK       I    between atoms: N_13  and  C_14 
REMARK    6  A    between atoms: C_14  and  C_15 
REMARK    7  A    between atoms: C_15  and  O_16 
REMARK    8  A    between atoms: O_16  and  C_17 
ROOT
HETATM    1  C   UNL     1      25.515  45.520  49.596  1.00  0.00     0.236 C 
HETATM    2  N   UNL     1      25.471  44.248  49.068  1.00  0.00    -0.267 N 
HETATM    3  O   UNL     1      26.496  45.967  50.189  1.00  0.00    -0.272 OA
HETATM    4  H   UNL     1      24.594  43.785  48.836  1.00  0.00     0.190 HD
ENDROOT
BRANCH   1   5
HETATM    5  C   UNL     1      24.261  46.334  49.353  1.00  0.00     0.112 C 
BRANCH   5   6
HETATM    6  C   UNL     1      24.415  47.745  49.916  1.00  0.00     0.096 C 
BRANCH   6   7
HETATM    7  C   UNL     1      23.677  48.741  49.095  1.00  0.00     0.146 A 
HETATM    8  O   UNL     1      22.435  49.085  49.541  1.00  0.00    -0.294 OA
HETATM    9  C   UNL     1      22.010  50.057  48.678  1.00  0.00     0.105 A 
HETATM   10  C   UNL     1      23.006  50.217  47.738  1.00  0.00     0.157 A 
HETATM   11  N   UNL     1      24.068  49.387  48.017  1.00  0.00    -0.238 NA
BRANCH   9  12
HETATM   12  C   UNL     1      20.714  50.657  48.958  1.00  0.00    -0.001 A 
HETATM   13  C   UNL     1      19.860  50.111  49.929  1.00  0.00     0.015 A 
HETATM   14  C   UNL     1      18.628  50.702  50.224  1.00  0.00     0.007 A 
HETATM   15  C   UNL     1      18.215  51.849  49.542  1.00  0.00    -0.062 A 
HETATM   16  C   UNL     1      16.907  52.508  49.868  1.00  0.00     0.048 C 
HETATM   17  C   UNL     1      19.060  52.403  48.573  1.00  0.00     0.007 A 
HETATM   18  C   UNL     1      20.295  51.812  48.284  1.00  0.00     0.015 A 
ENDBRANCH   9  12
ENDBRANCH   6   7
ENDBRANCH   5   6
ENDBRANCH   1   5
BRANCH   2  19
HETATM   19  N   UNL     1      26.568  43.409  49.282  1.00  0.00    -0.266 N 
HETATM   20  C   UNL     1      26.411  42.318  50.114  1.00  0.00     0.260 C 
HETATM   21  O   UNL     1      25.322  41.992  50.588  1.00  0.00    -0.269 OA
HETATM   22  H   UNL     1      27.489  43.791  49.073  1.00  0.00     0.190 HD
BRANCH  20  23
HETATM   23  C   UNL     1      27.712  41.594  50.435  1.00  0.00     0.280 C 
BRANCH  23  24
HETATM   24  O   UNL     1      27.674  41.139  51.784  1.00  0.00    -0.342 OA
BRANCH  24  25
HETATM   25  C   UNL     1      28.169  42.001  52.722  1.00  0.00     0.069 A 
HETATM   26  C   UNL     1      27.403  42.839  53.533  1.00  0.00     0.037 A 
HETATM   27  C   UNL     1      28.028  43.693  54.448  1.00  0.00     0.009 A 
HETATM   28  C   UNL     1      29.422  43.729  54.554  1.00  0.00    -0.062 A 
HETATM   29  C   UNL     1      30.094  44.621  55.556  1.00  0.00     0.048 C 
HETATM   30  C   UNL     1      30.185  42.884  53.741  1.00  0.00     0.009 A 
HETATM   31  C   UNL     1      29.560  42.035  52.824  1.00  0.00     0.037 A 
ENDBRANCH  24  25
ENDBRANCH  23  24
ENDBRANCH  20  23
ENDBRANCH   2  19
TORSDOF 8
ENDMDL
MODEL 7
REMARK VINA RESULT:      -9.0      1.743      2.585
REMARK  8 active torsions:
REMARK  status: ('A' for Active; 'I' for Inactive)
REMARK    1  A    between atoms: C_5  and  C_6 
REMARK    2  A    between atoms: C_8  and  C_9 
REMARK    3  A    between atoms: C_9  and  C_10 
REMARK    4  A    between atoms: C_10  and  C_11 
REMARK       I    between atoms: C_11  and  N_12 
REMARK    5  A    between atoms: N_12  and  N_13 
REMARK       I    between atoms: N_13  and  C_14 
REMARK    6  A    between atoms: C_14  and  C_15 
REMARK    7  A    between atoms: C_15  and  O_16 
REMARK    8  A    between atoms: O_16  and  C_17 
ROOT
HETATM    1  C   UNL     1      25.410  45.605  50.972  1.00  0.00     0.236 C 
HETATM    2  N   UNL     1      25.381  44.277  51.342  1.00  0.00    -0.267 N 
HETATM    3  O   UNL     1      26.148  46.433  51.503  1.00  0.00    -0.272 OA
HETATM    4  H   UNL     1      24.599  43.666  51.113  1.00  0.00     0.190 HD
ENDROOT
BRANCH   1   5
HETATM    5  C   UNL     1      24.479  45.950  49.828  1.00  0.00     0.112 C 
BRANCH   5   6
HETATM    6  C   UNL     1      24.206  47.451  49.786  1.00  0.00     0.096 C 
BRANCH   6   7
HETATM    7  C   UNL     1      22.984  47.759  48.998  1.00  0.00     0.146 A 
HETATM    8  O   UNL     1      22.164  48.719  49.514  1.00  0.00    -0.294 OA
HETATM    9  C   UNL     1      21.177  48.875  48.580  1.00  0.00     0.105 A 
HETATM   10  C   UNL     1      21.438  47.972  47.571  1.00  0.00     0.157 A 
HETATM   11  N   UNL     1      22.596  47.276  47.837  1.00  0.00    -0.238 NA
BRANCH   9  12
HETATM   12  C   UNL     1      20.178  49.899  48.850  1.00  0.00    -0.001 A 
HETATM   13  C   UNL     1      19.056  49.620  49.646  1.00  0.00     0.015 A 
HETATM   14  C   UNL     1      18.111  50.609  49.934  1.00  0.00     0.007 A 
HETATM   15  C   UNL     1      18.260  51.899  49.419  1.00  0.00    -0.062 A 
HETATM   16  C   UNL     1      17.266  52.975  49.744  1.00  0.00     0.048 C 
HETATM   17  C   UNL     1      19.377  52.188  48.626  1.00  0.00     0.007 A 
HETATM   18  C   UNL     1      20.324  51.197  48.343  1.00  0.00     0.015 A 
ENDBRANCH   9  12
ENDBRANCH   6   7
ENDBRANCH   5   6
ENDBRANCH   1   5
BRANCH   2  19
HETATM   19  N   UNL     1      26.176  43.876  52.418  1.00  0.00    -0.266 N 
HETATM   20  C   UNL     1      27.232  43.020  52.176  1.00  0.00     0.260 C 
HETATM   21  O   UNL     1      27.568  42.682  51.041  1.00  0.00    -0.269 OA
HETATM   22  H   UNL     1      25.776  43.978  53.351  1.00  0.00     0.190 HD
BRANCH  20  23
HETATM   23  C   UNL     1      27.900  42.491  53.438  1.00  0.00     0.280 C 
BRANCH  23  24
HETATM   24  O   UNL     1      29.223  43.013  53.522  1.00  0.00    -0.342 OA
BRANCH  24  25
HETATM   25  C   UNL     1      29.494  43.786  54.617  1.00  0.00     0.069 A 
HETATM   26  C   UNL     1      28.794  44.932  54.990  1.00  0.00     0.037 A 
HETATM   27  C   UNL     1      29.178  45.651  56.127  1.00  0.00     0.009 A 
HETATM   28  C   UNL     1      30.273  45.240  56.895  1.00  0.00    -0.062 A 
HETATM   29  C   UNL     1      30.669  45.991  58.132  1.00  0.00     0.048 C 
HETATM   30  C   UNL     1      30.971  44.088  56.517  1.00  0.00     0.009 A 
HETATM   31  C   UNL     1      30.589  43.374  55.378  1.00  0.00     0.037 A 
ENDBRANCH  24  25
ENDBRANCH  23  24
ENDBRANCH  20  23
ENDBRANCH   2  19
TORSDOF 8
ENDMDL
MODEL 8
REMARK VINA RESULT:      -8.9      2.456     11.191
REMARK  8 active torsions:
REMARK  status: ('A' for Active; 'I' for Inactive)
REMARK    1  A    between atoms: C_5  and  C_6 
REMARK    2  A    between atoms: C_8  and  C_9 
REMARK    3  A    between atoms: C_9  and  C_10 
REMARK    4  A    between atoms: C_10  and  C_11 
REMARK       I    between atoms: C_11  and  N_12 
REMARK    5  A    between atoms: N_12  and  N_13 
REMARK       I    between atoms: N_13  and  C_14 
REMARK    6  A    between atoms: C_14  and  C_15 
REMARK    7  A    between atoms: C_15  and  O_16 
REMARK    8  A    between atoms: O_16  and  C_17 
ROOT
HETATM    1  C   UNL     1      23.677  44.499  49.933  1.00  0.00     0.236 C 
HETATM    2  N   UNL     1      23.928  45.763  50.424  1.00  0.00    -0.267 N 
HETATM    3  O   UNL     1      23.178  44.296  48.828  1.00  0.00    -0.272 OA
HETATM    4  H   UNL     1      24.071  45.943  51.416  1.00  0.00     0.190 HD
ENDROOT
BRANCH   1   5
HETATM    5  C   UNL     1      24.103  43.380  50.861  1.00  0.00     0.112 C 
BRANCH   5   6
HETATM    6  C   UNL     1      24.918  42.333  50.107  1.00  0.00     0.096 C 
BRANCH   6   7
HETATM    7  C   UNL     1      26.143  41.953  50.858  1.00  0.00     0.146 A 
HETATM    8  O   UNL     1      26.628  42.886  51.727  1.00  0.00    -0.294 OA
HETATM    9  C   UNL     1      27.686  42.275  52.342  1.00  0.00     0.105 A 
HETATM   10  C   UNL     1      27.801  41.021  51.782  1.00  0.00     0.157 A 
HETATM   11  N   UNL     1      26.809  40.818  50.849  1.00  0.00    -0.238 NA
BRANCH   9  12
HETATM   12  C   UNL     1      28.365  43.036  53.380  1.00  0.00    -0.001 A 
HETATM   13  C   UNL     1      29.624  42.639  53.860  1.00  0.00     0.015 A 
HETATM   14  C   UNL     1      30.294  43.385  54.834  1.00  0.00     0.007 A 
HETATM   15  C   UNL     1      29.713  44.540  55.362  1.00  0.00    -0.062 A 
HETATM   16  C   UNL     1      30.435  45.363  56.388  1.00  0.00     0.048 C 
HETATM   17  C   UNL     1      28.460  44.946  54.889  1.00  0.00     0.007 A 
HETATM   18  C   UNL     1      27.792  44.200  53.911  1.00  0.00     0.015 A 
ENDBRANCH   9  12
ENDBRANCH   6   7
ENDBRANCH   5   6
ENDBRANCH   1   5
BRANCH   2  19
HETATM   19  N   UNL     1      23.527  46.859  49.654  1.00  0.00    -0.266 N 
HETATM   20  C   UNL     1      24.314  47.994  49.664  1.00  0.00     0.260 C 
HETATM   21  O   UNL     1      25.404  48.045  50.234  1.00  0.00    -0.269 OA
HETATM   22  H   UNL     1      22.548  46.891  49.371  1.00  0.00     0.190 HD
BRANCH  20  23
HETATM   23  C   UNL     1      23.683  49.188  48.960  1.00  0.00     0.280 C 
BRANCH  23  24
HETATM   24  O   UNL     1      22.668  49.741  49.792  1.00  0.00    -0.342 OA
BRANCH  24  25
HETATM   25  C   UNL     1      21.572  50.244  49.147  1.00  0.00     0.069 A 
HETATM   26  C   UNL     1      20.824  51.344  49.565  1.00  0.00     0.037 A 
HETATM   27  C   UNL     1      19.709  51.756  48.827  1.00  0.00     0.009 A 
HETATM   28  C   UNL     1      19.323  51.067  47.672  1.00  0.00    -0.062 A 
HETATM   29  C   UNL     1      18.146  51.524  46.861  1.00  0.00     0.048 C 
HETATM   30  C   UNL     1      20.079  49.966  47.256  1.00  0.00     0.009 A 
HETATM   31  C   UNL     1      21.190  49.553  47.997  1.00  0.00     0.037 A 
ENDBRANCH  24  25
ENDBRANCH  23  24
ENDBRANCH  20  23
ENDBRANCH   2  19
TORSDOF 8
ENDMDL
MODEL 9
REMARK VINA RESULT:      -8.8      2.185     11.523
REMARK  8 active torsions:
REMARK  status: ('A' for Active; 'I' for Inactive)
REMARK    1  A    between atoms: C_5  and  C_6 
REMARK    2  A    between atoms: C_8  and  C_9 
REMARK    3  A    between atoms: C_9  and  C_10 
REMARK    4  A    between atoms: C_10  and  C_11 
REMARK       I    between atoms: C_11  and  N_12 
REMARK    5  A    between atoms: N_12  and  N_13 
REMARK       I    between atoms: N_13  and  C_14 
REMARK    6  A    between atoms: C_14  and  C_15 
REMARK    7  A    between atoms: C_15  and  O_16 
REMARK    8  A    between atoms: O_16  and  C_17 
ROOT
HETATM    1  C   UNL     1      24.065  46.934  49.827  1.00  0.00     0.236 C 
HETATM    2  N   UNL     1      23.171  46.013  49.323  1.00  0.00    -0.267 N 
HETATM    3  O   UNL     1      23.766  48.105  50.055  1.00  0.00    -0.272 OA
HETATM    4  H   UNL     1      23.474  45.148  48.878  1.00  0.00     0.190 HD
ENDROOT
BRANCH   1   5
HETATM    5  C   UNL     1      25.442  46.369  50.109  1.00  0.00     0.112 C 
BRANCH   5   6
HETATM    6  C   UNL     1      26.004  46.937  51.409  1.00  0.00     0.096 C 
BRANCH   6   7
HETATM    7  C   UNL     1      26.159  45.881  52.443  1.00  0.00     0.146 A 
HETATM    8  O   UNL     1      27.410  45.728  52.963  1.00  0.00    -0.294 OA
HETATM    9  C   UNL     1      27.273  44.773  53.932  1.00  0.00     0.105 A 
HETATM   10  C   UNL     1      25.953  44.377  53.915  1.00  0.00     0.157 A 
HETATM   11  N   UNL     1      25.247  45.095  52.976  1.00  0.00    -0.238 NA
BRANCH   9  12
HETATM   12  C   UNL     1      28.465  44.449  54.703  1.00  0.00    -0.001 A 
HETATM   13  C   UNL     1      29.162  43.250  54.486  1.00  0.00     0.015 A 
HETATM   14  C   UNL     1      30.324  42.950  55.203  1.00  0.00     0.007 A 
HETATM   15  C   UNL     1      30.809  43.839  56.166  1.00  0.00    -0.062 A 
HETATM   16  C   UNL     1      32.069  43.540  56.921  1.00  0.00     0.048 C 
HETATM   17  C   UNL     1      30.122  45.038  56.388  1.00  0.00     0.007 A 
HETATM   18  C   UNL     1      28.961  45.338  55.666  1.00  0.00     0.015 A 
ENDBRANCH   9  12
ENDBRANCH   6   7
ENDBRANCH   5   6
ENDBRANCH   1   5
BRANCH   2  19
HETATM   19  N   UNL     1      21.888  46.456  48.991  1.00  0.00    -0.266 N 
HETATM   20  C   UNL     1      20.948  45.522  48.604  1.00  0.00     0.260 C 
HETATM   21  O   UNL     1      21.158  44.309  48.642  1.00  0.00    -0.269 OA
HETATM   22  H   UNL     1      21.787  47.443  48.756  1.00  0.00     0.190 HD
BRANCH  20  23
HETATM   23  C   UNL     1      19.657  46.129  48.073  1.00  0.00     0.280 C 
BRANCH  23  24
HETATM   24  O   UNL     1      19.083  46.961  49.077  1.00  0.00    -0.342 OA
BRANCH  24  25
HETATM   25  C   UNL     1      19.080  48.303  48.813  1.00  0.00     0.069 A 
HETATM   26  C   UNL     1      19.537  48.896  47.637  1.00  0.00     0.037 A 
HETATM   27  C   UNL     1      19.498  50.287  47.490  1.00  0.00     0.009 A 
HETATM   28  C   UNL     1      19.015  51.100  48.522  1.00  0.00    -0.062 A 
HETATM   29  C   UNL     1      18.944  52.590  48.357  1.00  0.00     0.048 C 
HETATM   30  C   UNL     1      18.555  50.500  49.699  1.00  0.00     0.009 A 
HETATM   31  C   UNL     1      18.599  49.111  49.845  1.00  0.00     0.037 A 
ENDBRANCH  24  25
ENDBRANCH  23  24
ENDBRANCH  20  23
ENDBRANCH   2  19
TORSDOF 8
ENDMDL
MODEL 10
REMARK VINA RESULT:      -8.7      2.419     11.683
REMARK  8 active torsions:
REMARK  status: ('A' for Active; 'I' for Inactive)
REMARK    1  A    between atoms: C_5  and  C_6 
REMARK    2  A    between atoms: C_8  and  C_9 
REMARK    3  A    between atoms: C_9  and  C_10 
REMARK    4  A    between atoms: C_10  and  C_11 
REMARK       I    between atoms: C_11  and  N_12 
REMARK    5  A    between atoms: N_12  and  N_13 
REMARK       I    between atoms: N_13  and  C_14 
REMARK    6  A    between atoms: C_14  and  C_15 
REMARK    7  A    between atoms: C_15  and  O_16 
REMARK    8  A    between atoms: O_16  and  C_17 
ROOT
HETATM    1  C   UNL     1      23.735  44.601  50.780  1.00  0.00     0.236 C 
HETATM    2  N   UNL     1      23.485  45.710  50.000  1.00  0.00    -0.267 N 
HETATM    3  O   UNL     1      23.104  43.551  50.674  1.00  0.00    -0.272 OA
HETATM    4  H   UNL     1      23.798  46.643  50.264  1.00  0.00     0.190 HD
ENDROOT
BRANCH   1   5
HETATM    5  C   UNL     1      24.880  44.777  51.756  1.00  0.00     0.112 C 
BRANCH   5   6
HETATM    6  C   UNL     1      25.345  46.230  51.788  1.00  0.00     0.096 C 
BRANCH   6   7
HETATM    7  C   UNL     1      26.032  46.554  53.065  1.00  0.00     0.146 A 
HETATM    8  O   UNL     1      27.011  45.689  53.456  1.00  0.00    -0.294 OA
HETATM    9  C   UNL     1      27.534  46.242  54.593  1.00  0.00     0.105 A 
HETATM   10  C   UNL     1      26.814  47.391  54.843  1.00  0.00     0.157 A 
HETATM   11  N   UNL     1      25.870  47.590  53.861  1.00  0.00    -0.238 NA
BRANCH   9  12
HETATM   12  C   UNL     1      28.658  45.545  55.201  1.00  0.00    -0.001 A 
HETATM   13  C   UNL     1      29.278  46.045  56.357  1.00  0.00     0.015 A 
HETATM   14  C   UNL     1      30.336  45.362  56.962  1.00  0.00     0.007 A 
HETATM   15  C   UNL     1      30.809  44.166  56.416  1.00  0.00    -0.062 A 
HETATM   16  C   UNL     1      31.927  43.411  57.073  1.00  0.00     0.048 C 
HETATM   17  C   UNL     1      30.196  43.657  55.266  1.00  0.00     0.007 A 
HETATM   18  C   UNL     1      29.133  44.341  54.664  1.00  0.00     0.015 A 
ENDBRANCH   9  12
ENDBRANCH   6   7
ENDBRANCH   5   6
ENDBRANCH   1   5
BRANCH   2  19
HETATM   19  N   UNL     1      22.418  45.655  49.100  1.00  0.00    -0.266 N 
HETATM   20  C   UNL     1      22.280  46.672  48.177  1.00  0.00     0.260 C 
HETATM   21  O   UNL     1      23.114  47.566  48.041  1.00  0.00    -0.269 OA
HETATM   22  H   UNL     1      21.634  45.053  49.351  1.00  0.00     0.190 HD
BRANCH  20  23
HETATM   23  C   UNL     1      20.978  46.617  47.388  1.00  0.00     0.280 C 
BRANCH  23  24
HETATM   24  O   UNL     1      19.916  46.244  48.261  1.00  0.00    -0.342 OA
BRANCH  24  25
HETATM   25  C   UNL     1      18.814  47.054  48.244  1.00  0.00     0.069 A 
HETATM   26  C   UNL     1      17.499  46.631  48.435  1.00  0.00     0.037 A 
HETATM   27  C   UNL     1      16.449  47.555  48.379  1.00  0.00     0.009 A 
HETATM   28  C   UNL     1      16.702  48.906  48.118  1.00  0.00    -0.062 A 
HETATM   29  C   UNL     1      15.582  49.904  48.086  1.00  0.00     0.048 C 
HETATM   30  C   UNL     1      18.023  49.325  47.930  1.00  0.00     0.009 A 
HETATM   31  C   UNL     1      19.070  48.400  47.981  1.00  0.00     0.037 A 
ENDBRANCH  24  25
ENDBRANCH  23  24
ENDBRANCH  20  23
ENDBRANCH   2  19
TORSDOF 8
ENDMDL
