MODEL 1
REMARK VINA RESULT:      -9.3      0.000      0.000
REMARK  9 active torsions:
REMARK  status: ('A' for Active; 'I' for Inactive)
REMARK    1  A    between atoms: O_2  and  C_3 
REMARK    2  A    between atoms: C_6  and  C_7 
REMARK    3  A    between atoms: C_13  and  C_14 
REMARK       I    between atoms: C_14  and  N_15 
REMARK    4  A    between atoms: N_15  and  N_16 
REMARK    5  A    between atoms: N_16  and  C_17 
REMARK    6  A    between atoms: C_17  and  N_18 
REMARK    7  A    between atoms: N_18  and  C_19 
REMARK    8  A    between atoms: C_19  and  C_20 
REMARK    9  A    between atoms: C_27  and  C_28 
ROOT
HETATM    1  C   UNL     1      27.037  43.537  52.901  1.00  0.00     0.118 C 
HETATM    2  N   UNL     1      26.683  44.723  52.122  1.00  0.00    -0.365 N 
HETATM    3  C   UNL     1      25.760  44.562  51.136  1.00  0.00     0.138 A 
HETATM    4  N   UNL     1      25.584  43.324  50.558  1.00  0.00    -0.240 N 
HETATM    5  N   UNL     1      24.537  43.269  49.721  1.00  0.00    -0.181 NA
HETATM    6  C   UNL     1      24.137  44.540  49.651  1.00  0.00     0.160 A 
HETATM    7  C   UNL     1      24.854  45.405  50.519  1.00  0.00     0.098 A 
HETATM    8  C   UNL     1      26.298  42.118  50.946  1.00  0.00     0.221 C 
HETATM    9  C   UNL     1      27.453  42.437  51.914  1.00  0.00     0.066 C 
HETATM   10  H   UNL     1      26.695  45.604  52.644  1.00  0.00     0.161 HD
ENDROOT
BRANCH   7  11
HETATM   11  C   UNL     1      24.673  46.833  50.710  1.00  0.00     0.275 C 
HETATM   12  N   UNL     1      23.889  47.431  49.736  1.00  0.00    -0.263 N 
HETATM   13  H   UNL     1      23.240  46.883  49.178  1.00  0.00     0.190 HD
HETATM   14  O   UNL     1      25.177  47.467  51.633  1.00  0.00    -0.266 OA
BRANCH  12  15
HETATM   15  N   UNL     1      23.638  48.812  49.790  1.00  0.00    -0.274 N 
HETATM   16  H   UNL     1      22.692  49.051  50.092  1.00  0.00     0.189 HD
BRANCH  15  17
HETATM   17  C   UNL     1      24.204  49.659  48.867  1.00  0.00     0.186 C 
HETATM   18  S   UNL     1      25.815  49.674  48.420  1.00  0.00    -0.040 SA
BRANCH  17  19
HETATM   19  N   UNL     1      23.366  50.596  48.336  1.00  0.00    -0.360 N 
HETATM   20  H   UNL     1      23.467  51.522  48.734  1.00  0.00     0.162 HD
BRANCH  19  21
HETATM   21  C   UNL     1      22.088  50.322  47.698  1.00  0.00     0.187 C 
BRANCH  21  22
HETATM   22  C   UNL     1      20.970  50.760  48.563  1.00  0.00     0.070 A 
HETATM   23  O   UNL     1      20.695  49.983  49.650  1.00  0.00    -0.325 OA
HETATM   24  C   UNL     1      19.625  50.538  50.273  1.00  0.00     0.142 A 
HETATM   25  C   UNL     1      19.202  51.659  49.599  1.00  0.00     0.027 A 
HETATM   26  C   UNL     1      20.069  51.803  48.490  1.00  0.00     0.036 A 
ENDBRANCH  21  22
ENDBRANCH  19  21
ENDBRANCH  17  19
ENDBRANCH  15  17
ENDBRANCH  12  15
ENDBRANCH   7  11
BRANCH   1  27
HETATM   27  C   UNL     1      28.101  43.851  53.934  1.00  0.00    -0.035 A 
HETATM   28  C   UNL     1      29.140  42.932  54.151  1.00  0.00     0.012 A 
HETATM   29  C   UNL     1      30.187  43.230  55.027  1.00  0.00     0.037 A 
HETATM   30  C   UNL     1      30.223  44.451  55.698  1.00  0.00     0.068 A 
HETATM   31  C   UNL     1      29.166  45.347  55.540  1.00  0.00     0.037 A 
HETATM   32  C   UNL     1      28.109  45.044  54.672  1.00  0.00     0.012 A 
BRANCH  30  33
HETATM   33  O   UNL     1      31.317  44.647  56.493  1.00  0.00    -0.356 OA
HETATM   34  C   UNL     1      31.819  43.489  57.151  1.00  0.00     0.210 C 
ENDBRANCH  30  33
ENDBRANCH   1  27
BRANCH   8  35
HETATM   35  C   UNL     1      26.837  41.390  49.734  1.00  0.00     0.409 C 
HETATM   36  F   UNL     1      27.165  42.232  48.727  1.00  0.00    -0.169 F 
HETATM   37  F   UNL     1      27.978  40.729  50.070  1.00  0.00    -0.169 F 
HETATM   38  F   UNL     1      25.996  40.457  49.244  1.00  0.00    -0.169 F 
ENDBRANCH   8  35
TORSDOF 9
ENDMDL
MODEL 2
REMARK VINA RESULT:      -9.0      1.130      1.578
REMARK  9 active torsions:
REMARK  status: ('A' for Active; 'I' for Inactive)
REMARK    1  A    between atoms: O_2  and  C_3 
REMARK    2  A    between atoms: C_6  and  C_7 
REMARK    3  A    between atoms: C_13  and  C_14 
REMARK       I    between atoms: C_14  and  N_15 
REMARK    4  A    between atoms: N_15  and  N_16 
REMARK    5  A    between atoms: N_16  and  C_17 
REMARK    6  A    between atoms: C_17  and  N_18 
REMARK    7  A    between atoms: N_18  and  C_19 
REMARK    8  A    between atoms: C_19  and  C_20 
REMARK    9  A    between atoms: C_27  and  C_28 
ROOT
HETATM    1  C   UNL     1      27.161  43.623  52.937  1.00  0.00     0.118 C 
HETATM    2  N   UNL     1      26.766  44.760  52.109  1.00  0.00    -0.365 N 
HETATM    3  C   UNL     1      25.831  44.531  51.148  1.00  0.00     0.138 A 
HETATM    4  N   UNL     1      25.674  43.263  50.634  1.00  0.00    -0.240 N 
HETATM    5  N   UNL     1      24.615  43.143  49.819  1.00  0.00    -0.181 NA
HETATM    6  C   UNL     1      24.184  44.399  49.695  1.00  0.00     0.160 A 
HETATM    7  C   UNL     1      24.896  45.322  50.507  1.00  0.00     0.098 A 
HETATM    8  C   UNL     1      26.423  42.094  51.066  1.00  0.00     0.221 C 
HETATM    9  C   UNL     1      27.586  42.485  51.998  1.00  0.00     0.066 C 
HETATM   10  H   UNL     1      26.767  45.666  52.587  1.00  0.00     0.161 HD
ENDROOT
BRANCH   7  11
HETATM   11  C   UNL     1      24.684  46.753  50.632  1.00  0.00     0.275 C 
HETATM   12  N   UNL     1      23.629  47.229  49.871  1.00  0.00    -0.263 N 
HETATM   13  H   UNL     1      22.888  46.608  49.557  1.00  0.00     0.190 HD
HETATM   14  O   UNL     1      25.380  47.487  51.330  1.00  0.00    -0.266 OA
BRANCH  12  15
HETATM   15  N   UNL     1      23.317  48.599  49.888  1.00  0.00    -0.274 N 
HETATM   16  H   UNL     1      23.164  48.979  50.823  1.00  0.00     0.189 HD
BRANCH  15  17
HETATM   17  C   UNL     1      22.554  49.151  48.886  1.00  0.00     0.186 C 
HETATM   18  S   UNL     1      23.034  50.385  47.866  1.00  0.00    -0.040 SA
BRANCH  17  19
HETATM   19  N   UNL     1      21.279  48.674  48.785  1.00  0.00    -0.360 N 
HETATM   20  H   UNL     1      21.055  48.265  47.885  1.00  0.00     0.162 HD
BRANCH  19  21
HETATM   21  C   UNL     1      20.142  49.129  49.569  1.00  0.00     0.187 C 
BRANCH  21  22
HETATM   22  C   UNL     1      19.581  50.374  49.000  1.00  0.00     0.070 A 
HETATM   23  O   UNL     1      19.038  50.288  47.752  1.00  0.00    -0.325 OA
HETATM   24  C   UNL     1      18.624  51.535  47.412  1.00  0.00     0.142 A 
HETATM   25  C   UNL     1      18.900  52.426  48.423  1.00  0.00     0.027 A 
HETATM   26  C   UNL     1      19.522  51.677  49.450  1.00  0.00     0.036 A 
ENDBRANCH  21  22
ENDBRANCH  19  21
ENDBRANCH  17  19
ENDBRANCH  15  17
ENDBRANCH  12  15
ENDBRANCH   7  11
BRANCH   1  27
HETATM   27  C   UNL     1      28.235  44.010  53.934  1.00  0.00    -0.035 A 
HETATM   28  C   UNL     1      28.045  45.142  54.743  1.00  0.00     0.012 A 
HETATM   29  C   UNL     1      28.970  45.475  55.736  1.00  0.00     0.037 A 
HETATM   30  C   UNL     1      30.098  44.684  55.947  1.00  0.00     0.068 A 
HETATM   31  C   UNL     1      30.331  43.593  55.111  1.00  0.00     0.037 A 
HETATM   32  C   UNL     1      29.411  43.265  54.106  1.00  0.00     0.012 A 
BRANCH  30  33
HETATM   33  O   UNL     1      30.906  45.084  56.974  1.00  0.00    -0.356 OA
HETATM   34  C   UNL     1      30.344  46.038  57.868  1.00  0.00     0.210 C 
ENDBRANCH  30  33
ENDBRANCH   1  27
BRANCH   8  35
HETATM   35  C   UNL     1      26.959  41.320  49.882  1.00  0.00     0.409 C 
HETATM   36  F   UNL     1      27.286  42.123  48.844  1.00  0.00    -0.169 F 
HETATM   37  F   UNL     1      28.100  40.670  50.241  1.00  0.00    -0.169 F 
HETATM   38  F   UNL     1      26.115  40.370  49.430  1.00  0.00    -0.169 F 
ENDBRANCH   8  35
TORSDOF 9
ENDMDL
MODEL 3
REMARK VINA RESULT:      -8.7      1.819      2.751
REMARK  9 active torsions:
REMARK  status: ('A' for Active; 'I' for Inactive)
REMARK    1  A    between atoms: O_2  and  C_3 
REMARK    2  A    between atoms: C_6  and  C_7 
REMARK    3  A    between atoms: C_13  and  C_14 
REMARK       I    between atoms: C_14  and  N_15 
REMARK    4  A    between atoms: N_15  and  N_16 
REMARK    5  A    between atoms: N_16  and  C_17 
REMARK    6  A    between atoms: C_17  and  N_18 
REMARK    7  A    between atoms: N_18  and  C_19 
REMARK    8  A    between atoms: C_19  and  C_20 
REMARK    9  A    between atoms: C_27  and  C_28 
ROOT
HETATM    1  C   UNL     1      27.290  43.366  52.746  1.00  0.00     0.118 C 
HETATM    2  N   UNL     1      26.872  44.546  51.989  1.00  0.00    -0.365 N 
HETATM    3  C   UNL     1      25.902  44.369  51.052  1.00  0.00     0.138 A 
HETATM    4  N   UNL     1      25.719  43.129  50.483  1.00  0.00    -0.240 N 
HETATM    5  N   UNL     1      24.631  43.055  49.701  1.00  0.00    -0.181 NA
HETATM    6  C   UNL     1      24.204  44.318  49.655  1.00  0.00     0.160 A 
HETATM    7  C   UNL     1      24.949  45.195  50.486  1.00  0.00     0.098 A 
HETATM    8  C   UNL     1      26.475  41.936  50.829  1.00  0.00     0.221 C 
HETATM    9  C   UNL     1      27.673  42.275  51.736  1.00  0.00     0.066 C 
HETATM   10  H   UNL     1      26.896  45.426  52.511  1.00  0.00     0.161 HD
ENDROOT
BRANCH   7  11
HETATM   11  C   UNL     1      24.752  46.619  50.690  1.00  0.00     0.275 C 
HETATM   12  N   UNL     1      23.795  47.174  49.854  1.00  0.00    -0.263 N 
HETATM   13  H   UNL     1      23.082  46.596  49.419  1.00  0.00     0.190 HD
HETATM   14  O   UNL     1      25.380  47.285  51.509  1.00  0.00    -0.266 OA
BRANCH  12  15
HETATM   15  N   UNL     1      23.508  48.547  49.936  1.00  0.00    -0.274 N 
HETATM   16  H   UNL     1      23.726  48.964  50.842  1.00  0.00     0.189 HD
BRANCH  15  17
HETATM   17  C   UNL     1      22.416  49.069  49.284  1.00  0.00     0.186 C 
HETATM   18  S   UNL     1      22.362  50.550  48.510  1.00  0.00    -0.040 SA
BRANCH  17  19
HETATM   19  N   UNL     1      21.277  48.320  49.348  1.00  0.00    -0.360 N 
HETATM   20  H   UNL     1      21.190  47.761  50.188  1.00  0.00     0.162 HD
BRANCH  19  21
HETATM   21  C   UNL     1      20.501  47.863  48.206  1.00  0.00     0.187 C 
BRANCH  21  22
HETATM   22  C   UNL     1      21.037  46.584  47.690  1.00  0.00     0.070 A 
HETATM   23  O   UNL     1      21.699  46.632  46.498  1.00  0.00    -0.325 OA
HETATM   24  C   UNL     1      22.068  45.361  46.198  1.00  0.00     0.142 A 
HETATM   25  C   UNL     1      21.647  44.493  47.177  1.00  0.00     0.027 A 
HETATM   26  C   UNL     1      20.977  45.282  48.142  1.00  0.00     0.036 A 
ENDBRANCH  21  22
ENDBRANCH  19  21
ENDBRANCH  17  19
ENDBRANCH  15  17
ENDBRANCH  12  15
ENDBRANCH   7  11
BRANCH   1  27
HETATM   27  C   UNL     1      28.401  43.698  53.721  1.00  0.00    -0.035 A 
HETATM   28  C   UNL     1      28.288  44.842  54.527  1.00  0.00     0.012 A 
HETATM   29  C   UNL     1      29.247  45.128  55.502  1.00  0.00     0.037 A 
HETATM   30  C   UNL     1      30.334  44.277  55.697  1.00  0.00     0.068 A 
HETATM   31  C   UNL     1      30.492  43.172  54.863  1.00  0.00     0.037 A 
HETATM   32  C   UNL     1      29.537  42.891  53.876  1.00  0.00     0.012 A 
BRANCH  30  33
HETATM   33  O   UNL     1      31.181  44.637  56.707  1.00  0.00    -0.356 OA
HETATM   34  C   UNL     1      31.888  43.570  57.331  1.00  0.00     0.210 C 
ENDBRANCH  30  33
ENDBRANCH   1  27
BRANCH   8  35
HETATM   35  C   UNL     1      26.963  41.219  49.589  1.00  0.00     0.409 C 
HETATM   36  F   UNL     1      27.242  42.071  48.575  1.00  0.00    -0.169 F 
HETATM   37  F   UNL     1      28.121  40.561  49.869  1.00  0.00    -0.169 F 
HETATM   38  F   UNL     1      26.105  40.286  49.130  1.00  0.00    -0.169 F 
ENDBRANCH   8  35
TORSDOF 9
ENDMDL
MODEL 4
REMARK VINA RESULT:      -8.6      1.656      2.201
REMARK  9 active torsions:
REMARK  status: ('A' for Active; 'I' for Inactive)
REMARK    1  A    between atoms: O_2  and  C_3 
REMARK    2  A    between atoms: C_6  and  C_7 
REMARK    3  A    between atoms: C_13  and  C_14 
REMARK       I    between atoms: C_14  and  N_15 
REMARK    4  A    between atoms: N_15  and  N_16 
REMARK    5  A    between atoms: N_16  and  C_17 
REMARK    6  A    between atoms: C_17  and  N_18 
REMARK    7  A    between atoms: N_18  and  C_19 
REMARK    8  A    between atoms: C_19  and  C_20 
REMARK    9  A    between atoms: C_27  and  C_28 
ROOT
HETATM    1  C   UNL     1      27.365  41.953  52.330  1.00  0.00     0.118 C 
HETATM    2  N   UNL     1      26.486  42.835  51.565  1.00  0.00    -0.365 N 
HETATM    3  C   UNL     1      25.758  42.269  50.566  1.00  0.00     0.138 A 
HETATM    4  N   UNL     1      26.201  41.111  49.968  1.00  0.00    -0.240 N 
HETATM    5  N   UNL     1      25.313  40.574  49.117  1.00  0.00    -0.181 NA
HETATM    6  C   UNL     1      24.351  41.496  49.062  1.00  0.00     0.160 A 
HETATM    7  C   UNL     1      24.560  42.583  49.952  1.00  0.00     0.098 A 
HETATM    8  C   UNL     1      27.407  40.391  50.345  1.00  0.00     0.221 C 
HETATM    9  C   UNL     1      28.263  41.208  51.332  1.00  0.00     0.066 C 
HETATM   10  H   UNL     1      26.071  43.603  52.100  1.00  0.00     0.161 HD
ENDROOT
BRANCH   7  11
HETATM   11  C   UNL     1      23.712  43.743  50.162  1.00  0.00     0.275 C 
HETATM   12  N   UNL     1      24.271  44.930  49.714  1.00  0.00    -0.263 N 
HETATM   13  H   UNL     1      25.008  44.930  49.014  1.00  0.00     0.190 HD
HETATM   14  O   UNL     1      22.610  43.694  50.702  1.00  0.00    -0.266 OA
BRANCH  12  15
HETATM   15  N   UNL     1      23.565  46.135  49.863  1.00  0.00    -0.274 N 
HETATM   16  H   UNL     1      22.637  46.128  49.434  1.00  0.00     0.189 HD
BRANCH  15  17
HETATM   17  C   UNL     1      24.228  47.338  49.835  1.00  0.00     0.186 C 
HETATM   18  S   UNL     1      25.887  47.537  49.906  1.00  0.00    -0.040 SA
BRANCH  17  19
HETATM   19  N   UNL     1      23.435  48.449  49.812  1.00  0.00    -0.360 N 
HETATM   20  H   UNL     1      22.792  48.520  50.592  1.00  0.00     0.162 HD
BRANCH  19  21
HETATM   21  C   UNL     1      23.065  49.199  48.622  1.00  0.00     0.187 C 
BRANCH  21  22
HETATM   22  C   UNL     1      21.834  49.983  48.862  1.00  0.00     0.070 A 
HETATM   23  O   UNL     1      20.806  49.336  49.484  1.00  0.00    -0.325 OA
HETATM   24  C   UNL     1      19.777  50.217  49.568  1.00  0.00     0.142 A 
HETATM   25  C   UNL     1      20.125  51.421  49.003  1.00  0.00     0.027 A 
HETATM   26  C   UNL     1      21.454  51.271  48.542  1.00  0.00     0.036 A 
ENDBRANCH  21  22
ENDBRANCH  19  21
ENDBRANCH  17  19
ENDBRANCH  15  17
ENDBRANCH  12  15
ENDBRANCH   7  11
BRANCH   1  27
HETATM   27  C   UNL     1      28.144  42.720  53.380  1.00  0.00    -0.035 A 
HETATM   28  C   UNL     1      29.368  42.209  53.838  1.00  0.00     0.012 A 
HETATM   29  C   UNL     1      30.156  42.935  54.735  1.00  0.00     0.037 A 
HETATM   30  C   UNL     1      29.742  44.187  55.188  1.00  0.00     0.068 A 
HETATM   31  C   UNL     1      28.500  44.679  54.790  1.00  0.00     0.037 A 
HETATM   32  C   UNL     1      27.703  43.946  53.900  1.00  0.00     0.012 A 
BRANCH  30  33
HETATM   33  O   UNL     1      30.615  44.821  56.027  1.00  0.00    -0.356 OA
HETATM   34  C   UNL     1      31.431  43.972  56.827  1.00  0.00     0.210 C 
ENDBRANCH  30  33
ENDBRANCH   1  27
BRANCH   8  35
HETATM   35  C   UNL     1      28.234  40.035  49.128  1.00  0.00     0.409 C 
HETATM   36  F   UNL     1      27.649  39.086  48.363  1.00  0.00    -0.169 F 
HETATM   37  F   UNL     1      28.377  41.134  48.338  1.00  0.00    -0.169 F 
HETATM   38  F   UNL     1      29.484  39.624  49.426  1.00  0.00    -0.169 F 
ENDBRANCH   8  35
TORSDOF 9
ENDMDL
MODEL 5
REMARK VINA RESULT:      -8.5      3.666      9.995
REMARK  9 active torsions:
REMARK  status: ('A' for Active; 'I' for Inactive)
REMARK    1  A    between atoms: O_2  and  C_3 
REMARK    2  A    between atoms: C_6  and  C_7 
REMARK    3  A    between atoms: C_13  and  C_14 
REMARK       I    between atoms: C_14  and  N_15 
REMARK    4  A    between atoms: N_15  and  N_16 
REMARK    5  A    between atoms: N_16  and  C_17 
REMARK    6  A    between atoms: C_17  and  N_18 
REMARK    7  A    between atoms: N_18  and  C_19 
REMARK    8  A    between atoms: C_19  and  C_20 
REMARK    9  A    between atoms: C_27  and  C_28 
ROOT
HETATM    1  C   UNL     1      22.793  48.208  49.179  1.00  0.00     0.118 C 
HETATM    2  N   UNL     1      23.305  46.848  49.335  1.00  0.00    -0.365 N 
HETATM    3  C   UNL     1      24.502  46.705  49.966  1.00  0.00     0.138 A 
HETATM    4  N   UNL     1      25.402  47.747  49.969  1.00  0.00    -0.240 N 
HETATM    5  N   UNL     1      26.465  47.534  50.760  1.00  0.00    -0.181 NA
HETATM    6  C   UNL     1      26.307  46.267  51.145  1.00  0.00     0.160 A 
HETATM    7  C   UNL     1      25.092  45.687  50.691  1.00  0.00     0.098 A 
HETATM    8  C   UNL     1      25.168  49.049  49.364  1.00  0.00     0.221 C 
HETATM    9  C   UNL     1      23.888  49.047  48.505  1.00  0.00     0.066 C 
HETATM   10  H   UNL     1      22.590  46.128  49.471  1.00  0.00     0.161 HD
ENDROOT
BRANCH   7  11
HETATM   11  C   UNL     1      24.594  44.345  50.935  1.00  0.00     0.275 C 
HETATM   12  N   UNL     1      25.583  43.374  50.928  1.00  0.00    -0.263 N 
HETATM   13  H   UNL     1      26.557  43.617  51.089  1.00  0.00     0.190 HD
HETATM   14  O   UNL     1      23.409  44.080  51.115  1.00  0.00    -0.266 OA
BRANCH  12  15
HETATM   15  N   UNL     1      25.242  42.028  51.141  1.00  0.00    -0.274 N 
HETATM   16  H   UNL     1      24.658  41.873  51.964  1.00  0.00     0.189 HD
BRANCH  15  17
HETATM   17  C   UNL     1      26.138  41.028  50.846  1.00  0.00     0.186 C 
HETATM   18  S   UNL     1      26.198  40.166  49.415  1.00  0.00    -0.040 SA
BRANCH  17  19
HETATM   19  N   UNL     1      26.997  40.690  51.852  1.00  0.00    -0.360 N 
HETATM   20  H   UNL     1      26.549  40.504  52.740  1.00  0.00     0.162 HD
BRANCH  19  21
HETATM   21  C   UNL     1      28.403  41.058  51.921  1.00  0.00     0.187 C 
BRANCH  21  22
HETATM   22  C   UNL     1      28.606  42.155  52.892  1.00  0.00     0.070 A 
HETATM   23  O   UNL     1      27.503  42.877  53.243  1.00  0.00    -0.325 OA
HETATM   24  C   UNL     1      27.918  43.843  54.101  1.00  0.00     0.142 A 
HETATM   25  C   UNL     1      29.275  43.758  54.304  1.00  0.00     0.027 A 
HETATM   26  C   UNL     1      29.723  42.668  53.520  1.00  0.00     0.036 A 
ENDBRANCH  21  22
ENDBRANCH  19  21
ENDBRANCH  17  19
ENDBRANCH  15  17
ENDBRANCH  12  15
ENDBRANCH   7  11
BRANCH   1  27
HETATM   27  C   UNL     1      21.478  48.221  48.426  1.00  0.00    -0.035 A 
HETATM   28  C   UNL     1      20.684  47.064  48.409  1.00  0.00     0.012 A 
HETATM   29  C   UNL     1      19.424  47.069  47.804  1.00  0.00     0.037 A 
HETATM   30  C   UNL     1      18.929  48.228  47.209  1.00  0.00     0.068 A 
HETATM   31  C   UNL     1      19.732  49.367  47.163  1.00  0.00     0.037 A 
HETATM   32  C   UNL     1      21.001  49.360  47.759  1.00  0.00     0.012 A 
BRANCH  30  33
HETATM   33  O   UNL     1      17.670  48.124  46.689  1.00  0.00    -0.356 OA
HETATM   34  C   UNL     1      16.761  47.315  47.427  1.00  0.00     0.210 C 
ENDBRANCH  30  33
ENDBRANCH   1  27
BRANCH   8  35
HETATM   35  C   UNL     1      26.347  49.478  48.517  1.00  0.00     0.409 C 
HETATM   36  F   UNL     1      25.972  49.916  47.294  1.00  0.00    -0.169 F 
HETATM   37  F   UNL     1      26.987  50.516  49.120  1.00  0.00    -0.169 F 
HETATM   38  F   UNL     1      27.273  48.512  48.351  1.00  0.00    -0.169 F 
ENDBRANCH   8  35
TORSDOF 9
ENDMDL
MODEL 6
REMARK VINA RESULT:      -8.4      3.323      5.827
REMARK  9 active torsions:
REMARK  status: ('A' for Active; 'I' for Inactive)
REMARK    1  A    between atoms: O_2  and  C_3 
REMARK    2  A    between atoms: C_6  and  C_7 
REMARK    3  A    between atoms: C_13  and  C_14 
REMARK       I    between atoms: C_14  and  N_15 
REMARK    4  A    between atoms: N_15  and  N_16 
REMARK    5  A    between atoms: N_16  and  C_17 
REMARK    6  A    between atoms: C_17  and  N_18 
REMARK    7  A    between atoms: N_18  and  C_19 
REMARK    8  A    between atoms: C_19  and  C_20 
REMARK    9  A    between atoms: C_27  and  C_28 
ROOT
HETATM    1  C   UNL     1      27.201  42.438  50.402  1.00  0.00     0.118 C 
HETATM    2  N   UNL     1      25.893  43.092  50.390  1.00  0.00    -0.365 N 
HETATM    3  C   UNL     1      25.771  44.245  51.102  1.00  0.00     0.138 A 
HETATM    4  N   UNL     1      26.612  44.484  52.166  1.00  0.00    -0.240 N 
HETATM    5  N   UNL     1      26.493  45.720  52.675  1.00  0.00    -0.181 NA
HETATM    6  C   UNL     1      25.447  46.220  52.015  1.00  0.00     0.160 A 
HETATM    7  C   UNL     1      24.949  45.352  51.007  1.00  0.00     0.098 A 
HETATM    8  C   UNL     1      27.682  43.598  52.595  1.00  0.00     0.221 C 
HETATM    9  C   UNL     1      27.612  42.241  51.868  1.00  0.00     0.066 C 
HETATM   10  H   UNL     1      25.370  42.998  49.515  1.00  0.00     0.161 HD
ENDROOT
BRANCH   7  11
HETATM   11  C   UNL     1      23.841  45.579  50.097  1.00  0.00     0.275 C 
HETATM   12  N   UNL     1      23.441  46.905  50.025  1.00  0.00    -0.263 N 
HETATM   13  H   UNL     1      24.070  47.656  50.296  1.00  0.00     0.190 HD
HETATM   14  O   UNL     1      23.289  44.688  49.457  1.00  0.00    -0.266 OA
BRANCH  12  15
HETATM   15  N   UNL     1      22.373  47.268  49.190  1.00  0.00    -0.274 N 
HETATM   16  H   UNL     1      22.125  46.558  48.499  1.00  0.00     0.189 HD
BRANCH  15  17
HETATM   17  C   UNL     1      22.217  48.574  48.787  1.00  0.00     0.186 C 
HETATM   18  S   UNL     1      20.947  49.166  47.876  1.00  0.00    -0.040 SA
BRANCH  17  19
HETATM   19  N   UNL     1      23.235  49.419  49.122  1.00  0.00    -0.360 N 
HETATM   20  H   UNL     1      23.075  49.952  49.968  1.00  0.00     0.162 HD
BRANCH  19  21
HETATM   21  C   UNL     1      24.201  49.986  48.194  1.00  0.00     0.187 C 
BRANCH  21  22
HETATM   22  C   UNL     1      25.576  49.586  48.565  1.00  0.00     0.070 A 
HETATM   23  O   UNL     1      25.706  48.438  49.291  1.00  0.00    -0.325 OA
HETATM   24  C   UNL     1      27.029  48.282  49.551  1.00  0.00     0.142 A 
HETATM   25  C   UNL     1      27.753  49.316  49.008  1.00  0.00     0.027 A 
HETATM   26  C   UNL     1      26.814  50.163  48.372  1.00  0.00     0.036 A 
ENDBRANCH  21  22
ENDBRANCH  19  21
ENDBRANCH  17  19
ENDBRANCH  15  17
ENDBRANCH  12  15
ENDBRANCH   7  11
BRANCH   1  27
HETATM   27  C   UNL     1      27.183  41.149  49.605  1.00  0.00    -0.035 A 
HETATM   28  C   UNL     1      27.616  41.161  48.270  1.00  0.00     0.012 A 
HETATM   29  C   UNL     1      27.700  39.976  47.535  1.00  0.00     0.037 A 
HETATM   30  C   UNL     1      27.361  38.756  48.117  1.00  0.00     0.068 A 
HETATM   31  C   UNL     1      26.870  38.736  49.421  1.00  0.00     0.037 A 
HETATM   32  C   UNL     1      26.773  39.926  50.156  1.00  0.00     0.012 A 
BRANCH  30  33
HETATM   33  O   UNL     1      27.526  37.662  47.315  1.00  0.00    -0.356 OA
HETATM   34  C   UNL     1      28.866  37.369  46.935  1.00  0.00     0.210 C 
ENDBRANCH  30  33
ENDBRANCH   1  27
BRANCH   8  35
HETATM   35  C   UNL     1      27.642  43.376  54.091  1.00  0.00     0.409 C 
HETATM   36  F   UNL     1      26.381  43.244  54.561  1.00  0.00    -0.169 F 
HETATM   37  F   UNL     1      28.291  42.219  54.397  1.00  0.00    -0.169 F 
HETATM   38  F   UNL     1      28.255  44.347  54.798  1.00  0.00    -0.169 F 
ENDBRANCH   8  35
TORSDOF 9
ENDMDL
MODEL 7
REMARK VINA RESULT:      -8.1      5.145      7.770
REMARK  9 active torsions:
REMARK  status: ('A' for Active; 'I' for Inactive)
REMARK    1  A    between atoms: O_2  and  C_3 
REMARK    2  A    between atoms: C_6  and  C_7 
REMARK    3  A    between atoms: C_13  and  C_14 
REMARK       I    between atoms: C_14  and  N_15 
REMARK    4  A    between atoms: N_15  and  N_16 
REMARK    5  A    between atoms: N_16  and  C_17 
REMARK    6  A    between atoms: C_17  and  N_18 
REMARK    7  A    between atoms: N_18  and  C_19 
REMARK    8  A    between atoms: C_19  and  C_20 
REMARK    9  A    between atoms: C_27  and  C_28 
ROOT
HETATM    1  C   UNL     1      28.333  44.241  52.757  1.00  0.00     0.118 C 
HETATM    2  N   UNL     1      27.810  42.911  52.448  1.00  0.00    -0.365 N 
HETATM    3  C   UNL     1      27.005  42.800  51.358  1.00  0.00     0.138 A 
HETATM    4  N   UNL     1      26.304  43.898  50.910  1.00  0.00    -0.240 N 
HETATM    5  N   UNL     1      25.682  43.694  49.739  1.00  0.00    -0.181 NA
HETATM    6  C   UNL     1      25.868  42.392  49.519  1.00  0.00     0.160 A 
HETATM    7  C   UNL     1      26.696  41.769  50.490  1.00  0.00     0.098 A 
HETATM    8  C   UNL     1      26.375  45.225  51.500  1.00  0.00     0.221 C 
HETATM    9  C   UNL     1      27.140  45.205  52.837  1.00  0.00     0.066 C 
HETATM   10  H   UNL     1      28.438  42.135  52.676  1.00  0.00     0.161 HD
ENDROOT
BRANCH   7  11
HETATM   11  C   UNL     1      27.116  40.380  50.551  1.00  0.00     0.275 C 
HETATM   12  N   UNL     1      26.143  39.485  50.136  1.00  0.00    -0.263 N 
HETATM   13  H   UNL     1      25.379  39.783  49.536  1.00  0.00     0.190 HD
HETATM   14  O   UNL     1      28.221  40.019  50.947  1.00  0.00    -0.266 OA
BRANCH  12  15
HETATM   15  N   UNL     1      26.410  38.106  50.152  1.00  0.00    -0.274 N 
HETATM   16  H   UNL     1      26.831  37.774  51.021  1.00  0.00     0.189 HD
BRANCH  15  17
HETATM   17  C   UNL     1      26.815  37.463  49.006  1.00  0.00     0.186 C 
HETATM   18  S   UNL     1      28.352  37.518  48.352  1.00  0.00    -0.040 SA
BRANCH  17  19
HETATM   19  N   UNL     1      25.840  36.782  48.336  1.00  0.00    -0.360 N 
HETATM   20  H   UNL     1      25.631  35.867  48.716  1.00  0.00     0.162 HD
BRANCH  19  21
HETATM   21  C   UNL     1      25.477  36.982  46.942  1.00  0.00     0.187 C 
BRANCH  21  22
HETATM   22  C   UNL     1      24.588  38.156  46.798  1.00  0.00     0.070 A 
HETATM   23  O   UNL     1      25.047  39.339  47.302  1.00  0.00    -0.325 OA
HETATM   24  C   UNL     1      24.072  40.260  47.100  1.00  0.00     0.142 A 
HETATM   25  C   UNL     1      22.987  39.687  46.479  1.00  0.00     0.027 A 
HETATM   26  C   UNL     1      23.318  38.325  46.286  1.00  0.00     0.036 A 
ENDBRANCH  21  22
ENDBRANCH  19  21
ENDBRANCH  17  19
ENDBRANCH  15  17
ENDBRANCH  12  15
ENDBRANCH   7  11
BRANCH   1  27
HETATM   27  C   UNL     1      29.177  44.225  54.016  1.00  0.00    -0.035 A 
HETATM   28  C   UNL     1      29.050  45.273  54.942  1.00  0.00     0.012 A 
HETATM   29  C   UNL     1      29.743  45.244  56.154  1.00  0.00     0.037 A 
HETATM   30  C   UNL     1      30.571  44.168  56.471  1.00  0.00     0.068 A 
HETATM   31  C   UNL     1      30.756  43.152  55.535  1.00  0.00     0.037 A 
HETATM   32  C   UNL     1      30.071  43.186  54.313  1.00  0.00     0.012 A 
BRANCH  30  33
HETATM   33  O   UNL     1      31.161  44.230  57.702  1.00  0.00    -0.356 OA
HETATM   34  C   UNL     1      30.795  45.344  58.509  1.00  0.00     0.210 C 
ENDBRANCH  30  33
ENDBRANCH   1  27
BRANCH   8  35
HETATM   35  C   UNL     1      24.992  45.802  51.715  1.00  0.00     0.409 C 
HETATM   36  F   UNL     1      24.102  44.872  52.129  1.00  0.00    -0.169 F 
HETATM   37  F   UNL     1      25.041  46.751  52.690  1.00  0.00    -0.169 F 
HETATM   38  F   UNL     1      24.486  46.413  50.624  1.00  0.00    -0.169 F 
ENDBRANCH   8  35
TORSDOF 9
ENDMDL
MODEL 8
REMARK VINA RESULT:      -8.1      3.522      5.169
REMARK  9 active torsions:
REMARK  status: ('A' for Active; 'I' for Inactive)
REMARK    1  A    between atoms: O_2  and  C_3 
REMARK    2  A    between atoms: C_6  and  C_7 
REMARK    3  A    between atoms: C_13  and  C_14 
REMARK       I    between atoms: C_14  and  N_15 
REMARK    4  A    between atoms: N_15  and  N_16 
REMARK    5  A    between atoms: N_16  and  C_17 
REMARK    6  A    between atoms: C_17  and  N_18 
REMARK    7  A    between atoms: N_18  and  C_19 
REMARK    8  A    between atoms: C_19  and  C_20 
REMARK    9  A    between atoms: C_27  and  C_28 
ROOT
HETATM    1  C   UNL     1      27.037  43.094  50.704  1.00  0.00     0.118 C 
HETATM    2  N   UNL     1      25.773  43.770  50.419  1.00  0.00    -0.365 N 
HETATM    3  C   UNL     1      25.567  44.976  51.014  1.00  0.00     0.138 A 
HETATM    4  N   UNL     1      26.221  45.281  52.187  1.00  0.00    -0.240 N 
HETATM    5  N   UNL     1      26.056  46.554  52.576  1.00  0.00    -0.181 NA
HETATM    6  C   UNL     1      25.155  47.022  51.711  1.00  0.00     0.160 A 
HETATM    7  C   UNL     1      24.809  46.088  50.698  1.00  0.00     0.098 A 
HETATM    8  C   UNL     1      27.173  44.410  52.857  1.00  0.00     0.221 C 
HETATM    9  C   UNL     1      27.185  43.002  52.230  1.00  0.00     0.066 C 
HETATM   10  H   UNL     1      25.403  43.619  49.476  1.00  0.00     0.161 HD
ENDROOT
BRANCH   7  11
HETATM   11  C   UNL     1      23.881  46.266  49.596  1.00  0.00     0.275 C 
HETATM   12  N   UNL     1      23.233  47.492  49.605  1.00  0.00    -0.263 N 
HETATM   13  H   UNL     1      23.623  48.286  50.105  1.00  0.00     0.190 HD
HETATM   14  O   UNL     1      23.668  45.412  48.739  1.00  0.00    -0.266 OA
BRANCH  12  15
HETATM   15  N   UNL     1      22.299  47.796  48.601  1.00  0.00    -0.274 N 
HETATM   16  H   UNL     1      22.654  48.427  47.880  1.00  0.00     0.189 HD
BRANCH  15  17
HETATM   17  C   UNL     1      20.966  47.928  48.908  1.00  0.00     0.186 C 
HETATM   18  S   UNL     1      19.713  47.090  48.183  1.00  0.00    -0.040 SA
BRANCH  17  19
HETATM   19  N   UNL     1      20.667  48.877  49.842  1.00  0.00    -0.360 N 
HETATM   20  H   UNL     1      21.406  49.053  50.512  1.00  0.00     0.162 HD
BRANCH  19  21
HETATM   21  C   UNL     1      19.327  49.245  50.272  1.00  0.00     0.187 C 
BRANCH  21  22
HETATM   22  C   UNL     1      18.971  50.591  49.770  1.00  0.00     0.070 A 
HETATM   23  O   UNL     1      17.838  51.155  50.279  1.00  0.00    -0.325 OA
HETATM   24  C   UNL     1      17.681  52.354  49.662  1.00  0.00     0.142 A 
HETATM   25  C   UNL     1      18.694  52.567  48.758  1.00  0.00     0.027 A 
HETATM   26  C   UNL     1      19.528  51.426  48.824  1.00  0.00     0.036 A 
ENDBRANCH  21  22
ENDBRANCH  19  21
ENDBRANCH  17  19
ENDBRANCH  15  17
ENDBRANCH  12  15
ENDBRANCH   7  11
BRANCH   1  27
HETATM   27  C   UNL     1      27.114  41.749  50.011  1.00  0.00    -0.035 A 
HETATM   28  C   UNL     1      28.111  40.836  50.391  1.00  0.00     0.012 A 
HETATM   29  C   UNL     1      28.154  39.553  49.840  1.00  0.00     0.037 A 
HETATM   30  C   UNL     1      27.202  39.152  48.905  1.00  0.00     0.068 A 
HETATM   31  C   UNL     1      26.244  40.067  48.472  1.00  0.00     0.037 A 
HETATM   32  C   UNL     1      26.207  41.359  49.015  1.00  0.00     0.012 A 
BRANCH  30  33
HETATM   33  O   UNL     1      27.320  37.862  48.471  1.00  0.00    -0.356 OA
HETATM   34  C   UNL     1      27.005  36.855  49.427  1.00  0.00     0.210 C 
ENDBRANCH  30  33
ENDBRANCH   1  27
BRANCH   8  35
HETATM   35  C   UNL     1      26.871  44.304  54.336  1.00  0.00     0.409 C 
HETATM   36  F   UNL     1      27.337  43.156  54.878  1.00  0.00    -0.169 F 
HETATM   37  F   UNL     1      27.485  45.321  55.000  1.00  0.00    -0.169 F 
HETATM   38  F   UNL     1      25.559  44.405  54.628  1.00  0.00    -0.169 F 
ENDBRANCH   8  35
TORSDOF 9
ENDMDL
MODEL 9
REMARK VINA RESULT:      -7.9      5.117      8.422
REMARK  9 active torsions:
REMARK  status: ('A' for Active; 'I' for Inactive)
REMARK    1  A    between atoms: O_2  and  C_3 
REMARK    2  A    between atoms: C_6  and  C_7 
REMARK    3  A    between atoms: C_13  and  C_14 
REMARK       I    between atoms: C_14  and  N_15 
REMARK    4  A    between atoms: N_15  and  N_16 
REMARK    5  A    between atoms: N_16  and  C_17 
REMARK    6  A    between atoms: C_17  and  N_18 
REMARK    7  A    between atoms: N_18  and  C_19 
REMARK    8  A    between atoms: C_19  and  C_20 
REMARK    9  A    between atoms: C_27  and  C_28 
ROOT
HETATM    1  C   UNL     1      28.040  44.192  52.382  1.00  0.00     0.118 C 
HETATM    2  N   UNL     1      27.573  42.840  52.077  1.00  0.00    -0.365 N 
HETATM    3  C   UNL     1      26.858  42.675  50.932  1.00  0.00     0.138 A 
HETATM    4  N   UNL     1      26.170  43.741  50.395  1.00  0.00    -0.240 N 
HETATM    5  N   UNL     1      25.647  43.485  49.187  1.00  0.00    -0.181 NA
HETATM    6  C   UNL     1      25.879  42.181  49.025  1.00  0.00     0.160 A 
HETATM    7  C   UNL     1      26.642  41.610  50.077  1.00  0.00     0.098 A 
HETATM    8  C   UNL     1      26.165  45.087  50.944  1.00  0.00     0.221 C 
HETATM    9  C   UNL     1      26.824  45.128  52.337  1.00  0.00     0.066 C 
HETATM   10  H   UNL     1      28.198  42.088  52.378  1.00  0.00     0.161 HD
ENDROOT
BRANCH   7  11
HETATM   11  C   UNL     1      27.088  40.235  50.216  1.00  0.00     0.275 C 
HETATM   12  N   UNL     1      26.178  39.304  49.740  1.00  0.00    -0.263 N 
HETATM   13  H   UNL     1      25.467  39.566  49.064  1.00  0.00     0.190 HD
HETATM   14  O   UNL     1      28.159  39.913  50.723  1.00  0.00    -0.266 OA
BRANCH  12  15
HETATM   15  N   UNL     1      26.475  37.933  49.820  1.00  0.00    -0.274 N 
HETATM   16  H   UNL     1      27.130  37.693  50.566  1.00  0.00     0.189 HD
BRANCH  15  17
HETATM   17  C   UNL     1      26.563  37.173  48.678  1.00  0.00     0.186 C 
HETATM   18  S   UNL     1      27.794  37.250  47.550  1.00  0.00    -0.040 SA
BRANCH  17  19
HETATM   19  N   UNL     1      25.508  36.339  48.442  1.00  0.00    -0.360 N 
HETATM   20  H   UNL     1      25.466  35.533  49.053  1.00  0.00     0.162 HD
BRANCH  19  21
HETATM   21  C   UNL     1      24.804  36.206  47.176  1.00  0.00     0.187 C 
BRANCH  21  22
HETATM   22  C   UNL     1      23.359  35.987  47.405  1.00  0.00     0.070 A 
HETATM   23  O   UNL     1      22.506  36.900  46.857  1.00  0.00    -0.325 OA
HETATM   24  C   UNL     1      21.249  36.535  47.216  1.00  0.00     0.142 A 
HETATM   25  C   UNL     1      21.281  35.402  47.995  1.00  0.00     0.027 A 
HETATM   26  C   UNL     1      22.645  35.048  48.121  1.00  0.00     0.036 A 
ENDBRANCH  21  22
ENDBRANCH  19  21
ENDBRANCH  17  19
ENDBRANCH  15  17
ENDBRANCH  12  15
ENDBRANCH   7  11
BRANCH   1  27
HETATM   27  C   UNL     1      28.783  44.237  53.702  1.00  0.00    -0.035 A 
HETATM   28  C   UNL     1      29.739  43.249  53.986  1.00  0.00     0.012 A 
HETATM   29  C   UNL     1      30.508  43.312  55.151  1.00  0.00     0.037 A 
HETATM   30  C   UNL     1      30.345  44.363  56.051  1.00  0.00     0.068 A 
HETATM   31  C   UNL     1      29.357  45.317  55.813  1.00  0.00     0.037 A 
HETATM   32  C   UNL     1      28.576  45.248  54.651  1.00  0.00     0.012 A 
BRANCH  30  33
HETATM   33  O   UNL     1      31.183  44.341  57.130  1.00  0.00    -0.356 OA
HETATM   34  C   UNL     1      32.020  43.195  57.241  1.00  0.00     0.210 C 
ENDBRANCH  30  33
ENDBRANCH   1  27
BRANCH   8  35
HETATM   35  C   UNL     1      24.757  45.636  51.032  1.00  0.00     0.409 C 
HETATM   36  F   UNL     1      24.277  46.023  49.829  1.00  0.00    -0.169 F 
HETATM   37  F   UNL     1      23.918  44.666  51.488  1.00  0.00    -0.169 F 
HETATM   38  F   UNL     1      24.633  46.670  51.888  1.00  0.00    -0.169 F 
ENDBRANCH   8  35
TORSDOF 9
ENDMDL
MODEL 10
REMARK VINA RESULT:      -7.8      5.114      8.135
REMARK  9 active torsions:
REMARK  status: ('A' for Active; 'I' for Inactive)
REMARK    1  A    between atoms: O_2  and  C_3 
REMARK    2  A    between atoms: C_6  and  C_7 
REMARK    3  A    between atoms: C_13  and  C_14 
REMARK       I    between atoms: C_14  and  N_15 
REMARK    4  A    between atoms: N_15  and  N_16 
REMARK    5  A    between atoms: N_16  and  C_17 
REMARK    6  A    between atoms: C_17  and  N_18 
REMARK    7  A    between atoms: N_18  and  C_19 
REMARK    8  A    between atoms: C_19  and  C_20 
REMARK    9  A    between atoms: C_27  and  C_28 
ROOT
HETATM    1  C   UNL     1      28.100  44.282  52.507  1.00  0.00     0.118 C 
HETATM    2  N   UNL     1      27.676  42.921  52.184  1.00  0.00    -0.365 N 
HETATM    3  C   UNL     1      26.979  42.747  51.029  1.00  0.00     0.138 A 
HETATM    4  N   UNL     1      26.265  43.798  50.496  1.00  0.00    -0.240 N 
HETATM    5  N   UNL     1      25.762  43.540  49.280  1.00  0.00    -0.181 NA
HETATM    6  C   UNL     1      26.034  42.246  49.106  1.00  0.00     0.160 A 
HETATM    7  C   UNL     1      26.803  41.686  50.161  1.00  0.00     0.098 A 
HETATM    8  C   UNL     1      26.214  45.137  51.059  1.00  0.00     0.221 C 
HETATM    9  C   UNL     1      26.857  45.183  52.459  1.00  0.00     0.066 C 
HETATM   10  H   UNL     1      28.320  42.184  52.483  1.00  0.00     0.161 HD
ENDROOT
BRANCH   7  11
HETATM   11  C   UNL     1      27.288  40.323  50.290  1.00  0.00     0.275 C 
HETATM   12  N   UNL     1      26.806  39.466  49.313  1.00  0.00    -0.263 N 
HETATM   13  H   UNL     1      26.457  39.824  48.429  1.00  0.00     0.190 HD
HETATM   14  O   UNL     1      28.039  39.949  51.186  1.00  0.00    -0.266 OA
BRANCH  12  15
HETATM   15  N   UNL     1      27.186  38.113  49.322  1.00  0.00    -0.274 N 
HETATM   16  H   UNL     1      27.002  37.636  50.206  1.00  0.00     0.189 HD
BRANCH  15  17
HETATM   17  C   UNL     1      28.306  37.701  48.640  1.00  0.00     0.186 C 
HETATM   18  S   UNL     1      29.887  37.972  49.113  1.00  0.00    -0.040 SA
BRANCH  17  19
HETATM   19  N   UNL     1      28.076  37.077  47.449  1.00  0.00    -0.360 N 
HETATM   20  H   UNL     1      27.740  36.125  47.533  1.00  0.00     0.162 HD
BRANCH  19  21
HETATM   21  C   UNL     1      28.711  37.410  46.184  1.00  0.00     0.187 C 
BRANCH  21  22
HETATM   22  C   UNL     1      28.152  38.666  45.635  1.00  0.00     0.070 A 
HETATM   23  O   UNL     1      27.207  39.297  46.389  1.00  0.00    -0.325 OA
HETATM   24  C   UNL     1      26.809  40.391  45.691  1.00  0.00     0.142 A 
HETATM   25  C   UNL     1      27.480  40.470  44.494  1.00  0.00     0.027 A 
HETATM   26  C   UNL     1      28.348  39.352  44.455  1.00  0.00     0.036 A 
ENDBRANCH  21  22
ENDBRANCH  19  21
ENDBRANCH  17  19
ENDBRANCH  15  17
ENDBRANCH  12  15
ENDBRANCH   7  11
BRANCH   1  27
HETATM   27  C   UNL     1      28.827  44.335  53.836  1.00  0.00    -0.035 A 
HETATM   28  C   UNL     1      29.761  43.333  54.148  1.00  0.00     0.012 A 
HETATM   29  C   UNL     1      30.517  43.401  55.321  1.00  0.00     0.037 A 
HETATM   30  C   UNL     1      30.363  44.469  56.202  1.00  0.00     0.068 A 
HETATM   31  C   UNL     1      29.396  45.438  55.937  1.00  0.00     0.037 A 
HETATM   32  C   UNL     1      28.628  45.365  54.767  1.00  0.00     0.012 A 
BRANCH  30  33
HETATM   33  O   UNL     1      31.187  44.449  57.292  1.00  0.00    -0.356 OA
HETATM   34  C   UNL     1      32.089  43.350  57.365  1.00  0.00     0.210 C 
ENDBRANCH  30  33
ENDBRANCH   1  27
BRANCH   8  35
HETATM   35  C   UNL     1      24.790  45.643  51.138  1.00  0.00     0.409 C 
HETATM   36  F   UNL     1      23.931  44.703  51.592  1.00  0.00    -0.169 F 
HETATM   37  F   UNL     1      24.723  46.682  52.015  1.00  0.00    -0.169 F 
HETATM   38  F   UNL     1      24.317  46.113  49.966  1.00  0.00    -0.169 F 
ENDBRANCH   8  35
TORSDOF 9
ENDMDL
