MODEL 1
REMARK VINA RESULT:      -9.8      0.000      0.000
REMARK  5 active torsions:
REMARK  status: ('A' for Active; 'I' for Inactive)
REMARK    1  A    between atoms: C_7  and  C_8 
REMARK    2  A    between atoms: C_16  and  C_17 
REMARK    3  A    between atoms: C_20  and  O_21 
REMARK    4  A    between atoms: C_24  and  C_25 
REMARK       I    between atoms: C_25  and  N_26 
REMARK    5  A    between atoms: N_26  and  C_27 
ROOT
HETATM    1  C   UNL     1      28.009  38.704  49.524  1.00  0.00     0.070 C 
HETATM    2  C   UNL     1      27.868  40.085  50.113  1.00  0.00     0.037 C 
HETATM    3  N   UNL     1      28.110  40.193  51.480  1.00  0.00    -0.192 N 
HETATM    4  C   UNL     1      28.230  41.380  52.107  1.00  0.00     0.726 A 
HETATM    5  N   UNL     1      27.891  42.526  51.443  1.00  0.00    -0.083 N 
HETATM    6  N   UNL     1      28.259  43.622  52.136  1.00  0.00    -0.135 NA
HETATM    7  C   UNL     1      28.723  43.072  53.274  1.00  0.00     0.199 A 
HETATM    8  N   UNL     1      28.708  41.687  53.282  1.00  0.00    -0.041 NA
HETATM    9  C   UNL     1      27.407  42.555  50.059  1.00  0.00     0.202 C 
HETATM   10  C   UNL     1      27.564  41.195  49.396  1.00  0.00     0.062 C 
HETATM   11  H   UNL     1      28.425  39.356  51.964  1.00  0.00     0.184 HD
ENDROOT
BRANCH  10  12
HETATM   12  C   UNL     1      27.328  41.115  47.930  1.00  0.00     0.256 C 
HETATM   13  N   UNL     1      26.066  40.655  47.621  1.00  0.00    -0.323 N 
HETATM   14  H   UNL     1      25.444  40.419  48.383  1.00  0.00     0.169 HD
HETATM   15  O   UNL     1      28.208  41.465  47.155  1.00  0.00    -0.267 OA
BRANCH  13  16
HETATM   16  C   UNL     1      25.503  40.511  46.334  1.00  0.00     0.035 A 
HETATM   17  C   UNL     1      25.866  39.514  45.429  1.00  0.00     0.029 A 
HETATM   18  C   UNL     1      25.277  39.458  44.162  1.00  0.00     0.002 A 
HETATM   19  C   UNL     1      24.310  40.391  43.795  1.00  0.00     0.000 A 
HETATM   20  C   UNL     1      23.934  41.385  44.693  1.00  0.00     0.002 A 
HETATM   21  C   UNL     1      24.532  41.449  45.954  1.00  0.00     0.029 A 
ENDBRANCH  13  16
ENDBRANCH  10  12
BRANCH   9  22
HETATM   22  C   UNL     1      25.977  43.081  50.007  1.00  0.00    -0.028 A 
HETATM   23  C   UNL     1      25.704  44.310  49.380  1.00  0.00     0.012 A 
HETATM   24  C   UNL     1      24.398  44.804  49.312  1.00  0.00     0.037 A 
HETATM   25  C   UNL     1      23.359  44.070  49.873  1.00  0.00     0.065 A 
HETATM   26  C   UNL     1      23.603  42.854  50.499  1.00  0.00     0.037 A 
HETATM   27  C   UNL     1      24.907  42.359  50.566  1.00  0.00     0.012 A 
BRANCH  25  28
HETATM   28  O   UNL     1      22.070  44.513  49.829  1.00  0.00    -0.361 OA
HETATM   29  H   UNL     1      22.025  45.276  49.229  1.00  0.00     0.217 HD
ENDBRANCH  25  28
ENDBRANCH   9  22
BRANCH   7  30
HETATM   30  C   UNL     1      29.274  43.843  54.385  1.00  0.00     0.016 A 
HETATM   31  C   UNL     1      30.336  43.343  55.152  1.00  0.00     0.039 A 
HETATM   32  C   UNL     1      30.829  44.080  56.229  1.00  0.00     0.035 A 
HETATM   33 CL   UNL     1      32.125  43.449  57.172  1.00  0.00    -0.084 Cl
HETATM   34  C   UNL     1      30.280  45.318  56.554  1.00  0.00     0.024 A 
HETATM   35  C   UNL     1      29.228  45.828  55.795  1.00  0.00     0.003 A 
HETATM   36  C   UNL     1      28.728  45.093  54.717  1.00  0.00     0.015 A 
ENDBRANCH   7  30
TORSDOF 5
ENDMDL
MODEL 2
REMARK VINA RESULT:      -9.4      4.997      7.884
REMARK  5 active torsions:
REMARK  status: ('A' for Active; 'I' for Inactive)
REMARK    1  A    between atoms: C_7  and  C_8 
REMARK    2  A    between atoms: C_16  and  C_17 
REMARK    3  A    between atoms: C_20  and  O_21 
REMARK    4  A    between atoms: C_24  and  C_25 
REMARK       I    between atoms: C_25  and  N_26 
REMARK    5  A    between atoms: N_26  and  C_27 
ROOT
HETATM    1  C   UNL     1      24.882  50.124  48.115  1.00  0.00     0.070 C 
HETATM    2  C   UNL     1      24.667  48.788  48.780  1.00  0.00     0.037 C 
HETATM    3  N   UNL     1      25.813  48.137  49.228  1.00  0.00    -0.192 N 
HETATM    4  C   UNL     1      25.770  47.048  50.020  1.00  0.00     0.726 A 
HETATM    5  N   UNL     1      24.576  46.415  50.226  1.00  0.00    -0.083 N 
HETATM    6  N   UNL     1      24.675  45.480  51.192  1.00  0.00    -0.135 NA
HETATM    7  C   UNL     1      25.994  45.518  51.462  1.00  0.00     0.199 A 
HETATM    8  N   UNL     1      26.693  46.474  50.744  1.00  0.00    -0.041 NA
HETATM    9  C   UNL     1      23.306  46.857  49.639  1.00  0.00     0.202 C 
HETATM   10  C   UNL     1      23.451  48.224  48.988  1.00  0.00     0.062 C 
HETATM   11  H   UNL     1      26.696  48.633  49.135  1.00  0.00     0.184 HD
ENDROOT
BRANCH  10  12
HETATM   12  C   UNL     1      22.207  48.909  48.547  1.00  0.00     0.256 C 
HETATM   13  N   UNL     1      21.601  49.614  49.566  1.00  0.00    -0.323 N 
HETATM   14  H   UNL     1      22.035  49.599  50.480  1.00  0.00     0.169 HD
HETATM   15  O   UNL     1      21.848  48.821  47.381  1.00  0.00    -0.267 OA
BRANCH  13  16
HETATM   16  C   UNL     1      20.441  50.414  49.477  1.00  0.00     0.035 A 
HETATM   17  C   UNL     1      19.253  50.146  50.156  1.00  0.00     0.029 A 
HETATM   18  C   UNL     1      18.139  50.976  49.990  1.00  0.00     0.002 A 
HETATM   19  C   UNL     1      18.210  52.088  49.154  1.00  0.00     0.000 A 
HETATM   20  C   UNL     1      19.393  52.369  48.478  1.00  0.00     0.002 A 
HETATM   21  C   UNL     1      20.502  51.532  48.633  1.00  0.00     0.029 A 
ENDBRANCH  13  16
ENDBRANCH  10  12
BRANCH   9  22
HETATM   22  C   UNL     1      22.764  45.798  48.686  1.00  0.00    -0.028 A 
HETATM   23  C   UNL     1      23.653  45.002  47.942  1.00  0.00     0.012 A 
HETATM   24  C   UNL     1      23.175  44.018  47.072  1.00  0.00     0.037 A 
HETATM   25  C   UNL     1      21.804  43.828  46.941  1.00  0.00     0.065 A 
HETATM   26  C   UNL     1      20.906  44.602  47.664  1.00  0.00     0.037 A 
HETATM   27  C   UNL     1      21.382  45.584  48.535  1.00  0.00     0.012 A 
BRANCH  25  28
HETATM   28  O   UNL     1      21.294  42.879  46.105  1.00  0.00    -0.361 OA
HETATM   29  H   UNL     1      21.319  43.221  45.196  1.00  0.00     0.217 HD
ENDBRANCH  25  28
ENDBRANCH   9  22
BRANCH   7  30
HETATM   30  C   UNL     1      26.641  44.689  52.475  1.00  0.00     0.016 A 
HETATM   31  C   UNL     1      27.936  44.188  52.275  1.00  0.00     0.039 A 
HETATM   32  C   UNL     1      28.527  43.372  53.240  1.00  0.00     0.035 A 
HETATM   33 CL   UNL     1      30.111  42.752  52.977  1.00  0.00    -0.084 Cl
HETATM   34  C   UNL     1      27.845  43.047  54.411  1.00  0.00     0.024 A 
HETATM   35  C   UNL     1      26.560  43.544  54.623  1.00  0.00     0.003 A 
HETATM   36  C   UNL     1      25.962  44.360  53.659  1.00  0.00     0.015 A 
ENDBRANCH   7  30
TORSDOF 5
ENDMDL
MODEL 3
REMARK VINA RESULT:      -9.0      2.164      4.293
REMARK  5 active torsions:
REMARK  status: ('A' for Active; 'I' for Inactive)
REMARK    1  A    between atoms: C_7  and  C_8 
REMARK    2  A    between atoms: C_16  and  C_17 
REMARK    3  A    between atoms: C_20  and  O_21 
REMARK    4  A    between atoms: C_24  and  C_25 
REMARK       I    between atoms: C_25  and  N_26 
REMARK    5  A    between atoms: N_26  and  C_27 
ROOT
HETATM    1  C   UNL     1      23.913  45.901  49.505  1.00  0.00     0.070 C 
HETATM    2  C   UNL     1      24.825  44.940  50.225  1.00  0.00     0.037 C 
HETATM    3  N   UNL     1      25.955  45.498  50.817  1.00  0.00    -0.192 N 
HETATM    4  C   UNL     1      26.746  44.813  51.665  1.00  0.00     0.726 A 
HETATM    5  N   UNL     1      26.580  43.463  51.795  1.00  0.00    -0.083 N 
HETATM    6  N   UNL     1      27.306  42.974  52.820  1.00  0.00    -0.135 NA
HETATM    7  C   UNL     1      27.983  44.071  53.210  1.00  0.00     0.199 A 
HETATM    8  N   UNL     1      27.659  45.218  52.506  1.00  0.00    -0.041 NA
HETATM    9  C   UNL     1      25.567  42.691  51.066  1.00  0.00     0.202 C 
HETATM   10  C   UNL     1      24.589  43.611  50.352  1.00  0.00     0.062 C 
HETATM   11  H   UNL     1      26.048  46.509  50.778  1.00  0.00     0.184 HD
ENDROOT
BRANCH  10  12
HETATM   12  C   UNL     1      23.376  42.990  49.756  1.00  0.00     0.256 C 
HETATM   13  N   UNL     1      23.541  42.682  48.422  1.00  0.00    -0.323 N 
HETATM   14  H   UNL     1      24.428  42.899  47.988  1.00  0.00     0.169 HD
HETATM   15  O   UNL     1      22.392  42.790  50.454  1.00  0.00    -0.267 OA
BRANCH  13  16
HETATM   16  C   UNL     1      22.611  42.040  47.574  1.00  0.00     0.035 A 
HETATM   17  C   UNL     1      21.771  42.711  46.686  1.00  0.00     0.029 A 
HETATM   18  C   UNL     1      20.859  41.999  45.900  1.00  0.00     0.002 A 
HETATM   19  C   UNL     1      20.788  40.611  45.986  1.00  0.00     0.000 A 
HETATM   20  C   UNL     1      21.628  39.931  46.864  1.00  0.00     0.002 A 
HETATM   21  C   UNL     1      22.530  40.643  47.659  1.00  0.00     0.029 A 
ENDBRANCH  13  16
ENDBRANCH  10  12
BRANCH   9  22
HETATM   22  C   UNL     1      26.234  41.688  50.131  1.00  0.00    -0.028 A 
HETATM   23  C   UNL     1      26.100  40.309  50.371  1.00  0.00     0.012 A 
HETATM   24  C   UNL     1      26.694  39.374  49.518  1.00  0.00     0.037 A 
HETATM   25  C   UNL     1      27.427  39.816  48.422  1.00  0.00     0.065 A 
HETATM   26  C   UNL     1      27.575  41.173  48.165  1.00  0.00     0.037 A 
HETATM   27  C   UNL     1      26.980  42.108  49.016  1.00  0.00     0.012 A 
BRANCH  25  28
HETATM   28  O   UNL     1      28.023  38.939  47.565  1.00  0.00    -0.361 OA
HETATM   29  H   UNL     1      28.962  38.865  47.800  1.00  0.00     0.217 HD
ENDBRANCH  25  28
ENDBRANCH   9  22
BRANCH   7  30
HETATM   30  C   UNL     1      28.924  44.092  54.328  1.00  0.00     0.016 A 
HETATM   31  C   UNL     1      28.800  45.039  55.354  1.00  0.00     0.039 A 
HETATM   32  C   UNL     1      29.726  45.065  56.398  1.00  0.00     0.035 A 
HETATM   33 CL   UNL     1      29.573  46.241  57.645  1.00  0.00    -0.084 Cl
HETATM   34  C   UNL     1      30.777  44.151  56.437  1.00  0.00     0.024 A 
HETATM   35  C   UNL     1      30.906  43.201  55.426  1.00  0.00     0.003 A 
HETATM   36  C   UNL     1      29.984  43.173  54.377  1.00  0.00     0.015 A 
ENDBRANCH   7  30
TORSDOF 5
ENDMDL
MODEL 4
REMARK VINA RESULT:      -8.3      9.279     12.915
REMARK  5 active torsions:
REMARK  status: ('A' for Active; 'I' for Inactive)
REMARK    1  A    between atoms: C_7  and  C_8 
REMARK    2  A    between atoms: C_16  and  C_17 
REMARK    3  A    between atoms: C_20  and  O_21 
REMARK    4  A    between atoms: C_24  and  C_25 
REMARK       I    between atoms: C_25  and  N_26 
REMARK    5  A    between atoms: N_26  and  C_27 
ROOT
HETATM    1  C   UNL     1      22.145  51.073  50.618  1.00  0.00     0.070 C 
HETATM    2  C   UNL     1      21.200  50.741  49.490  1.00  0.00     0.037 C 
HETATM    3  N   UNL     1      19.994  51.435  49.479  1.00  0.00    -0.192 N 
HETATM    4  C   UNL     1      19.146  51.406  48.433  1.00  0.00     0.726 A 
HETATM    5  N   UNL     1      19.350  50.501  47.430  1.00  0.00    -0.083 N 
HETATM    6  N   UNL     1      18.540  50.740  46.380  1.00  0.00    -0.135 NA
HETATM    7  C   UNL     1      17.784  51.748  46.854  1.00  0.00     0.199 A 
HETATM    8  N   UNL     1      18.134  52.171  48.125  1.00  0.00    -0.041 NA
HETATM    9  C   UNL     1      20.463  49.545  47.407  1.00  0.00     0.202 C 
HETATM   10  C   UNL     1      21.474  49.856  48.499  1.00  0.00     0.062 C 
HETATM   11  H   UNL     1      19.866  52.155  50.186  1.00  0.00     0.184 HD
ENDROOT
BRANCH  10  12
HETATM   12  C   UNL     1      22.766  49.121  48.467  1.00  0.00     0.256 C 
HETATM   13  N   UNL     1      22.816  48.100  49.394  1.00  0.00    -0.323 N 
HETATM   14  H   UNL     1      22.011  47.954  49.987  1.00  0.00     0.169 HD
HETATM   15  O   UNL     1      23.624  49.439  47.657  1.00  0.00    -0.267 OA
BRANCH  13  16
HETATM   16  C   UNL     1      23.869  47.180  49.591  1.00  0.00     0.035 A 
HETATM   17  C   UNL     1      25.079  47.497  50.208  1.00  0.00     0.029 A 
HETATM   18  C   UNL     1      26.081  46.530  50.339  1.00  0.00     0.002 A 
HETATM   19  C   UNL     1      25.877  45.236  49.867  1.00  0.00     0.000 A 
HETATM   20  C   UNL     1      24.670  44.907  49.256  1.00  0.00     0.002 A 
HETATM   21  C   UNL     1      23.673  45.876  49.113  1.00  0.00     0.029 A 
ENDBRANCH  13  16
ENDBRANCH  10  12
BRANCH   9  22
HETATM   22  C   UNL     1      19.937  48.115  47.471  1.00  0.00    -0.028 A 
HETATM   23  C   UNL     1      20.419  47.149  46.570  1.00  0.00     0.012 A 
HETATM   24  C   UNL     1      19.958  45.830  46.622  1.00  0.00     0.037 A 
HETATM   25  C   UNL     1      19.010  45.473  47.574  1.00  0.00     0.065 A 
HETATM   26  C   UNL     1      18.518  46.410  48.474  1.00  0.00     0.037 A 
HETATM   27  C   UNL     1      18.979  47.727  48.425  1.00  0.00     0.012 A 
BRANCH  25  28
HETATM   28  O   UNL     1      18.533  44.199  47.660  1.00  0.00    -0.361 OA
HETATM   29  H   UNL     1      17.796  44.100  47.036  1.00  0.00     0.217 HD
ENDBRANCH  25  28
ENDBRANCH   9  22
BRANCH   7  30
HETATM   30  C   UNL     1      16.731  52.407  46.085  1.00  0.00     0.016 A 
HETATM   31  C   UNL     1      16.999  52.955  44.822  1.00  0.00     0.039 A 
HETATM   32  C   UNL     1      15.989  53.608  44.114  1.00  0.00     0.035 A 
HETATM   33 CL   UNL     1      16.333  54.290  42.571  1.00  0.00    -0.084 Cl
HETATM   34  C   UNL     1      14.707  53.721  44.647  1.00  0.00     0.024 A 
HETATM   35  C   UNL     1      14.427  53.174  45.898  1.00  0.00     0.003 A 
HETATM   36  C   UNL     1      15.435  52.521  46.612  1.00  0.00     0.015 A 
ENDBRANCH   7  30
TORSDOF 5
ENDMDL
MODEL 5
REMARK VINA RESULT:      -8.2      2.087      4.241
REMARK  5 active torsions:
REMARK  status: ('A' for Active; 'I' for Inactive)
REMARK    1  A    between atoms: C_7  and  C_8 
REMARK    2  A    between atoms: C_16  and  C_17 
REMARK    3  A    between atoms: C_20  and  O_21 
REMARK    4  A    between atoms: C_24  and  C_25 
REMARK       I    between atoms: C_25  and  N_26 
REMARK    5  A    between atoms: N_26  and  C_27 
ROOT
HETATM    1  C   UNL     1      23.784  44.538  48.005  1.00  0.00     0.070 C 
HETATM    2  C   UNL     1      24.735  43.754  48.874  1.00  0.00     0.037 C 
HETATM    3  N   UNL     1      25.746  44.488  49.489  1.00  0.00    -0.192 N 
HETATM    4  C   UNL     1      26.537  43.975  50.451  1.00  0.00     0.726 A 
HETATM    5  N   UNL     1      26.509  42.630  50.695  1.00  0.00    -0.083 N 
HETATM    6  N   UNL     1      27.201  42.318  51.809  1.00  0.00    -0.135 NA
HETATM    7  C   UNL     1      27.720  43.515  52.142  1.00  0.00     0.199 A 
HETATM    8  N   UNL     1      27.330  44.553  51.312  1.00  0.00    -0.041 NA
HETATM    9  C   UNL     1      25.649  41.687  49.972  1.00  0.00     0.202 C 
HETATM   10  C   UNL     1      24.637  42.422  49.108  1.00  0.00     0.062 C 
HETATM   11  H   UNL     1      25.730  45.497  49.363  1.00  0.00     0.184 HD
ENDROOT
BRANCH  10  12
HETATM   12  C   UNL     1      23.551  41.617  48.489  1.00  0.00     0.256 C 
HETATM   13  N   UNL     1      23.926  41.060  47.284  1.00  0.00    -0.323 N 
HETATM   14  H   UNL     1      24.860  41.245  46.943  1.00  0.00     0.169 HD
HETATM   15  O   UNL     1      22.481  41.495  49.069  1.00  0.00    -0.267 OA
BRANCH  13  16
HETATM   16  C   UNL     1      23.158  40.203  46.466  1.00  0.00     0.035 A 
HETATM   17  C   UNL     1      22.095  40.628  45.669  1.00  0.00     0.029 A 
HETATM   18  C   UNL     1      21.369  39.706  44.907  1.00  0.00     0.002 A 
HETATM   19  C   UNL     1      21.709  38.356  44.926  1.00  0.00     0.000 A 
HETATM   20  C   UNL     1      22.773  37.922  45.711  1.00  0.00     0.002 A 
HETATM   21  C   UNL     1      23.491  38.840  46.482  1.00  0.00     0.029 A 
ENDBRANCH  13  16
ENDBRANCH  10  12
BRANCH   9  22
HETATM   22  C   UNL     1      26.495  40.693  49.184  1.00  0.00    -0.028 A 
HETATM   23  C   UNL     1      27.329  41.148  48.147  1.00  0.00     0.012 A 
HETATM   24  C   UNL     1      28.121  40.253  47.422  1.00  0.00     0.037 A 
HETATM   25  C   UNL     1      28.079  38.898  47.729  1.00  0.00     0.065 A 
HETATM   26  C   UNL     1      27.263  38.424  48.747  1.00  0.00     0.037 A 
HETATM   27  C   UNL     1      26.472  39.317  49.474  1.00  0.00     0.012 A 
BRANCH  25  28
HETATM   28  O   UNL     1      28.835  37.991  47.047  1.00  0.00    -0.361 OA
HETATM   29  H   UNL     1      28.830  38.228  46.105  1.00  0.00     0.217 HD
ENDBRANCH  25  28
ENDBRANCH   9  22
BRANCH   7  30
HETATM   30  C   UNL     1      28.560  43.740  53.315  1.00  0.00     0.016 A 
HETATM   31  C   UNL     1      28.263  44.764  54.227  1.00  0.00     0.039 A 
HETATM   32  C   UNL     1      29.094  44.985  55.326  1.00  0.00     0.035 A 
HETATM   33 CL   UNL     1      28.727  46.254  56.430  1.00  0.00    -0.084 Cl
HETATM   34  C   UNL     1      30.221  44.193  55.534  1.00  0.00     0.024 A 
HETATM   35  C   UNL     1      30.522  43.169  54.639  1.00  0.00     0.003 A 
HETATM   36  C   UNL     1      29.695  42.945  53.535  1.00  0.00     0.015 A 
ENDBRANCH   7  30
TORSDOF 5
ENDMDL
MODEL 6
REMARK VINA RESULT:      -8.1     12.212     14.857
REMARK  5 active torsions:
REMARK  status: ('A' for Active; 'I' for Inactive)
REMARK    1  A    between atoms: C_7  and  C_8 
REMARK    2  A    between atoms: C_16  and  C_17 
REMARK    3  A    between atoms: C_20  and  O_21 
REMARK    4  A    between atoms: C_24  and  C_25 
REMARK       I    between atoms: C_25  and  N_26 
REMARK    5  A    between atoms: N_26  and  C_27 
ROOT
HETATM    1  C   UNL     1      31.360  46.912  40.007  1.00  0.00     0.070 C 
HETATM    2  C   UNL     1      30.079  47.705  40.072  1.00  0.00     0.037 C 
HETATM    3  N   UNL     1      29.101  47.363  39.142  1.00  0.00    -0.192 N 
HETATM    4  C   UNL     1      27.838  47.828  39.208  1.00  0.00     0.726 A 
HETATM    5  N   UNL     1      27.541  48.839  40.078  1.00  0.00    -0.083 N 
HETATM    6  N   UNL     1      26.211  49.042  40.160  1.00  0.00    -0.135 NA
HETATM    7  C   UNL     1      25.755  48.187  39.225  1.00  0.00     0.199 A 
HETATM    8  N   UNL     1      26.744  47.431  38.617  1.00  0.00    -0.041 NA
HETATM    9  C   UNL     1      28.522  49.459  40.976  1.00  0.00     0.202 C 
HETATM   10  C   UNL     1      29.826  48.675  40.984  1.00  0.00     0.062 C 
HETATM   11  H   UNL     1      29.293  46.569  38.536  1.00  0.00     0.184 HD
ENDROOT
BRANCH  10  12
HETATM   12  C   UNL     1      30.839  49.043  42.009  1.00  0.00     0.256 C 
HETATM   13  N   UNL     1      31.626  50.105  41.617  1.00  0.00    -0.323 N 
HETATM   14  H   UNL     1      31.455  50.517  40.710  1.00  0.00     0.169 HD
HETATM   15  O   UNL     1      30.881  48.430  43.067  1.00  0.00    -0.267 OA
BRANCH  13  16
HETATM   16  C   UNL     1      32.642  50.736  42.369  1.00  0.00     0.035 A 
HETATM   17  C   UNL     1      33.984  50.772  41.993  1.00  0.00     0.029 A 
HETATM   18  C   UNL     1      34.932  51.397  42.810  1.00  0.00     0.002 A 
HETATM   19  C   UNL     1      34.543  52.001  44.003  1.00  0.00     0.000 A 
HETATM   20  C   UNL     1      33.205  51.978  44.384  1.00  0.00     0.002 A 
HETATM   21  C   UNL     1      32.259  51.342  43.574  1.00  0.00     0.029 A 
ENDBRANCH  13  16
ENDBRANCH  10  12
BRANCH   9  22
HETATM   22  C   UNL     1      28.712  50.929  40.622  1.00  0.00    -0.028 A 
HETATM   23  C   UNL     1      29.064  51.296  39.311  1.00  0.00     0.012 A 
HETATM   24  C   UNL     1      29.231  52.640  38.965  1.00  0.00     0.037 A 
HETATM   25  C   UNL     1      29.049  53.623  39.930  1.00  0.00     0.065 A 
HETATM   26  C   UNL     1      28.702  53.286  41.232  1.00  0.00     0.037 A 
HETATM   27  C   UNL     1      28.534  51.944  41.579  1.00  0.00     0.012 A 
BRANCH  25  28
HETATM   28  O   UNL     1      29.201  54.946  39.635  1.00  0.00    -0.361 OA
HETATM   29  H   UNL     1      28.327  55.325  39.448  1.00  0.00     0.217 HD
ENDBRANCH  25  28
ENDBRANCH   9  22
BRANCH   7  30
HETATM   30  C   UNL     1      24.340  47.998  38.916  1.00  0.00     0.016 A 
HETATM   31  C   UNL     1      23.370  48.047  39.927  1.00  0.00     0.039 A 
HETATM   32  C   UNL     1      22.026  47.833  39.619  1.00  0.00     0.035 A 
HETATM   33 CL   UNL     1      20.846  47.882  40.872  1.00  0.00    -0.084 Cl
HETATM   34  C   UNL     1      21.631  47.574  38.309  1.00  0.00     0.024 A 
HETATM   35  C   UNL     1      22.585  47.529  37.294  1.00  0.00     0.003 A 
HETATM   36  C   UNL     1      23.933  47.739  37.598  1.00  0.00     0.015 A 
ENDBRANCH   7  30
TORSDOF 5
ENDMDL
MODEL 7
REMARK VINA RESULT:      -8.0     17.519     20.694
REMARK  5 active torsions:
REMARK  status: ('A' for Active; 'I' for Inactive)
REMARK    1  A    between atoms: C_7  and  C_8 
REMARK    2  A    between atoms: C_16  and  C_17 
REMARK    3  A    between atoms: C_20  and  O_21 
REMARK    4  A    between atoms: C_24  and  C_25 
REMARK       I    between atoms: C_25  and  N_26 
REMARK    5  A    between atoms: N_26  and  C_27 
ROOT
HETATM    1  C   UNL     1      37.018  44.239  63.136  1.00  0.00     0.070 C 
HETATM    2  C   UNL     1      37.703  45.171  64.103  1.00  0.00     0.037 C 
HETATM    3  N   UNL     1      37.436  46.527  63.937  1.00  0.00    -0.192 N 
HETATM    4  C   UNL     1      37.799  47.458  64.841  1.00  0.00     0.726 A 
HETATM    5  N   UNL     1      38.648  47.111  65.855  1.00  0.00    -0.083 N 
HETATM    6  N   UNL     1      38.744  48.095  66.772  1.00  0.00    -0.135 NA
HETATM    7  C   UNL     1      38.008  49.065  66.198  1.00  0.00     0.199 A 
HETATM    8  N   UNL     1      37.420  48.697  64.999  1.00  0.00    -0.041 NA
HETATM    9  C   UNL     1      39.193  45.762  66.038  1.00  0.00     0.202 C 
HETATM   10  C   UNL     1      38.509  44.766  65.116  1.00  0.00     0.062 C 
HETATM   11  H   UNL     1      36.756  46.783  63.225  1.00  0.00     0.184 HD
ENDROOT
BRANCH  10  12
HETATM   12  C   UNL     1      38.789  43.322  65.337  1.00  0.00     0.256 C 
HETATM   13  N   UNL     1      39.441  42.740  64.270  1.00  0.00    -0.323 N 
HETATM   14  H   UNL     1      39.656  43.319  63.469  1.00  0.00     0.169 HD
HETATM   15  O   UNL     1      38.463  42.797  66.392  1.00  0.00    -0.267 OA
BRANCH  13  16
HETATM   16  C   UNL     1      39.899  41.408  64.175  1.00  0.00     0.035 A 
HETATM   17  C   UNL     1      40.932  40.879  64.949  1.00  0.00     0.029 A 
HETATM   18  C   UNL     1      41.342  39.553  64.773  1.00  0.00     0.002 A 
HETATM   19  C   UNL     1      40.713  38.743  63.831  1.00  0.00     0.000 A 
HETATM   20  C   UNL     1      39.676  39.257  63.059  1.00  0.00     0.002 A 
HETATM   21  C   UNL     1      39.275  40.586  63.226  1.00  0.00     0.029 A 
ENDBRANCH  13  16
ENDBRANCH  10  12
BRANCH   9  22
HETATM   22  C   UNL     1      40.710  45.776  65.881  1.00  0.00    -0.028 A 
HETATM   23  C   UNL     1      41.530  45.359  66.945  1.00  0.00     0.012 A 
HETATM   24  C   UNL     1      42.921  45.354  66.815  1.00  0.00     0.037 A 
HETATM   25  C   UNL     1      43.499  45.767  65.620  1.00  0.00     0.065 A 
HETATM   26  C   UNL     1      42.711  46.184  64.556  1.00  0.00     0.037 A 
HETATM   27  C   UNL     1      41.320  46.189  64.683  1.00  0.00     0.012 A 
BRANCH  25  28
HETATM   28  O   UNL     1      44.852  45.777  65.450  1.00  0.00    -0.361 OA
HETATM   29  H   UNL     1      45.147  46.698  65.361  1.00  0.00     0.217 HD
ENDBRANCH  25  28
ENDBRANCH   9  22
BRANCH   7  30
HETATM   30  C   UNL     1      37.770  50.372  66.804  1.00  0.00     0.016 A 
HETATM   31  C   UNL     1      37.270  50.480  68.110  1.00  0.00     0.039 A 
HETATM   32  C   UNL     1      37.019  51.736  68.662  1.00  0.00     0.035 A 
HETATM   33 CL   UNL     1      36.392  51.855  70.261  1.00  0.00    -0.084 Cl
HETATM   34  C   UNL     1      37.265  52.896  67.930  1.00  0.00     0.024 A 
HETATM   35  C   UNL     1      37.768  52.801  66.633  1.00  0.00     0.003 A 
HETATM   36  C   UNL     1      38.018  51.546  66.075  1.00  0.00     0.015 A 
ENDBRANCH   7  30
TORSDOF 5
ENDMDL
MODEL 8
REMARK VINA RESULT:      -7.9      4.046      7.583
REMARK  5 active torsions:
REMARK  status: ('A' for Active; 'I' for Inactive)
REMARK    1  A    between atoms: C_7  and  C_8 
REMARK    2  A    between atoms: C_16  and  C_17 
REMARK    3  A    between atoms: C_20  and  O_21 
REMARK    4  A    between atoms: C_24  and  C_25 
REMARK       I    between atoms: C_25  and  N_26 
REMARK    5  A    between atoms: N_26  and  C_27 
ROOT
HETATM    1  C   UNL     1      20.733  44.122  48.349  1.00  0.00     0.070 C 
HETATM    2  C   UNL     1      22.212  43.988  48.615  1.00  0.00     0.037 C 
HETATM    3  N   UNL     1      22.656  42.719  48.975  1.00  0.00    -0.192 N 
HETATM    4  C   UNL     1      23.962  42.395  49.039  1.00  0.00     0.726 A 
HETATM    5  N   UNL     1      24.902  43.383  48.964  1.00  0.00    -0.083 N 
HETATM    6  N   UNL     1      26.144  42.872  48.841  1.00  0.00    -0.135 NA
HETATM    7  C   UNL     1      25.899  41.553  48.957  1.00  0.00     0.199 A 
HETATM    8  N   UNL     1      24.558  41.234  49.088  1.00  0.00    -0.041 NA
HETATM    9  C   UNL     1      24.581  44.805  48.803  1.00  0.00     0.202 C 
HETATM   10  C   UNL     1      23.106  45.000  48.489  1.00  0.00     0.062 C 
HETATM   11  H   UNL     1      21.970  41.968  48.969  1.00  0.00     0.184 HD
ENDROOT
BRANCH  10  12
HETATM   12  C   UNL     1      22.666  46.360  48.078  1.00  0.00     0.256 C 
HETATM   13  N   UNL     1      22.460  47.198  49.154  1.00  0.00    -0.323 N 
HETATM   14  H   UNL     1      22.613  46.828  50.082  1.00  0.00     0.169 HD
HETATM   15  O   UNL     1      22.551  46.626  46.889  1.00  0.00    -0.267 OA
BRANCH  13  16
HETATM   16  C   UNL     1      22.092  48.560  49.114  1.00  0.00     0.035 A 
HETATM   17  C   UNL     1      20.777  49.017  49.189  1.00  0.00     0.029 A 
HETATM   18  C   UNL     1      20.497  50.386  49.116  1.00  0.00     0.002 A 
HETATM   19  C   UNL     1      21.532  51.309  48.981  1.00  0.00     0.000 A 
HETATM   20  C   UNL     1      22.849  50.864  48.914  1.00  0.00     0.002 A 
HETATM   21  C   UNL     1      23.128  49.496  48.974  1.00  0.00     0.029 A 
ENDBRANCH  13  16
ENDBRANCH  10  12
BRANCH   9  22
HETATM   22  C   UNL     1      25.040  45.596  50.023  1.00  0.00    -0.028 A 
HETATM   23  C   UNL     1      24.698  45.155  51.314  1.00  0.00     0.012 A 
HETATM   24  C   UNL     1      25.121  45.860  52.445  1.00  0.00     0.037 A 
HETATM   25  C   UNL     1      25.886  47.010  52.289  1.00  0.00     0.065 A 
HETATM   26  C   UNL     1      26.235  47.466  51.025  1.00  0.00     0.037 A 
HETATM   27  C   UNL     1      25.816  46.762  49.894  1.00  0.00     0.012 A 
BRANCH  25  28
HETATM   28  O   UNL     1      26.319  47.727  53.365  1.00  0.00    -0.361 OA
HETATM   29  H   UNL     1      26.853  47.146  53.930  1.00  0.00     0.217 HD
ENDBRANCH  25  28
ENDBRANCH   9  22
BRANCH   7  30
HETATM   30  C   UNL     1      26.932  40.524  48.875  1.00  0.00     0.016 A 
HETATM   31  C   UNL     1      27.652  40.136  50.015  1.00  0.00     0.039 A 
HETATM   32  C   UNL     1      28.657  39.173  49.913  1.00  0.00     0.035 A 
HETATM   33 CL   UNL     1      29.543  38.715  51.316  1.00  0.00    -0.084 Cl
HETATM   34  C   UNL     1      28.955  38.584  48.686  1.00  0.00     0.024 A 
HETATM   35  C   UNL     1      28.241  38.957  47.549  1.00  0.00     0.003 A 
HETATM   36  C   UNL     1      27.236  39.922  47.644  1.00  0.00     0.015 A 
ENDBRANCH   7  30
TORSDOF 5
ENDMDL
MODEL 9
REMARK VINA RESULT:      -7.8     17.513     20.142
REMARK  5 active torsions:
REMARK  status: ('A' for Active; 'I' for Inactive)
REMARK    1  A    between atoms: C_7  and  C_8 
REMARK    2  A    between atoms: C_16  and  C_17 
REMARK    3  A    between atoms: C_20  and  O_21 
REMARK    4  A    between atoms: C_24  and  C_25 
REMARK       I    between atoms: C_25  and  N_26 
REMARK    5  A    between atoms: N_26  and  C_27 
ROOT
HETATM    1  C   UNL     1      36.607  47.826  63.833  1.00  0.00     0.070 C 
HETATM    2  C   UNL     1      36.751  46.438  64.406  1.00  0.00     0.037 C 
HETATM    3  N   UNL     1      37.087  45.435  63.501  1.00  0.00    -0.192 N 
HETATM    4  C   UNL     1      37.454  44.198  63.887  1.00  0.00     0.726 A 
HETATM    5  N   UNL     1      37.290  43.827  65.192  1.00  0.00    -0.083 N 
HETATM    6  N   UNL     1      37.888  42.646  65.446  1.00  0.00    -0.135 NA
HETATM    7  C   UNL     1      38.310  42.294  64.216  1.00  0.00     0.199 A 
HETATM    8  N   UNL     1      38.046  43.234  63.235  1.00  0.00    -0.041 NA
HETATM    9  C   UNL     1      36.740  44.707  66.228  1.00  0.00     0.202 C 
HETATM   10  C   UNL     1      36.611  46.135  65.720  1.00  0.00     0.062 C 
HETATM   11  H   UNL     1      37.273  45.718  62.542  1.00  0.00     0.184 HD
ENDROOT
BRANCH  10  12
HETATM   12  C   UNL     1      36.282  47.189  66.716  1.00  0.00     0.256 C 
HETATM   13  N   UNL     1      37.406  47.744  67.290  1.00  0.00    -0.323 N 
HETATM   14  H   UNL     1      38.311  47.398  66.999  1.00  0.00     0.169 HD
HETATM   15  O   UNL     1      35.113  47.485  66.922  1.00  0.00    -0.267 OA
BRANCH  13  16
HETATM   16  C   UNL     1      37.452  48.799  68.228  1.00  0.00     0.035 A 
HETATM   17  C   UNL     1      37.611  48.617  69.601  1.00  0.00     0.029 A 
HETATM   18  C   UNL     1      37.619  49.717  70.466  1.00  0.00     0.002 A 
HETATM   19  C   UNL     1      37.482  51.008  69.962  1.00  0.00     0.000 A 
HETATM   20  C   UNL     1      37.331  51.202  68.592  1.00  0.00     0.002 A 
HETATM   21  C   UNL     1      37.309  50.102  67.729  1.00  0.00     0.029 A 
ENDBRANCH  13  16
ENDBRANCH  10  12
BRANCH   9  22
HETATM   22  C   UNL     1      35.427  44.144  66.763  1.00  0.00    -0.028 A 
HETATM   23  C   UNL     1      34.534  43.499  65.890  1.00  0.00     0.012 A 
HETATM   24  C   UNL     1      33.331  42.966  66.364  1.00  0.00     0.037 A 
HETATM   25  C   UNL     1      33.017  43.078  67.713  1.00  0.00     0.065 A 
HETATM   26  C   UNL     1      33.883  43.713  68.594  1.00  0.00     0.037 A 
HETATM   27  C   UNL     1      35.085  44.244  68.123  1.00  0.00     0.012 A 
BRANCH  25  28
HETATM   28  O   UNL     1      31.856  42.572  68.218  1.00  0.00    -0.361 OA
HETATM   29  H   UNL     1      31.482  43.217  68.841  1.00  0.00     0.217 HD
ENDBRANCH  25  28
ENDBRANCH   9  22
BRANCH   7  30
HETATM   30  C   UNL     1      39.053  41.069  63.931  1.00  0.00     0.016 A 
HETATM   31  C   UNL     1      39.033  40.497  62.651  1.00  0.00     0.039 A 
HETATM   32  C   UNL     1      39.723  39.310  62.403  1.00  0.00     0.035 A 
HETATM   33 CL   UNL     1      39.679  38.610  60.831  1.00  0.00    -0.084 Cl
HETATM   34  C   UNL     1      40.442  38.682  63.418  1.00  0.00     0.024 A 
HETATM   35  C   UNL     1      40.474  39.244  64.693  1.00  0.00     0.003 A 
HETATM   36  C   UNL     1      39.783  40.431  64.946  1.00  0.00     0.015 A 
ENDBRANCH   7  30
TORSDOF 5
ENDMDL
MODEL 10
REMARK VINA RESULT:      -7.8      2.572      4.464
REMARK  5 active torsions:
REMARK  status: ('A' for Active; 'I' for Inactive)
REMARK    1  A    between atoms: C_7  and  C_8 
REMARK    2  A    between atoms: C_16  and  C_17 
REMARK    3  A    between atoms: C_20  and  O_21 
REMARK    4  A    between atoms: C_24  and  C_25 
REMARK       I    between atoms: C_25  and  N_26 
REMARK    5  A    between atoms: N_26  and  C_27 
ROOT
HETATM    1  C   UNL     1      23.349  44.328  47.177  1.00  0.00     0.070 C 
HETATM    2  C   UNL     1      24.199  43.850  48.328  1.00  0.00     0.037 C 
HETATM    3  N   UNL     1      24.993  44.814  48.943  1.00  0.00    -0.192 N 
HETATM    4  C   UNL     1      25.640  44.593  50.104  1.00  0.00     0.726 A 
HETATM    5  N   UNL     1      25.710  43.322  50.600  1.00  0.00    -0.083 N 
HETATM    6  N   UNL     1      26.209  43.310  51.853  1.00  0.00    -0.135 NA
HETATM    7  C   UNL     1      26.527  44.607  52.022  1.00  0.00     0.199 A 
HETATM    8  N   UNL     1      26.192  45.418  50.951  1.00  0.00    -0.041 NA
HETATM    9  C   UNL     1      25.105  42.155  49.948  1.00  0.00     0.202 C 
HETATM   10  C   UNL     1      24.200  42.579  48.801  1.00  0.00     0.062 C 
HETATM   11  H   UNL     1      24.895  45.773  48.618  1.00  0.00     0.184 HD
ENDROOT
BRANCH  10  12
HETATM   12  C   UNL     1      23.340  41.534  48.184  1.00  0.00     0.256 C 
HETATM   13  N   UNL     1      23.924  40.955  47.077  1.00  0.00    -0.323 N 
HETATM   14  H   UNL     1      24.839  41.281  46.794  1.00  0.00     0.169 HD
HETATM   15  O   UNL     1      22.258  41.265  48.687  1.00  0.00    -0.267 OA
BRANCH  13  16
HETATM   16  C   UNL     1      23.405  39.901  46.293  1.00  0.00     0.035 A 
HETATM   17  C   UNL     1      23.648  38.551  46.541  1.00  0.00     0.029 A 
HETATM   18  C   UNL     1      23.116  37.569  45.697  1.00  0.00     0.002 A 
HETATM   19  C   UNL     1      22.326  37.931  44.609  1.00  0.00     0.000 A 
HETATM   20  C   UNL     1      22.071  39.276  44.357  1.00  0.00     0.002 A 
HETATM   21  C   UNL     1      22.613  40.257  45.191  1.00  0.00     0.029 A 
ENDBRANCH  13  16
ENDBRANCH  10  12
BRANCH   9  22
HETATM   22  C   UNL     1      26.183  41.166  49.521  1.00  0.00    -0.028 A 
HETATM   23  C   UNL     1      27.145  41.544  48.568  1.00  0.00     0.012 A 
HETATM   24  C   UNL     1      28.149  40.655  48.173  1.00  0.00     0.037 A 
HETATM   25  C   UNL     1      28.193  39.382  48.729  1.00  0.00     0.065 A 
HETATM   26  C   UNL     1      27.254  38.984  49.672  1.00  0.00     0.037 A 
HETATM   27  C   UNL     1      26.251  39.872  50.069  1.00  0.00     0.012 A 
BRANCH  25  28
HETATM   28  O   UNL     1      29.155  38.483  48.374  1.00  0.00    -0.361 OA
HETATM   29  H   UNL     1      29.081  38.310  47.421  1.00  0.00     0.217 HD
ENDBRANCH  25  28
ENDBRANCH   9  22
BRANCH   7  30
HETATM   30  C   UNL     1      27.104  45.150  53.249  1.00  0.00     0.016 A 
HETATM   31  C   UNL     1      26.625  46.347  53.802  1.00  0.00     0.039 A 
HETATM   32  C   UNL     1      27.208  46.867  54.957  1.00  0.00     0.035 A 
HETATM   33 CL   UNL     1      26.621  48.344  55.618  1.00  0.00    -0.084 Cl
HETATM   34  C   UNL     1      28.266  46.206  55.579  1.00  0.00     0.024 A 
HETATM   35  C   UNL     1      28.746  45.012  55.042  1.00  0.00     0.003 A 
HETATM   36  C   UNL     1      28.167  44.489  53.884  1.00  0.00     0.015 A 
ENDBRANCH   7  30
TORSDOF 5
ENDMDL
