MODEL 1
REMARK VINA RESULT:      -9.9      0.000      0.000
REMARK  9 active torsions:
REMARK  status: ('A' for Active; 'I' for Inactive)
REMARK    1  A    between atoms: C_2  and  C_3 
REMARK    2  A    between atoms: C_3  and  C_4 
REMARK    3  A    between atoms: C_3  and  C_39 
REMARK    4  A    between atoms: C_6  and  C_7 
REMARK    5  A    between atoms: C_14  and  C_15 
REMARK    6  A    between atoms: C_18  and  C_19 
REMARK    7  A    between atoms: C_19  and  N_20 
REMARK       I    between atoms: N_20  and  C_21 
REMARK       I    between atoms: C_21  and  N_22 
REMARK    8  A    between atoms: N_22  and  C_23 
REMARK    9  A    between atoms: C_25  and  C_26 
ROOT
HETATM    1  C   UNL     1      20.863  46.532  46.985  1.00  0.00     0.068 C 
HETATM    2  C   UNL     1      20.034  45.602  47.915  1.00  0.00     0.001 C 
HETATM    3  C   UNL     1      20.980  44.814  48.851  1.00  0.00     0.040 C 
HETATM    4  C   UNL     1      21.882  43.864  48.039  1.00  0.00     0.206 C 
HETATM    5  N   UNL     1      21.677  44.225  46.571  1.00  0.00    -0.065 N 
HETATM    6  H   UNL     1      22.384  43.696  46.017  1.00  0.00     0.280 HD
HETATM    7  C   UNL     1      21.940  45.695  46.271  1.00  0.00     0.246 C 
HETATM    8  C   UNL     1      19.296  44.583  47.015  1.00  0.00     0.033 C 
HETATM    9  C   UNL     1      20.293  43.833  46.124  1.00  0.00     0.236 C 
ENDROOT
BRANCH   1  10
HETATM   10  C   UNL     1      21.420  47.738  47.711  1.00  0.00     0.045 A 
HETATM   11  N   UNL     1      22.755  47.807  47.899  1.00  0.00    -0.233 NA
HETATM   12  C   UNL     1      23.223  48.876  48.582  1.00  0.00     0.160 A 
HETATM   13  N   UNL     1      22.443  49.836  49.107  1.00  0.00    -0.233 NA
HETATM   14  C   UNL     1      21.114  49.743  48.913  1.00  0.00     0.043 A 
HETATM   15  C   UNL     1      20.554  48.696  48.209  1.00  0.00     0.055 A 
BRANCH  12  16
HETATM   16  C   UNL     1      24.679  49.001  48.781  1.00  0.00     0.014 A 
HETATM   17  C   UNL     1      25.422  49.995  48.124  1.00  0.00     0.034 A 
HETATM   18  C   UNL     1      26.787  50.084  48.342  1.00  0.00     0.117 A 
HETATM   19  N   UNL     1      27.467  49.260  49.164  1.00  0.00    -0.273 NA
HETATM   20  C   UNL     1      26.756  48.298  49.780  1.00  0.00     0.117 A 
HETATM   21  C   UNL     1      25.389  48.132  49.623  1.00  0.00     0.034 A 
ENDBRANCH  12  16
BRANCH  14  22
HETATM   22  C   UNL     1      20.230  50.812  49.535  1.00  0.00     0.037 C 
BRANCH  22  23
HETATM   23  C   UNL     1      18.854  50.247  49.950  1.00  0.00     0.006 C 
HETATM   24  C   UNL     1      18.941  49.212  51.065  1.00  0.00     0.006 C 
ENDBRANCH  22  23
BRANCH  22  25
HETATM   25  C   UNL     1      20.037  51.996  48.563  1.00  0.00     0.006 C 
HETATM   26  C   UNL     1      18.584  52.436  48.427  1.00  0.00     0.006 C 
ENDBRANCH  22  25
ENDBRANCH  14  22
ENDBRANCH   1  10
BRANCH   4  27
HETATM   27  C   UNL     1      23.367  43.884  48.492  1.00  0.00     0.157 C 
BRANCH  27  28
HETATM   28  N   UNL     1      23.601  43.910  49.939  1.00  0.00    -0.341 N 
HETATM   29  C   UNL     1      24.752  44.432  50.479  1.00  0.00     0.320 C 
HETATM   30  N   UNL     1      24.678  44.586  51.838  1.00  0.00    -0.309 N 
HETATM   31  O   UNL     1      25.721  44.676  49.768  1.00  0.00    -0.247 OA
HETATM   32  H   UNL     1      23.932  44.103  52.317  1.00  0.00     0.170 HD
HETATM   33  H   UNL     1      22.774  44.067  50.503  1.00  0.00     0.164 HD
BRANCH  30  34
HETATM   34  C   UNL     1      25.641  45.219  52.659  1.00  0.00     0.037 A 
HETATM   35  C   UNL     1      26.741  44.556  53.210  1.00  0.00     0.044 A 
HETATM   36  C   UNL     1      27.671  45.234  54.014  1.00  0.00     0.011 A 
HETATM   37  C   UNL     1      27.498  46.598  54.264  1.00  0.00     0.015 A 
HETATM   38  C   UNL     1      26.410  47.271  53.706  1.00  0.00     0.003 A 
HETATM   39  C   UNL     1      25.489  46.587  52.906  1.00  0.00     0.029 A 
BRANCH  36  40
HETATM   40  C   UNL     1      28.812  44.452  54.576  1.00  0.00     0.155 C 
HETATM   41  C   UNL     1      29.249  43.190  53.879  1.00  0.00     0.096 C 
HETATM   42  O   UNL     1      29.383  44.852  55.589  1.00  0.00    -0.293 OA
ENDBRANCH  36  40
ENDBRANCH  30  34
ENDBRANCH  27  28
ENDBRANCH   4  27
TORSDOF 9
ENDMDL
MODEL 2
REMARK VINA RESULT:      -9.6      1.008      2.027
REMARK  9 active torsions:
REMARK  status: ('A' for Active; 'I' for Inactive)
REMARK    1  A    between atoms: C_2  and  C_3 
REMARK    2  A    between atoms: C_3  and  C_4 
REMARK    3  A    between atoms: C_3  and  C_39 
REMARK    4  A    between atoms: C_6  and  C_7 
REMARK    5  A    between atoms: C_14  and  C_15 
REMARK    6  A    between atoms: C_18  and  C_19 
REMARK    7  A    between atoms: C_19  and  N_20 
REMARK       I    between atoms: N_20  and  C_21 
REMARK       I    between atoms: C_21  and  N_22 
REMARK    8  A    between atoms: N_22  and  C_23 
REMARK    9  A    between atoms: C_25  and  C_26 
ROOT
HETATM    1  C   UNL     1      21.103  46.294  47.046  1.00  0.00     0.068 C 
HETATM    2  C   UNL     1      20.384  45.303  48.004  1.00  0.00     0.001 C 
HETATM    3  C   UNL     1      21.426  44.570  48.883  1.00  0.00     0.040 C 
HETATM    4  C   UNL     1      22.346  43.690  48.016  1.00  0.00     0.206 C 
HETATM    5  N   UNL     1      22.045  44.050  46.565  1.00  0.00    -0.065 N 
HETATM    6  H   UNL     1      22.757  43.574  45.970  1.00  0.00     0.280 HD
HETATM    7  C   UNL     1      22.196  45.536  46.270  1.00  0.00     0.246 C 
HETATM    8  C   UNL     1      19.671  44.245  47.130  1.00  0.00     0.033 C 
HETATM    9  C   UNL     1      20.669  43.571  46.181  1.00  0.00     0.236 C 
ENDROOT
BRANCH   1  10
HETATM   10  C   UNL     1      21.616  47.528  47.759  1.00  0.00     0.045 A 
HETATM   11  N   UNL     1      22.947  47.644  47.952  1.00  0.00    -0.233 NA
HETATM   12  C   UNL     1      23.375  48.737  48.623  1.00  0.00     0.160 A 
HETATM   13  N   UNL     1      22.560  49.677  49.132  1.00  0.00    -0.233 NA
HETATM   14  C   UNL     1      21.236  49.537  48.933  1.00  0.00     0.043 A 
HETATM   15  C   UNL     1      20.715  48.462  48.240  1.00  0.00     0.055 A 
BRANCH  12  16
HETATM   16  C   UNL     1      24.825  48.914  48.826  1.00  0.00     0.014 A 
HETATM   17  C   UNL     1      25.553  48.052  49.661  1.00  0.00     0.034 A 
HETATM   18  C   UNL     1      26.916  48.246  49.822  1.00  0.00     0.117 A 
HETATM   19  N   UNL     1      27.606  49.231  49.214  1.00  0.00    -0.273 NA
HETATM   20  C   UNL     1      26.903  50.065  48.426  1.00  0.00     0.117 A 
HETATM   21  C   UNL     1      25.539  49.949  48.206  1.00  0.00     0.034 A 
ENDBRANCH  12  16
BRANCH  14  22
HETATM   22  C   UNL     1      20.314  50.584  49.536  1.00  0.00     0.037 C 
BRANCH  22  23
HETATM   23  C   UNL     1      18.897  50.021  49.786  1.00  0.00     0.006 C 
HETATM   24  C   UNL     1      18.776  49.256  51.098  1.00  0.00     0.006 C 
ENDBRANCH  22  23
BRANCH  22  25
HETATM   25  C   UNL     1      20.229  51.828  48.627  1.00  0.00     0.006 C 
HETATM   26  C   UNL     1      18.808  52.349  48.445  1.00  0.00     0.006 C 
ENDBRANCH  22  25
ENDBRANCH  14  22
ENDBRANCH   1  10
BRANCH   4  27
HETATM   27  C   UNL     1      23.847  43.803  48.395  1.00  0.00     0.157 C 
BRANCH  27  28
HETATM   28  N   UNL     1      24.291  42.983  49.527  1.00  0.00    -0.341 N 
HETATM   29  C   UNL     1      25.572  43.060  50.021  1.00  0.00     0.320 C 
HETATM   30  N   UNL     1      25.720  42.406  51.215  1.00  0.00    -0.309 N 
HETATM   31  O   UNL     1      26.451  43.637  49.391  1.00  0.00    -0.247 OA
HETATM   32  H   UNL     1      24.990  41.760  51.481  1.00  0.00     0.170 HD
HETATM   33  H   UNL     1      23.587  42.814  50.236  1.00  0.00     0.164 HD
BRANCH  30  34
HETATM   34  C   UNL     1      26.873  42.418  52.035  1.00  0.00     0.037 A 
HETATM   35  C   UNL     1      27.204  43.477  52.885  1.00  0.00     0.044 A 
HETATM   36  C   UNL     1      28.358  43.436  53.683  1.00  0.00     0.011 A 
HETATM   37  C   UNL     1      29.189  42.314  53.632  1.00  0.00     0.015 A 
HETATM   38  C   UNL     1      28.859  41.245  52.796  1.00  0.00     0.003 A 
HETATM   39  C   UNL     1      27.706  41.295  52.005  1.00  0.00     0.029 A 
BRANCH  36  40
HETATM   40  C   UNL     1      28.649  44.612  54.555  1.00  0.00     0.155 C 
HETATM   41  C   UNL     1      27.661  45.747  54.608  1.00  0.00     0.096 C 
HETATM   42  O   UNL     1      29.682  44.634  55.223  1.00  0.00    -0.293 OA
ENDBRANCH  36  40
ENDBRANCH  30  34
ENDBRANCH  27  28
ENDBRANCH   4  27
TORSDOF 9
ENDMDL
MODEL 3
REMARK VINA RESULT:      -9.2      3.039      8.248
REMARK  9 active torsions:
REMARK  status: ('A' for Active; 'I' for Inactive)
REMARK    1  A    between atoms: C_2  and  C_3 
REMARK    2  A    between atoms: C_3  and  C_4 
REMARK    3  A    between atoms: C_3  and  C_39 
REMARK    4  A    between atoms: C_6  and  C_7 
REMARK    5  A    between atoms: C_14  and  C_15 
REMARK    6  A    between atoms: C_18  and  C_19 
REMARK    7  A    between atoms: C_19  and  N_20 
REMARK       I    between atoms: N_20  and  C_21 
REMARK       I    between atoms: C_21  and  N_22 
REMARK    8  A    between atoms: N_22  and  C_23 
REMARK    9  A    between atoms: C_25  and  C_26 
ROOT
HETATM    1  C   UNL     1      27.466  41.202  51.054  1.00  0.00     0.068 C 
HETATM    2  C   UNL     1      27.896  41.394  49.572  1.00  0.00     0.001 C 
HETATM    3  C   UNL     1      26.751  42.062  48.773  1.00  0.00     0.040 C 
HETATM    4  C   UNL     1      25.519  41.139  48.715  1.00  0.00     0.206 C 
HETATM    5  N   UNL     1      25.795  39.990  49.679  1.00  0.00    -0.065 N 
HETATM    6  H   UNL     1      24.916  39.434  49.763  1.00  0.00     0.280 HD
HETATM    7  C   UNL     1      26.120  40.455  51.091  1.00  0.00     0.246 C 
HETATM    8  C   UNL     1      28.138  39.989  48.972  1.00  0.00     0.033 C 
HETATM    9  C   UNL     1      26.894  39.110  49.145  1.00  0.00     0.236 C 
ENDROOT
BRANCH   1  10
HETATM   10  C   UNL     1      27.456  42.501  51.832  1.00  0.00     0.045 A 
HETATM   11  N   UNL     1      28.336  42.641  52.847  1.00  0.00    -0.233 NA
HETATM   12  C   UNL     1      28.281  43.796  53.549  1.00  0.00     0.160 A 
HETATM   13  N   UNL     1      27.391  44.777  53.320  1.00  0.00    -0.233 NA
HETATM   14  C   UNL     1      26.519  44.612  52.307  1.00  0.00     0.043 A 
HETATM   15  C   UNL     1      26.519  43.473  51.527  1.00  0.00     0.055 A 
BRANCH  12  16
HETATM   16  C   UNL     1      29.246  43.998  54.645  1.00  0.00     0.014 A 
HETATM   17  C   UNL     1      29.250  45.178  55.405  1.00  0.00     0.034 A 
HETATM   18  C   UNL     1      30.169  45.328  56.432  1.00  0.00     0.117 A 
HETATM   19  N   UNL     1      31.080  44.392  56.759  1.00  0.00    -0.273 NA
HETATM   20  C   UNL     1      31.086  43.267  56.020  1.00  0.00     0.117 A 
HETATM   21  C   UNL     1      30.207  43.030  54.974  1.00  0.00     0.034 A 
ENDBRANCH  12  16
BRANCH  14  22
HETATM   22  C   UNL     1      25.493  45.707  52.070  1.00  0.00     0.037 C 
BRANCH  22  23
HETATM   23  C   UNL     1      25.014  45.734  50.602  1.00  0.00     0.006 C 
HETATM   24  C   UNL     1      25.836  46.663  49.717  1.00  0.00     0.006 C 
ENDBRANCH  22  23
BRANCH  22  25
HETATM   25  C   UNL     1      26.066  47.087  52.458  1.00  0.00     0.006 C 
HETATM   26  C   UNL     1      25.802  47.465  53.911  1.00  0.00     0.006 C 
ENDBRANCH  22  25
ENDBRANCH  14  22
ENDBRANCH   1  10
BRANCH   4  27
HETATM   27  C   UNL     1      24.180  41.878  48.981  1.00  0.00     0.157 C 
BRANCH  27  28
HETATM   28  N   UNL     1      23.821  42.929  48.023  1.00  0.00    -0.341 N 
HETATM   29  C   UNL     1      22.882  43.889  48.318  1.00  0.00     0.320 C 
HETATM   30  N   UNL     1      22.863  44.911  47.405  1.00  0.00    -0.309 N 
HETATM   31  O   UNL     1      22.144  43.765  49.289  1.00  0.00    -0.247 OA
HETATM   32  H   UNL     1      23.334  44.752  46.526  1.00  0.00     0.170 HD
HETATM   33  H   UNL     1      24.586  43.265  47.449  1.00  0.00     0.164 HD
BRANCH  30  34
HETATM   34  C   UNL     1      22.110  46.104  47.505  1.00  0.00     0.037 A 
HETATM   35  C   UNL     1      22.554  47.242  48.185  1.00  0.00     0.044 A 
HETATM   36  C   UNL     1      21.767  48.403  48.248  1.00  0.00     0.011 A 
HETATM   37  C   UNL     1      20.521  48.426  47.616  1.00  0.00     0.015 A 
HETATM   38  C   UNL     1      20.077  47.298  46.923  1.00  0.00     0.003 A 
HETATM   39  C   UNL     1      20.867  46.146  46.864  1.00  0.00     0.029 A 
BRANCH  36  40
HETATM   40  C   UNL     1      22.306  49.573  49.004  1.00  0.00     0.155 C 
HETATM   41  C   UNL     1      21.648  50.918  48.839  1.00  0.00     0.096 C 
HETATM   42  O   UNL     1      23.268  49.421  49.756  1.00  0.00    -0.293 OA
ENDBRANCH  36  40
ENDBRANCH  30  34
ENDBRANCH  27  28
ENDBRANCH   4  27
TORSDOF 9
ENDMDL
MODEL 4
REMARK VINA RESULT:      -9.0      1.389      4.478
REMARK  9 active torsions:
REMARK  status: ('A' for Active; 'I' for Inactive)
REMARK    1  A    between atoms: C_2  and  C_3 
REMARK    2  A    between atoms: C_3  and  C_4 
REMARK    3  A    between atoms: C_3  and  C_39 
REMARK    4  A    between atoms: C_6  and  C_7 
REMARK    5  A    between atoms: C_14  and  C_15 
REMARK    6  A    between atoms: C_18  and  C_19 
REMARK    7  A    between atoms: C_19  and  N_20 
REMARK       I    between atoms: N_20  and  C_21 
REMARK       I    between atoms: C_21  and  N_22 
REMARK    8  A    between atoms: N_22  and  C_23 
REMARK    9  A    between atoms: C_25  and  C_26 
ROOT
HETATM    1  C   UNL     1      21.592  45.824  47.251  1.00  0.00     0.068 C 
HETATM    2  C   UNL     1      20.896  44.762  48.148  1.00  0.00     0.001 C 
HETATM    3  C   UNL     1      21.926  44.129  49.113  1.00  0.00     0.040 C 
HETATM    4  C   UNL     1      22.998  43.348  48.329  1.00  0.00     0.206 C 
HETATM    5  N   UNL     1      22.786  43.685  46.857  1.00  0.00    -0.065 N 
HETATM    6  H   UNL     1      23.589  43.284  46.325  1.00  0.00     0.280 HD
HETATM    7  C   UNL     1      22.815  45.180  46.572  1.00  0.00     0.246 C 
HETATM    8  C   UNL     1      20.366  43.645  47.219  1.00  0.00     0.033 C 
HETATM    9  C   UNL     1      21.501  43.077  46.359  1.00  0.00     0.236 C 
ENDROOT
BRANCH   1  10
HETATM   10  C   UNL     1      21.920  47.097  48.001  1.00  0.00     0.045 A 
HETATM   11  N   UNL     1      20.945  48.018  48.149  1.00  0.00    -0.233 NA
HETATM   12  C   UNL     1      21.274  49.162  48.791  1.00  0.00     0.160 A 
HETATM   13  N   UNL     1      22.506  49.443  49.248  1.00  0.00    -0.233 NA
HETATM   14  C   UNL     1      23.466  48.512  49.083  1.00  0.00     0.043 A 
HETATM   15  C   UNL     1      23.210  47.308  48.457  1.00  0.00     0.055 A 
BRANCH  12  16
HETATM   16  C   UNL     1      20.226  50.179  48.998  1.00  0.00     0.014 A 
HETATM   17  C   UNL     1      19.080  49.899  49.759  1.00  0.00     0.034 A 
HETATM   18  C   UNL     1      18.120  50.883  49.936  1.00  0.00     0.117 A 
HETATM   19  N   UNL     1      18.217  52.122  49.416  1.00  0.00    -0.273 NA
HETATM   20  C   UNL     1      19.309  52.383  48.673  1.00  0.00     0.117 A 
HETATM   21  C   UNL     1      20.319  51.463  48.441  1.00  0.00     0.034 A 
ENDBRANCH  12  16
BRANCH  14  22
HETATM   22  C   UNL     1      24.866  48.844  49.571  1.00  0.00     0.037 C 
BRANCH  22  23
HETATM   23  C   UNL     1      25.615  49.761  48.579  1.00  0.00     0.006 C 
HETATM   24  C   UNL     1      27.131  49.684  48.716  1.00  0.00     0.006 C 
ENDBRANCH  22  23
BRANCH  22  25
HETATM   25  C   UNL     1      25.682  47.555  49.810  1.00  0.00     0.006 C 
HETATM   26  C   UNL     1      25.723  47.128  51.273  1.00  0.00     0.006 C 
ENDBRANCH  22  25
ENDBRANCH  14  22
ENDBRANCH   1  10
BRANCH   4  27
HETATM   27  C   UNL     1      24.444  43.605  48.833  1.00  0.00     0.157 C 
BRANCH  27  28
HETATM   28  N   UNL     1      24.725  43.210  50.217  1.00  0.00    -0.341 N 
HETATM   29  C   UNL     1      25.974  43.356  50.774  1.00  0.00     0.320 C 
HETATM   30  N   UNL     1      25.975  43.162  52.130  1.00  0.00    -0.309 N 
HETATM   31  O   UNL     1      26.948  43.597  50.070  1.00  0.00    -0.247 OA
HETATM   32  H   UNL     1      25.165  42.714  52.533  1.00  0.00     0.170 HD
HETATM   33  H   UNL     1      23.964  43.363  50.869  1.00  0.00     0.164 HD
BRANCH  30  34
HETATM   34  C   UNL     1      27.069  43.374  53.001  1.00  0.00     0.037 A 
HETATM   35  C   UNL     1      27.299  44.579  53.672  1.00  0.00     0.044 A 
HETATM   36  C   UNL     1      28.399  44.735  54.530  1.00  0.00     0.011 A 
HETATM   37  C   UNL     1      29.278  43.665  54.723  1.00  0.00     0.015 A 
HETATM   38  C   UNL     1      29.048  42.454  54.068  1.00  0.00     0.003 A 
HETATM   39  C   UNL     1      27.949  42.308  53.215  1.00  0.00     0.029 A 
BRANCH  36  40
HETATM   40  C   UNL     1      28.583  46.056  55.200  1.00  0.00     0.155 C 
HETATM   41  C   UNL     1      27.689  47.205  54.813  1.00  0.00     0.096 C 
HETATM   42  O   UNL     1      29.450  46.186  56.063  1.00  0.00    -0.293 OA
ENDBRANCH  36  40
ENDBRANCH  30  34
ENDBRANCH  27  28
ENDBRANCH   4  27
TORSDOF 9
ENDMDL
MODEL 5
REMARK VINA RESULT:      -8.9      2.636      7.676
REMARK  9 active torsions:
REMARK  status: ('A' for Active; 'I' for Inactive)
REMARK    1  A    between atoms: C_2  and  C_3 
REMARK    2  A    between atoms: C_3  and  C_4 
REMARK    3  A    between atoms: C_3  and  C_39 
REMARK    4  A    between atoms: C_6  and  C_7 
REMARK    5  A    between atoms: C_14  and  C_15 
REMARK    6  A    between atoms: C_18  and  C_19 
REMARK    7  A    between atoms: C_19  and  N_20 
REMARK       I    between atoms: N_20  and  C_21 
REMARK       I    between atoms: C_21  and  N_22 
REMARK    8  A    between atoms: N_22  and  C_23 
REMARK    9  A    between atoms: C_25  and  C_26 
ROOT
HETATM    1  C   UNL     1      24.118  43.607  50.429  1.00  0.00     0.068 C 
HETATM    2  C   UNL     1      24.873  42.986  49.220  1.00  0.00     0.001 C 
HETATM    3  C   UNL     1      24.581  43.804  47.940  1.00  0.00     0.040 C 
HETATM    4  C   UNL     1      23.089  43.715  47.566  1.00  0.00     0.206 C 
HETATM    5  N   UNL     1      22.389  43.041  48.742  1.00  0.00    -0.065 N 
HETATM    6  H   UNL     1      21.362  43.104  48.572  1.00  0.00     0.280 HD
HETATM    7  C   UNL     1      22.628  43.748  50.069  1.00  0.00     0.246 C 
HETATM    8  C   UNL     1      24.318  41.558  49.009  1.00  0.00     0.033 C 
HETATM    9  C   UNL     1      22.795  41.594  48.833  1.00  0.00     0.236 C 
ENDROOT
BRANCH   1  10
HETATM   10  C   UNL     1      24.747  44.897  50.910  1.00  0.00     0.045 A 
HETATM   11  N   UNL     1      24.850  45.920  50.034  1.00  0.00    -0.233 NA
HETATM   12  C   UNL     1      25.448  47.049  50.479  1.00  0.00     0.160 A 
HETATM   13  N   UNL     1      25.970  47.192  51.709  1.00  0.00    -0.233 NA
HETATM   14  C   UNL     1      25.862  46.156  52.563  1.00  0.00     0.043 A 
HETATM   15  C   UNL     1      25.248  44.975  52.198  1.00  0.00     0.055 A 
BRANCH  12  16
HETATM   16  C   UNL     1      25.551  48.197  49.560  1.00  0.00     0.014 A 
HETATM   17  C   UNL     1      24.407  48.793  49.007  1.00  0.00     0.034 A 
HETATM   18  C   UNL     1      24.544  49.876  48.153  1.00  0.00     0.117 A 
HETATM   19  N   UNL     1      25.733  50.409  47.810  1.00  0.00    -0.273 NA
HETATM   20  C   UNL     1      26.830  49.827  48.329  1.00  0.00     0.117 A 
HETATM   21  C   UNL     1      26.790  48.741  49.190  1.00  0.00     0.034 A 
ENDBRANCH  12  16
BRANCH  14  22
HETATM   22  C   UNL     1      26.482  46.308  53.942  1.00  0.00     0.037 C 
BRANCH  22  23
HETATM   23  C   UNL     1      26.992  47.745  54.185  1.00  0.00     0.006 C 
HETATM   24  C   UNL     1      26.290  48.445  55.342  1.00  0.00     0.006 C 
ENDBRANCH  22  23
BRANCH  22  25
HETATM   25  C   UNL     1      27.638  45.303  54.137  1.00  0.00     0.006 C 
HETATM   26  C   UNL     1      28.282  45.383  55.516  1.00  0.00     0.006 C 
ENDBRANCH  22  25
ENDBRANCH  14  22
ENDBRANCH   1  10
BRANCH   4  27
HETATM   27  C   UNL     1      22.471  45.081  47.163  1.00  0.00     0.157 C 
BRANCH  27  28
HETATM   28  N   UNL     1      21.986  45.921  48.263  1.00  0.00    -0.341 N 
HETATM   29  C   UNL     1      21.509  47.193  48.050  1.00  0.00     0.320 C 
HETATM   30  N   UNL     1      20.886  47.717  49.151  1.00  0.00    -0.309 N 
HETATM   31  O   UNL     1      21.689  47.756  46.975  1.00  0.00    -0.247 OA
HETATM   32  H   UNL     1      21.044  47.254  50.034  1.00  0.00     0.170 HD
HETATM   33  H   UNL     1      21.509  45.422  49.005  1.00  0.00     0.164 HD
BRANCH  30  34
HETATM   34  C   UNL     1      20.178  48.940  49.205  1.00  0.00     0.037 A 
HETATM   35  C   UNL     1      18.814  49.056  48.920  1.00  0.00     0.044 A 
HETATM   36  C   UNL     1      18.158  50.295  48.993  1.00  0.00     0.011 A 
HETATM   37  C   UNL     1      18.879  51.433  49.364  1.00  0.00     0.015 A 
HETATM   38  C   UNL     1      20.238  51.325  49.664  1.00  0.00     0.003 A 
HETATM   39  C   UNL     1      20.883  50.086  49.588  1.00  0.00     0.029 A 
BRANCH  36  40
HETATM   40  C   UNL     1      16.703  50.337  48.662  1.00  0.00     0.155 C 
HETATM   41  C   UNL     1      16.092  49.193  47.898  1.00  0.00     0.096 C 
HETATM   42  O   UNL     1      16.024  51.297  49.024  1.00  0.00    -0.293 OA
ENDBRANCH  36  40
ENDBRANCH  30  34
ENDBRANCH  27  28
ENDBRANCH   4  27
TORSDOF 9
ENDMDL
MODEL 6
REMARK VINA RESULT:      -8.9      2.591      7.591
REMARK  9 active torsions:
REMARK  status: ('A' for Active; 'I' for Inactive)
REMARK    1  A    between atoms: C_2  and  C_3 
REMARK    2  A    between atoms: C_3  and  C_4 
REMARK    3  A    between atoms: C_3  and  C_39 
REMARK    4  A    between atoms: C_6  and  C_7 
REMARK    5  A    between atoms: C_14  and  C_15 
REMARK    6  A    between atoms: C_18  and  C_19 
REMARK    7  A    between atoms: C_19  and  N_20 
REMARK       I    between atoms: N_20  and  C_21 
REMARK       I    between atoms: C_21  and  N_22 
REMARK    8  A    between atoms: N_22  and  C_23 
REMARK    9  A    between atoms: C_25  and  C_26 
ROOT
HETATM    1  C   UNL     1      26.430  43.337  51.132  1.00  0.00     0.068 C 
HETATM    2  C   UNL     1      26.815  43.152  49.638  1.00  0.00     0.001 C 
HETATM    3  C   UNL     1      25.599  43.469  48.736  1.00  0.00     0.040 C 
HETATM    4  C   UNL     1      24.461  42.459  48.983  1.00  0.00     0.206 C 
HETATM    5  N   UNL     1      24.863  41.649  50.211  1.00  0.00    -0.065 N 
HETATM    6  H   UNL     1      24.044  41.062  50.480  1.00  0.00     0.280 HD
HETATM    7  C   UNL     1      25.164  42.512  51.428  1.00  0.00     0.246 C 
HETATM    8  C   UNL     1      27.184  41.664  49.434  1.00  0.00     0.033 C 
HETATM    9  C   UNL     1      26.034  40.758  49.891  1.00  0.00     0.236 C 
ENDROOT
BRANCH   1  10
HETATM   10  C   UNL     1      26.306  44.793  51.527  1.00  0.00     0.045 A 
HETATM   11  N   UNL     1      26.080  45.700  50.553  1.00  0.00    -0.233 NA
HETATM   12  C   UNL     1      26.009  46.998  50.928  1.00  0.00     0.160 A 
HETATM   13  N   UNL     1      26.186  47.429  52.188  1.00  0.00    -0.233 NA
HETATM   14  C   UNL     1      26.417  46.508  53.143  1.00  0.00     0.043 A 
HETATM   15  C   UNL     1      26.484  45.160  52.850  1.00  0.00     0.055 A 
BRANCH  12  16
HETATM   16  C   UNL     1      25.734  48.013  49.895  1.00  0.00     0.014 A 
HETATM   17  C   UNL     1      26.772  48.745  49.297  1.00  0.00     0.034 A 
HETATM   18  C   UNL     1      26.473  49.687  48.325  1.00  0.00     0.117 A 
HETATM   19  N   UNL     1      25.221  49.953  47.904  1.00  0.00    -0.273 NA
HETATM   20  C   UNL     1      24.226  49.262  48.490  1.00  0.00     0.117 A 
HETATM   21  C   UNL     1      24.428  48.302  49.470  1.00  0.00     0.034 A 
ENDBRANCH  12  16
BRANCH  14  22
HETATM   22  C   UNL     1      26.649  47.000  54.562  1.00  0.00     0.037 C 
BRANCH  22  23
HETATM   23  C   UNL     1      26.069  48.415  54.778  1.00  0.00     0.006 C 
HETATM   24  C   UNL     1      26.130  48.875  56.229  1.00  0.00     0.006 C 
ENDBRANCH  22  23
BRANCH  22  25
HETATM   25  C   UNL     1      28.155  46.995  54.904  1.00  0.00     0.006 C 
HETATM   26  C   UNL     1      28.500  46.115  56.100  1.00  0.00     0.006 C 
ENDBRANCH  22  25
ENDBRANCH  14  22
ENDBRANCH   1  10
BRANCH   4  27
HETATM   27  C   UNL     1      23.061  43.120  49.093  1.00  0.00     0.157 C 
BRANCH  27  28
HETATM   28  N   UNL     1      22.878  44.374  48.356  1.00  0.00    -0.341 N 
HETATM   29  C   UNL     1      21.695  45.074  48.396  1.00  0.00     0.320 C 
HETATM   30  N   UNL     1      21.801  46.325  47.848  1.00  0.00    -0.309 N 
HETATM   31  O   UNL     1      20.680  44.560  48.853  1.00  0.00    -0.247 OA
HETATM   32  H   UNL     1      22.614  46.512  47.279  1.00  0.00     0.170 HD
HETATM   33  H   UNL     1      23.702  44.962  48.300  1.00  0.00     0.164 HD
BRANCH  30  34
HETATM   34  C   UNL     1      20.804  47.328  47.863  1.00  0.00     0.037 A 
HETATM   35  C   UNL     1      20.635  48.233  48.915  1.00  0.00     0.044 A 
HETATM   36  C   UNL     1      19.631  49.214  48.876  1.00  0.00     0.011 A 
HETATM   37  C   UNL     1      18.789  49.292  47.764  1.00  0.00     0.015 A 
HETATM   38  C   UNL     1      18.960  48.402  46.703  1.00  0.00     0.003 A 
HETATM   39  C   UNL     1      19.963  47.428  46.750  1.00  0.00     0.029 A 
BRANCH  36  40
HETATM   40  C   UNL     1      19.507  50.135  50.045  1.00  0.00     0.155 C 
HETATM   41  C   UNL     1      20.643  51.070  50.365  1.00  0.00     0.096 C 
HETATM   42  O   UNL     1      18.479  50.125  50.721  1.00  0.00    -0.293 OA
ENDBRANCH  36  40
ENDBRANCH  30  34
ENDBRANCH  27  28
ENDBRANCH   4  27
TORSDOF 9
ENDMDL
MODEL 7
REMARK VINA RESULT:      -8.9      3.553      9.396
REMARK  9 active torsions:
REMARK  status: ('A' for Active; 'I' for Inactive)
REMARK    1  A    between atoms: C_2  and  C_3 
REMARK    2  A    between atoms: C_3  and  C_4 
REMARK    3  A    between atoms: C_3  and  C_39 
REMARK    4  A    between atoms: C_6  and  C_7 
REMARK    5  A    between atoms: C_14  and  C_15 
REMARK    6  A    between atoms: C_18  and  C_19 
REMARK    7  A    between atoms: C_19  and  N_20 
REMARK       I    between atoms: N_20  and  C_21 
REMARK       I    between atoms: C_21  and  N_22 
REMARK    8  A    between atoms: N_22  and  C_23 
REMARK    9  A    between atoms: C_25  and  C_26 
ROOT
HETATM    1  C   UNL     1      24.473  42.602  50.510  1.00  0.00     0.068 C 
HETATM    2  C   UNL     1      24.422  42.856  48.977  1.00  0.00     0.001 C 
HETATM    3  C   UNL     1      24.943  44.278  48.661  1.00  0.00     0.040 C 
HETATM    4  C   UNL     1      24.016  45.346  49.273  1.00  0.00     0.206 C 
HETATM    5  N   UNL     1      23.042  44.601  50.181  1.00  0.00    -0.065 N 
HETATM    6  H   UNL     1      22.503  45.317  50.715  1.00  0.00     0.280 HD
HETATM    7  C   UNL     1      23.734  43.744  51.231  1.00  0.00     0.246 C 
HETATM    8  C   UNL     1      22.939  42.785  48.543  1.00  0.00     0.033 C 
HETATM    9  C   UNL     1      22.093  43.769  49.360  1.00  0.00     0.236 C 
ENDROOT
BRANCH   1  10
HETATM   10  C   UNL     1      25.881  42.379  51.019  1.00  0.00     0.045 A 
HETATM   11  N   UNL     1      26.557  41.301  50.569  1.00  0.00    -0.233 NA
HETATM   12  C   UNL     1      27.799  41.105  51.067  1.00  0.00     0.160 A 
HETATM   13  N   UNL     1      28.372  41.890  51.996  1.00  0.00    -0.233 NA
HETATM   14  C   UNL     1      27.676  42.956  52.436  1.00  0.00     0.043 A 
HETATM   15  C   UNL     1      26.409  43.241  51.965  1.00  0.00     0.055 A 
BRANCH  12  16
HETATM   16  C   UNL     1      28.580  39.955  50.576  1.00  0.00     0.014 A 
HETATM   17  C   UNL     1      29.304  39.136  51.458  1.00  0.00     0.034 A 
HETATM   18  C   UNL     1      30.020  38.060  50.959  1.00  0.00     0.117 A 
HETATM   19  N   UNL     1      30.068  37.737  49.651  1.00  0.00    -0.273 NA
HETATM   20  C   UNL     1      29.387  38.533  48.807  1.00  0.00     0.117 A 
HETATM   21  C   UNL     1      28.644  39.630  49.213  1.00  0.00     0.034 A 
ENDBRANCH  12  16
BRANCH  14  22
HETATM   22  C   UNL     1      28.311  43.823  53.510  1.00  0.00     0.037 C 
BRANCH  22  23
HETATM   23  C   UNL     1      29.076  42.976  54.550  1.00  0.00     0.006 C 
HETATM   24  C   UNL     1      30.565  43.292  54.606  1.00  0.00     0.006 C 
ENDBRANCH  22  23
BRANCH  22  25
HETATM   25  C   UNL     1      27.244  44.685  54.219  1.00  0.00     0.006 C 
HETATM   26  C   UNL     1      27.708  46.110  54.502  1.00  0.00     0.006 C 
ENDBRANCH  22  25
ENDBRANCH  14  22
ENDBRANCH   1  10
BRANCH   4  27
HETATM   27  C   UNL     1      24.780  46.498  49.979  1.00  0.00     0.157 C 
BRANCH  27  28
HETATM   28  N   UNL     1      24.003  47.708  50.268  1.00  0.00    -0.341 N 
HETATM   29  C   UNL     1      23.110  48.230  49.362  1.00  0.00     0.320 C 
HETATM   30  N   UNL     1      22.315  49.205  49.903  1.00  0.00    -0.309 N 
HETATM   31  O   UNL     1      23.104  47.845  48.198  1.00  0.00    -0.247 OA
HETATM   32  H   UNL     1      22.606  49.600  50.786  1.00  0.00     0.170 HD
HETATM   33  H   UNL     1      23.717  47.812  51.234  1.00  0.00     0.164 HD
BRANCH  30  34
HETATM   34  C   UNL     1      21.218  49.833  49.269  1.00  0.00     0.037 A 
HETATM   35  C   UNL     1      20.045  49.161  48.913  1.00  0.00     0.044 A 
HETATM   36  C   UNL     1      18.982  49.834  48.290  1.00  0.00     0.011 A 
HETATM   37  C   UNL     1      19.095  51.201  48.025  1.00  0.00     0.015 A 
HETATM   38  C   UNL     1      20.257  51.883  48.389  1.00  0.00     0.003 A 
HETATM   39  C   UNL     1      21.311  51.204  49.010  1.00  0.00     0.029 A 
BRANCH  36  40
HETATM   40  C   UNL     1      17.768  49.043  47.930  1.00  0.00     0.155 C 
HETATM   41  C   UNL     1      17.570  47.683  48.545  1.00  0.00     0.096 C 
HETATM   42  O   UNL     1      16.944  49.515  47.148  1.00  0.00    -0.293 OA
ENDBRANCH  36  40
ENDBRANCH  30  34
ENDBRANCH  27  28
ENDBRANCH   4  27
TORSDOF 9
ENDMDL
MODEL 8
REMARK VINA RESULT:      -8.6      3.114      8.992
REMARK  9 active torsions:
REMARK  status: ('A' for Active; 'I' for Inactive)
REMARK    1  A    between atoms: C_2  and  C_3 
REMARK    2  A    between atoms: C_3  and  C_4 
REMARK    3  A    between atoms: C_3  and  C_39 
REMARK    4  A    between atoms: C_6  and  C_7 
REMARK    5  A    between atoms: C_14  and  C_15 
REMARK    6  A    between atoms: C_18  and  C_19 
REMARK    7  A    between atoms: C_19  and  N_20 
REMARK       I    between atoms: N_20  and  C_21 
REMARK       I    between atoms: C_21  and  N_22 
REMARK    8  A    between atoms: N_22  and  C_23 
REMARK    9  A    between atoms: C_25  and  C_26 
ROOT
HETATM    1  C   UNL     1      27.699  40.734  50.866  1.00  0.00     0.068 C 
HETATM    2  C   UNL     1      28.296  40.761  49.431  1.00  0.00     0.001 C 
HETATM    3  C   UNL     1      27.257  41.334  48.437  1.00  0.00     0.040 C 
HETATM    4  C   UNL     1      26.029  40.409  48.341  1.00  0.00     0.206 C 
HETATM    5  N   UNL     1      26.180  39.374  49.451  1.00  0.00    -0.065 N 
HETATM    6  H   UNL     1      25.291  38.830  49.495  1.00  0.00     0.280 HD
HETATM    7  C   UNL     1      26.349  39.994  50.831  1.00  0.00     0.246 C 
HETATM    8  C   UNL     1      28.589  39.298  49.021  1.00  0.00     0.033 C 
HETATM    9  C   UNL     1      27.323  38.442  49.146  1.00  0.00     0.236 C 
ENDROOT
BRANCH   1  10
HETATM   10  C   UNL     1      27.615  42.110  51.490  1.00  0.00     0.045 A 
HETATM   11  N   UNL     1      26.775  43.010  50.935  1.00  0.00    -0.233 NA
HETATM   12  C   UNL     1      26.746  44.244  51.490  1.00  0.00     0.160 A 
HETATM   13  N   UNL     1      27.522  44.627  52.519  1.00  0.00    -0.233 NA
HETATM   14  C   UNL     1      28.357  43.714  53.051  1.00  0.00     0.043 A 
HETATM   15  C   UNL     1      28.434  42.426  52.560  1.00  0.00     0.055 A 
BRANCH  12  16
HETATM   16  C   UNL     1      25.819  45.244  50.930  1.00  0.00     0.014 A 
HETATM   17  C   UNL     1      25.973  46.613  51.201  1.00  0.00     0.034 A 
HETATM   18  C   UNL     1      25.085  47.523  50.652  1.00  0.00     0.117 A 
HETATM   19  N   UNL     1      24.057  47.174  49.853  1.00  0.00    -0.273 NA
HETATM   20  C   UNL     1      23.902  45.860  49.607  1.00  0.00     0.117 A 
HETATM   21  C   UNL     1      24.739  44.878  50.113  1.00  0.00     0.034 A 
ENDBRANCH  12  16
BRANCH  14  22
HETATM   22  C   UNL     1      29.256  44.158  54.193  1.00  0.00     0.037 C 
BRANCH  22  23
HETATM   23  C   UNL     1      30.011  42.966  54.822  1.00  0.00     0.006 C 
HETATM   24  C   UNL     1      31.014  43.385  55.890  1.00  0.00     0.006 C 
ENDBRANCH  22  23
BRANCH  22  25
HETATM   25  C   UNL     1      28.440  44.892  55.279  1.00  0.00     0.006 C 
HETATM   26  C   UNL     1      28.770  46.377  55.382  1.00  0.00     0.006 C 
ENDBRANCH  22  25
ENDBRANCH  14  22
ENDBRANCH   1  10
BRANCH   4  27
HETATM   27  C   UNL     1      24.677  41.171  48.369  1.00  0.00     0.157 C 
BRANCH  27  28
HETATM   28  N   UNL     1      24.541  42.280  47.419  1.00  0.00    -0.341 N 
HETATM   29  C   UNL     1      23.320  42.843  47.130  1.00  0.00     0.320 C 
HETATM   30  N   UNL     1      23.428  44.008  46.418  1.00  0.00    -0.309 N 
HETATM   31  O   UNL     1      22.280  42.289  47.471  1.00  0.00    -0.247 OA
HETATM   32  H   UNL     1      24.319  44.201  45.983  1.00  0.00     0.170 HD
HETATM   33  H   UNL     1      25.308  42.942  47.421  1.00  0.00     0.164 HD
BRANCH  30  34
HETATM   34  C   UNL     1      22.368  44.885  46.089  1.00  0.00     0.037 A 
HETATM   35  C   UNL     1      21.892  45.876  46.952  1.00  0.00     0.044 A 
HETATM   36  C   UNL     1      20.840  46.725  46.574  1.00  0.00     0.011 A 
HETATM   37  C   UNL     1      20.261  46.582  45.310  1.00  0.00     0.015 A 
HETATM   38  C   UNL     1      20.740  45.604  44.437  1.00  0.00     0.003 A 
HETATM   39  C   UNL     1      21.789  44.763  44.822  1.00  0.00     0.029 A 
BRANCH  36  40
HETATM   40  C   UNL     1      20.380  47.751  47.557  1.00  0.00     0.155 C 
HETATM   41  C   UNL     1      19.391  48.797  47.116  1.00  0.00     0.096 C 
HETATM   42  O   UNL     1      20.804  47.720  48.712  1.00  0.00    -0.293 OA
ENDBRANCH  36  40
ENDBRANCH  30  34
ENDBRANCH  27  28
ENDBRANCH   4  27
TORSDOF 9
ENDMDL
MODEL 9
REMARK VINA RESULT:      -8.4      3.509      8.584
REMARK  9 active torsions:
REMARK  status: ('A' for Active; 'I' for Inactive)
REMARK    1  A    between atoms: C_2  and  C_3 
REMARK    2  A    between atoms: C_3  and  C_4 
REMARK    3  A    between atoms: C_3  and  C_39 
REMARK    4  A    between atoms: C_6  and  C_7 
REMARK    5  A    between atoms: C_14  and  C_15 
REMARK    6  A    between atoms: C_18  and  C_19 
REMARK    7  A    between atoms: C_19  and  N_20 
REMARK       I    between atoms: N_20  and  C_21 
REMARK       I    between atoms: C_21  and  N_22 
REMARK    8  A    between atoms: N_22  and  C_23 
REMARK    9  A    between atoms: C_25  and  C_26 
ROOT
HETATM    1  C   UNL     1      27.752  40.588  50.599  1.00  0.00     0.068 C 
HETATM    2  C   UNL     1      28.311  40.515  49.150  1.00  0.00     0.001 C 
HETATM    3  C   UNL     1      27.238  40.999  48.146  1.00  0.00     0.040 C 
HETATM    4  C   UNL     1      26.021  40.054  48.152  1.00  0.00     0.206 C 
HETATM    5  N   UNL     1      26.217  39.107  49.332  1.00  0.00    -0.065 N 
HETATM    6  H   UNL     1      25.337  38.557  49.441  1.00  0.00     0.280 HD
HETATM    7  C   UNL     1      26.413  39.830  50.657  1.00  0.00     0.246 C 
HETATM    8  C   UNL     1      28.614  39.030  48.842  1.00  0.00     0.033 C 
HETATM    9  C   UNL     1      27.365  38.169  49.066  1.00  0.00     0.236 C 
ENDROOT
BRANCH   1  10
HETATM   10  C   UNL     1      27.665  42.006  51.120  1.00  0.00     0.045 A 
HETATM   11  N   UNL     1      28.342  42.313  52.248  1.00  0.00    -0.233 NA
HETATM   12  C   UNL     1      28.218  43.577  52.712  1.00  0.00     0.160 A 
HETATM   13  N   UNL     1      27.443  44.517  52.145  1.00  0.00    -0.233 NA
HETATM   14  C   UNL     1      26.771  44.187  51.025  1.00  0.00     0.043 A 
HETATM   15  C   UNL     1      26.858  42.925  50.471  1.00  0.00     0.055 A 
BRANCH  12  16
HETATM   16  C   UNL     1      28.967  43.956  53.925  1.00  0.00     0.014 A 
HETATM   17  C   UNL     1      30.020  43.165  54.408  1.00  0.00     0.034 A 
HETATM   18  C   UNL     1      30.704  43.558  55.548  1.00  0.00     0.117 A 
HETATM   19  N   UNL     1      30.420  44.680  56.238  1.00  0.00    -0.273 NA
HETATM   20  C   UNL     1      29.399  45.429  55.782  1.00  0.00     0.117 A 
HETATM   21  C   UNL     1      28.658  45.115  54.653  1.00  0.00     0.034 A 
ENDBRANCH  12  16
BRANCH  14  22
HETATM   22  C   UNL     1      25.870  45.240  50.403  1.00  0.00     0.037 C 
BRANCH  22  23
HETATM   23  C   UNL     1      26.479  46.655  50.519  1.00  0.00     0.006 C 
HETATM   24  C   UNL     1      25.569  47.748  49.974  1.00  0.00     0.006 C 
ENDBRANCH  22  23
BRANCH  22  25
HETATM   25  C   UNL     1      24.471  45.218  51.055  1.00  0.00     0.006 C 
HETATM   26  C   UNL     1      23.468  44.348  50.306  1.00  0.00     0.006 C 
ENDBRANCH  22  25
ENDBRANCH  14  22
ENDBRANCH   1  10
BRANCH   4  27
HETATM   27  C   UNL     1      24.659  40.799  48.161  1.00  0.00     0.157 C 
BRANCH  27  28
HETATM   28  N   UNL     1      24.549  41.956  47.266  1.00  0.00    -0.341 N 
HETATM   29  C   UNL     1      23.361  42.623  47.084  1.00  0.00     0.320 C 
HETATM   30  N   UNL     1      23.515  43.806  46.410  1.00  0.00    -0.309 N 
HETATM   31  O   UNL     1      22.305  42.136  47.474  1.00  0.00    -0.247 OA
HETATM   32  H   UNL     1      24.388  43.949  45.923  1.00  0.00     0.170 HD
HETATM   33  H   UNL     1      25.366  42.556  47.240  1.00  0.00     0.164 HD
BRANCH  30  34
HETATM   34  C   UNL     1      22.509  44.775  46.190  1.00  0.00     0.037 A 
HETATM   35  C   UNL     1      22.197  45.785  47.105  1.00  0.00     0.044 A 
HETATM   36  C   UNL     1      21.192  46.727  46.833  1.00  0.00     0.011 A 
HETATM   37  C   UNL     1      20.495  46.660  45.624  1.00  0.00     0.015 A 
HETATM   38  C   UNL     1      20.810  45.663  44.699  1.00  0.00     0.003 A 
HETATM   39  C   UNL     1      21.813  44.729  44.978  1.00  0.00     0.029 A 
BRANCH  36  40
HETATM   40  C   UNL     1      20.910  47.767  47.867  1.00  0.00     0.155 C 
HETATM   41  C   UNL     1      21.994  48.147  48.840  1.00  0.00     0.096 C 
HETATM   42  O   UNL     1      19.803  48.304  47.904  1.00  0.00    -0.293 OA
ENDBRANCH  36  40
ENDBRANCH  30  34
ENDBRANCH  27  28
ENDBRANCH   4  27
TORSDOF 9
ENDMDL
MODEL 10
REMARK VINA RESULT:      -8.4      3.339      9.342
REMARK  9 active torsions:
REMARK  status: ('A' for Active; 'I' for Inactive)
REMARK    1  A    between atoms: C_2  and  C_3 
REMARK    2  A    between atoms: C_3  and  C_4 
REMARK    3  A    between atoms: C_3  and  C_39 
REMARK    4  A    between atoms: C_6  and  C_7 
REMARK    5  A    between atoms: C_14  and  C_15 
REMARK    6  A    between atoms: C_18  and  C_19 
REMARK    7  A    between atoms: C_19  and  N_20 
REMARK       I    between atoms: N_20  and  C_21 
REMARK       I    between atoms: C_21  and  N_22 
REMARK    8  A    between atoms: N_22  and  C_23 
REMARK    9  A    between atoms: C_25  and  C_26 
ROOT
HETATM    1  C   UNL     1      24.356  42.337  50.366  1.00  0.00     0.068 C 
HETATM    2  C   UNL     1      24.292  42.597  48.835  1.00  0.00     0.001 C 
HETATM    3  C   UNL     1      24.972  43.946  48.500  1.00  0.00     0.040 C 
HETATM    4  C   UNL     1      24.199  45.117  49.136  1.00  0.00     0.206 C 
HETATM    5  N   UNL     1      23.169  44.495  50.073  1.00  0.00    -0.065 N 
HETATM    6  H   UNL     1      22.736  45.270  50.621  1.00  0.00     0.280 HD
HETATM    7  C   UNL     1      23.782  43.560  51.105  1.00  0.00     0.246 C 
HETATM    8  C   UNL     1      22.799  42.707  48.444  1.00  0.00     0.033 C 
HETATM    9  C   UNL     1      22.102  43.785  49.282  1.00  0.00     0.236 C 
ENDROOT
BRANCH   1  10
HETATM   10  C   UNL     1      25.742  41.945  50.834  1.00  0.00     0.045 A 
HETATM   11  N   UNL     1      26.348  42.728  51.752  1.00  0.00    -0.233 NA
HETATM   12  C   UNL     1      27.599  42.376  52.126  1.00  0.00     0.160 A 
HETATM   13  N   UNL     1      28.274  41.331  51.615  1.00  0.00    -0.233 NA
HETATM   14  C   UNL     1      27.651  40.569  50.696  1.00  0.00     0.043 A 
HETATM   15  C   UNL     1      26.366  40.845  50.273  1.00  0.00     0.055 A 
BRANCH  12  16
HETATM   16  C   UNL     1      28.282  43.189  53.149  1.00  0.00     0.014 A 
HETATM   17  C   UNL     1      27.763  44.426  53.562  1.00  0.00     0.034 A 
HETATM   18  C   UNL     1      28.430  45.158  54.532  1.00  0.00     0.117 A 
HETATM   19  N   UNL     1      29.571  44.751  55.120  1.00  0.00    -0.273 NA
HETATM   20  C   UNL     1      30.076  43.572  54.711  1.00  0.00     0.117 A 
HETATM   21  C   UNL     1      29.480  42.772  53.749  1.00  0.00     0.034 A 
ENDBRANCH  12  16
BRANCH  14  22
HETATM   22  C   UNL     1      28.427  39.408  50.096  1.00  0.00     0.037 C 
BRANCH  22  23
HETATM   23  C   UNL     1      29.530  38.903  51.051  1.00  0.00     0.006 C 
HETATM   24  C   UNL     1      29.851  37.424  50.872  1.00  0.00     0.006 C 
ENDBRANCH  22  23
BRANCH  22  25
HETATM   25  C   UNL     1      29.051  39.808  48.742  1.00  0.00     0.006 C 
HETATM   26  C   UNL     1      28.136  39.544  47.552  1.00  0.00     0.006 C 
ENDBRANCH  22  25
ENDBRANCH  14  22
ENDBRANCH   1  10
BRANCH   4  27
HETATM   27  C   UNL     1      25.117  46.168  49.816  1.00  0.00     0.157 C 
BRANCH  27  28
HETATM   28  N   UNL     1      24.531  47.494  50.034  1.00  0.00    -0.341 N 
HETATM   29  C   UNL     1      23.445  47.935  49.315  1.00  0.00     0.320 C 
HETATM   30  N   UNL     1      22.902  49.084  49.825  1.00  0.00    -0.309 N 
HETATM   31  O   UNL     1      23.077  47.337  48.310  1.00  0.00    -0.247 OA
HETATM   32  H   UNL     1      23.461  49.604  50.487  1.00  0.00     0.170 HD
HETATM   33  H   UNL     1      24.546  47.816  50.995  1.00  0.00     0.164 HD
BRANCH  30  34
HETATM   34  C   UNL     1      21.707  49.704  49.393  1.00  0.00     0.037 A 
HETATM   35  C   UNL     1      20.454  49.087  49.450  1.00  0.00     0.044 A 
HETATM   36  C   UNL     1      19.296  49.751  49.012  1.00  0.00     0.011 A 
HETATM   37  C   UNL     1      19.396  51.054  48.517  1.00  0.00     0.015 A 
HETATM   38  C   UNL     1      20.642  51.683  48.470  1.00  0.00     0.003 A 
HETATM   39  C   UNL     1      21.789  51.014  48.909  1.00  0.00     0.029 A 
BRANCH  36  40
HETATM   40  C   UNL     1      17.997  49.020  49.094  1.00  0.00     0.155 C 
HETATM   41  C   UNL     1      16.818  49.531  48.308  1.00  0.00     0.096 C 
HETATM   42  O   UNL     1      17.910  48.008  49.788  1.00  0.00    -0.293 OA
ENDBRANCH  36  40
ENDBRANCH  30  34
ENDBRANCH  27  28
ENDBRANCH   4  27
TORSDOF 9
ENDMDL
