MODEL 1
REMARK VINA RESULT:      -8.5      0.000      0.000
REMARK  2 active torsions:
REMARK  status: ('A' for Active; 'I' for Inactive)
REMARK    1  A    between atoms: N_3  and  C_4 
REMARK    2  A    between atoms: C_12  and  C_13 
REMARK       I    between atoms: C_13  and  N_14 
ROOT
HETATM    1  C   UNL     1      30.674  51.949  42.063  1.00  0.00     0.262 C 
HETATM    2  N   UNL     1      29.817  51.113  41.320  1.00  0.00    -0.311 N 
HETATM    3  C   UNL     1      30.136  49.817  40.829  1.00  0.00     0.064 A 
HETATM    4  C   UNL     1      29.613  49.306  39.625  1.00  0.00     0.061 A 
HETATM    5  C   UNL     1      29.995  48.010  39.219  1.00  0.00     0.032 A 
HETATM    6  C   UNL     1      30.846  47.221  39.989  1.00  0.00     0.002 A 
HETATM    7  C   UNL     1      31.329  47.707  41.192  1.00  0.00     0.002 A 
HETATM    8  C   UNL     1      30.972  48.990  41.610  1.00  0.00     0.032 A 
HETATM    9  N   UNL     1      28.754  49.958  38.717  1.00  0.00    -0.325 N 
HETATM   10  C   UNL     1      28.088  51.137  38.706  1.00  0.00     0.227 C 
HETATM   11  O   UNL     1      27.397  51.378  37.709  1.00  0.00    -0.273 OA
HETATM   12  C   UNL     1      28.189  52.165  39.801  1.00  0.00     0.092 C 
HETATM   13  C   UNL     1      29.189  53.251  39.414  1.00  0.00     0.021 C 
HETATM   14  C   UNL     1      28.433  51.536  41.157  1.00  0.00     0.146 C 
HETATM   15  O   UNL     1      30.226  52.829  42.799  1.00  0.00    -0.267 OA
HETATM   16  H   UNL     1      28.527  49.440  37.873  1.00  0.00     0.169 HD
ENDROOT
BRANCH   1  17
HETATM   17  C   UNL     1      32.124  51.849  41.867  1.00  0.00     0.075 C 
HETATM   18  C   UNL     1      33.071  51.592  42.859  1.00  0.00     0.050 C 
HETATM   19  C   UNL     1      32.834  51.224  44.282  1.00  0.00     0.071 C 
HETATM   20  N   UNL     1      34.321  51.689  42.253  1.00  0.00    -0.238 N 
HETATM   21  N   UNL     1      34.196  51.836  40.908  1.00  0.00    -0.179 NA
HETATM   22  C   UNL     1      32.896  52.029  40.706  1.00  0.00     0.158 C 
BRANCH  20  23
HETATM   23  C   UNL     1      35.631  51.664  42.815  1.00  0.00     0.061 A 
HETATM   24  C   UNL     1      36.528  50.675  42.392  1.00  0.00     0.051 A 
HETATM   25  C   UNL     1      37.799  50.654  42.940  1.00  0.00     0.118 A 
HETATM   26  N   UNL     1      38.236  51.549  43.850  1.00  0.00    -0.273 NA
HETATM   27  C   UNL     1      37.366  52.513  44.217  1.00  0.00     0.118 A 
HETATM   28  C   UNL     1      36.070  52.614  43.736  1.00  0.00     0.051 A 
ENDBRANCH  20  23
ENDBRANCH   1  17
TORSDOF 2
ENDMDL
MODEL 2
REMARK VINA RESULT:      -8.4     12.488     13.896
REMARK  2 active torsions:
REMARK  status: ('A' for Active; 'I' for Inactive)
REMARK    1  A    between atoms: N_3  and  C_4 
REMARK    2  A    between atoms: C_12  and  C_13 
REMARK       I    between atoms: C_13  and  N_14 
ROOT
HETATM    1  C   UNL     1      26.019  43.217  50.566  1.00  0.00     0.262 C 
HETATM    2  N   UNL     1      25.219  44.038  49.746  1.00  0.00    -0.311 N 
HETATM    3  C   UNL     1      25.225  45.461  49.731  1.00  0.00     0.064 A 
HETATM    4  C   UNL     1      24.074  46.227  49.462  1.00  0.00     0.061 A 
HETATM    5  C   UNL     1      24.181  47.633  49.477  1.00  0.00     0.032 A 
HETATM    6  C   UNL     1      25.394  48.275  49.719  1.00  0.00     0.002 A 
HETATM    7  C   UNL     1      26.533  47.522  49.944  1.00  0.00     0.002 A 
HETATM    8  C   UNL     1      26.450  46.129  49.943  1.00  0.00     0.032 A 
HETATM    9  N   UNL     1      22.770  45.757  49.208  1.00  0.00    -0.325 N 
HETATM   10  C   UNL     1      22.209  44.537  49.030  1.00  0.00     0.227 C 
HETATM   11  O   UNL     1      20.992  44.510  48.809  1.00  0.00    -0.273 OA
HETATM   12  C   UNL     1      22.969  43.242  49.138  1.00  0.00     0.092 C 
HETATM   13  C   UNL     1      22.768  42.626  50.520  1.00  0.00     0.021 C 
HETATM   14  C   UNL     1      24.416  43.391  48.717  1.00  0.00     0.146 C 
HETATM   15  O   UNL     1      26.276  42.056  50.247  1.00  0.00    -0.267 OA
HETATM   16  H   UNL     1      22.058  46.471  49.088  1.00  0.00     0.169 HD
ENDROOT
BRANCH   1  17
HETATM   17  C   UNL     1      26.453  43.714  51.876  1.00  0.00     0.075 C 
HETATM   18  C   UNL     1      27.772  43.821  52.318  1.00  0.00     0.050 C 
HETATM   19  C   UNL     1      29.022  43.602  51.539  1.00  0.00     0.071 C 
HETATM   20  N   UNL     1      27.716  44.234  53.646  1.00  0.00    -0.238 N 
HETATM   21  N   UNL     1      26.442  44.542  54.003  1.00  0.00    -0.179 NA
HETATM   22  C   UNL     1      25.694  44.135  52.982  1.00  0.00     0.158 C 
BRANCH  20  23
HETATM   23  C   UNL     1      28.746  44.365  54.623  1.00  0.00     0.061 A 
HETATM   24  C   UNL     1      28.773  45.512  55.427  1.00  0.00     0.051 A 
HETATM   25  C   UNL     1      29.774  45.635  56.374  1.00  0.00     0.118 A 
HETATM   26  N   UNL     1      30.723  44.699  56.585  1.00  0.00    -0.273 NA
HETATM   27  C   UNL     1      30.659  43.588  55.822  1.00  0.00     0.118 A 
HETATM   28  C   UNL     1      29.703  43.375  54.841  1.00  0.00     0.051 A 
ENDBRANCH  20  23
ENDBRANCH   1  17
TORSDOF 2
ENDMDL
MODEL 3
REMARK VINA RESULT:      -8.2      2.153      3.873
REMARK  2 active torsions:
REMARK  status: ('A' for Active; 'I' for Inactive)
REMARK    1  A    between atoms: N_3  and  C_4 
REMARK    2  A    between atoms: C_12  and  C_13 
REMARK       I    between atoms: C_13  and  N_14 
ROOT
HETATM    1  C   UNL     1      30.730  49.011  39.615  1.00  0.00     0.262 C 
HETATM    2  N   UNL     1      29.392  49.451  39.576  1.00  0.00    -0.311 N 
HETATM    3  C   UNL     1      28.890  50.648  40.158  1.00  0.00     0.064 A 
HETATM    4  C   UNL     1      27.587  50.755  40.682  1.00  0.00     0.061 A 
HETATM    5  C   UNL     1      27.185  51.984  41.245  1.00  0.00     0.032 A 
HETATM    6  C   UNL     1      28.029  53.093  41.268  1.00  0.00     0.002 A 
HETATM    7  C   UNL     1      29.296  52.999  40.717  1.00  0.00     0.002 A 
HETATM    8  C   UNL     1      29.719  51.791  40.162  1.00  0.00     0.032 A 
HETATM    9  N   UNL     1      26.606  49.746  40.755  1.00  0.00    -0.325 N 
HETATM   10  C   UNL     1      26.505  48.473  40.303  1.00  0.00     0.227 C 
HETATM   11  O   UNL     1      25.453  47.873  40.558  1.00  0.00    -0.273 OA
HETATM   12  C   UNL     1      27.605  47.756  39.568  1.00  0.00     0.092 C 
HETATM   13  C   UNL     1      28.388  46.866  40.529  1.00  0.00     0.021 C 
HETATM   14  C   UNL     1      28.456  48.702  38.747  1.00  0.00     0.146 C 
HETATM   15  O   UNL     1      31.170  48.232  38.767  1.00  0.00    -0.267 OA
HETATM   16  H   UNL     1      25.740  50.004  41.219  1.00  0.00     0.169 HD
ENDROOT
BRANCH   1  17
HETATM   17  C   UNL     1      31.579  49.390  40.748  1.00  0.00     0.075 C 
HETATM   18  C   UNL     1      32.689  50.233  40.698  1.00  0.00     0.050 C 
HETATM   19  C   UNL     1      33.176  51.042  39.546  1.00  0.00     0.071 C 
HETATM   20  N   UNL     1      33.253  50.231  41.971  1.00  0.00    -0.238 N 
HETATM   21  N   UNL     1      32.462  49.558  42.847  1.00  0.00    -0.179 NA
HETATM   22  C   UNL     1      31.530  48.983  42.094  1.00  0.00     0.158 C 
BRANCH  20  23
HETATM   23  C   UNL     1      34.470  50.796  42.450  1.00  0.00     0.061 A 
HETATM   24  C   UNL     1      34.411  51.796  43.429  1.00  0.00     0.051 A 
HETATM   25  C   UNL     1      35.596  52.341  43.892  1.00  0.00     0.118 A 
HETATM   26  N   UNL     1      36.816  51.950  43.467  1.00  0.00    -0.273 NA
HETATM   27  C   UNL     1      36.849  50.963  42.549  1.00  0.00     0.118 A 
HETATM   28  C   UNL     1      35.721  50.359  42.015  1.00  0.00     0.051 A 
ENDBRANCH  20  23
ENDBRANCH   1  17
TORSDOF 2
ENDMDL
MODEL 4
REMARK VINA RESULT:      -8.1      1.700      2.492
REMARK  2 active torsions:
REMARK  status: ('A' for Active; 'I' for Inactive)
REMARK    1  A    between atoms: N_3  and  C_4 
REMARK    2  A    between atoms: C_12  and  C_13 
REMARK       I    between atoms: C_13  and  N_14 
ROOT
HETATM    1  C   UNL     1      30.821  51.858  42.202  1.00  0.00     0.262 C 
HETATM    2  N   UNL     1      29.999  51.029  41.414  1.00  0.00    -0.311 N 
HETATM    3  C   UNL     1      30.378  49.785  40.836  1.00  0.00     0.064 A 
HETATM    4  C   UNL     1      29.867  49.327  39.606  1.00  0.00     0.061 A 
HETATM    5  C   UNL     1      30.310  48.082  39.113  1.00  0.00     0.032 A 
HETATM    6  C   UNL     1      31.210  47.290  39.822  1.00  0.00     0.002 A 
HETATM    7  C   UNL     1      31.683  47.722  41.050  1.00  0.00     0.002 A 
HETATM    8  C   UNL     1      31.265  48.954  41.554  1.00  0.00     0.032 A 
HETATM    9  N   UNL     1      28.964  49.990  38.751  1.00  0.00    -0.325 N 
HETATM   10  C   UNL     1      28.238  51.131  38.824  1.00  0.00     0.227 C 
HETATM   11  O   UNL     1      27.522  51.400  37.851  1.00  0.00    -0.273 OA
HETATM   12  C   UNL     1      28.300  52.091  39.982  1.00  0.00     0.092 C 
HETATM   13  C   UNL     1      29.237  53.250  39.658  1.00  0.00     0.021 C 
HETATM   14  C   UNL     1      28.593  51.389  41.292  1.00  0.00     0.146 C 
HETATM   15  O   UNL     1      30.338  52.665  42.998  1.00  0.00    -0.267 OA
HETATM   16  H   UNL     1      28.753  49.517  37.878  1.00  0.00     0.169 HD
ENDROOT
BRANCH   1  17
HETATM   17  C   UNL     1      32.272  51.847  41.987  1.00  0.00     0.075 C 
HETATM   18  C   UNL     1      32.925  52.067  40.774  1.00  0.00     0.050 C 
HETATM   19  C   UNL     1      32.332  52.497  39.477  1.00  0.00     0.071 C 
HETATM   20  N   UNL     1      34.282  51.859  41.005  1.00  0.00    -0.238 N 
HETATM   21  N   UNL     1      34.523  51.678  42.330  1.00  0.00    -0.179 NA
HETATM   22  C   UNL     1      33.319  51.573  42.885  1.00  0.00     0.158 C 
BRANCH  20  23
HETATM   23  C   UNL     1      35.382  51.808  40.101  1.00  0.00     0.061 A 
HETATM   24  C   UNL     1      35.893  53.009  39.590  1.00  0.00     0.051 A 
HETATM   25  C   UNL     1      36.962  52.954  38.713  1.00  0.00     0.118 A 
HETATM   26  N   UNL     1      37.560  51.806  38.332  1.00  0.00    -0.273 NA
HETATM   27  C   UNL     1      37.073  50.665  38.862  1.00  0.00     0.118 A 
HETATM   28  C   UNL     1      36.000  50.612  39.740  1.00  0.00     0.051 A 
ENDBRANCH  20  23
ENDBRANCH   1  17
TORSDOF 2
ENDMDL
MODEL 5
REMARK VINA RESULT:      -8.0     23.941     26.115
REMARK  2 active torsions:
REMARK  status: ('A' for Active; 'I' for Inactive)
REMARK    1  A    between atoms: N_3  and  C_4 
REMARK    2  A    between atoms: C_12  and  C_13 
REMARK       I    between atoms: C_13  and  N_14 
ROOT
HETATM    1  C   UNL     1      37.603  45.708  64.223  1.00  0.00     0.262 C 
HETATM    2  N   UNL     1      38.075  46.930  64.743  1.00  0.00    -0.311 N 
HETATM    3  C   UNL     1      39.393  47.183  65.213  1.00  0.00     0.064 A 
HETATM    4  C   UNL     1      39.670  48.077  66.266  1.00  0.00     0.061 A 
HETATM    5  C   UNL     1      41.011  48.255  66.665  1.00  0.00     0.032 A 
HETATM    6  C   UNL     1      42.061  47.595  66.027  1.00  0.00     0.002 A 
HETATM    7  C   UNL     1      41.792  46.747  64.967  1.00  0.00     0.002 A 
HETATM    8  C   UNL     1      40.472  46.548  64.560  1.00  0.00     0.032 A 
HETATM    9  N   UNL     1      38.745  48.818  67.028  1.00  0.00    -0.325 N 
HETATM   10  C   UNL     1      37.408  49.023  66.978  1.00  0.00     0.227 C 
HETATM   11  O   UNL     1      36.925  49.770  67.837  1.00  0.00    -0.273 OA
HETATM   12  C   UNL     1      36.496  48.359  65.981  1.00  0.00     0.092 C 
HETATM   13  C   UNL     1      35.823  47.142  66.610  1.00  0.00     0.021 C 
HETATM   14  C   UNL     1      37.191  48.086  64.663  1.00  0.00     0.146 C 
HETATM   15  O   UNL     1      36.632  45.669  63.466  1.00  0.00    -0.267 OA
HETATM   16  H   UNL     1      39.138  49.372  67.784  1.00  0.00     0.169 HD
ENDROOT
BRANCH   1  17
HETATM   17  C   UNL     1      38.201  44.451  64.685  1.00  0.00     0.075 C 
HETATM   18  C   UNL     1      38.879  43.524  63.893  1.00  0.00     0.050 C 
HETATM   19  C   UNL     1      39.273  43.652  62.462  1.00  0.00     0.071 C 
HETATM   20  N   UNL     1      39.182  42.441  64.714  1.00  0.00    -0.238 N 
HETATM   21  N   UNL     1      38.870  42.715  66.008  1.00  0.00    -0.179 NA
HETATM   22  C   UNL     1      38.201  43.863  65.962  1.00  0.00     0.158 C 
BRANCH  20  23
HETATM   23  C   UNL     1      39.734  41.164  64.403  1.00  0.00     0.061 A 
HETATM   24  C   UNL     1      40.737  40.643  65.230  1.00  0.00     0.051 A 
HETATM   25  C   UNL     1      41.270  39.403  64.925  1.00  0.00     0.118 A 
HETATM   26  N   UNL     1      40.864  38.650  63.881  1.00  0.00    -0.273 NA
HETATM   27  C   UNL     1      39.874  39.158  63.118  1.00  0.00     0.118 A 
HETATM   28  C   UNL     1      39.282  40.393  63.333  1.00  0.00     0.051 A 
ENDBRANCH  20  23
ENDBRANCH   1  17
TORSDOF 2
ENDMDL
MODEL 6
REMARK VINA RESULT:      -8.0     12.191     14.491
REMARK  2 active torsions:
REMARK  status: ('A' for Active; 'I' for Inactive)
REMARK    1  A    between atoms: N_3  and  C_4 
REMARK    2  A    between atoms: C_12  and  C_13 
REMARK       I    between atoms: C_13  and  N_14 
ROOT
HETATM    1  C   UNL     1      18.189  49.935  48.972  1.00  0.00     0.262 C 
HETATM    2  N   UNL     1      17.245  50.483  48.081  1.00  0.00    -0.311 N 
HETATM    3  C   UNL     1      17.486  50.836  46.724  1.00  0.00     0.064 A 
HETATM    4  C   UNL     1      16.837  51.912  46.087  1.00  0.00     0.061 A 
HETATM    5  C   UNL     1      17.148  52.186  44.739  1.00  0.00     0.032 A 
HETATM    6  C   UNL     1      18.054  51.407  44.022  1.00  0.00     0.002 A 
HETATM    7  C   UNL     1      18.662  50.325  44.636  1.00  0.00     0.002 A 
HETATM    8  C   UNL     1      18.376  50.040  45.971  1.00  0.00     0.032 A 
HETATM    9  N   UNL     1      15.907  52.808  46.651  1.00  0.00    -0.325 N 
HETATM   10  C   UNL     1      15.269  52.904  47.842  1.00  0.00     0.227 C 
HETATM   11  O   UNL     1      14.489  53.854  47.982  1.00  0.00    -0.273 OA
HETATM   12  C   UNL     1      15.499  51.961  48.993  1.00  0.00     0.092 C 
HETATM   13  C   UNL     1      16.480  52.574  49.989  1.00  0.00     0.021 C 
HETATM   14  C   UNL     1      15.861  50.567  48.527  1.00  0.00     0.146 C 
HETATM   15  O   UNL     1      17.834  49.277  49.951  1.00  0.00    -0.267 OA
HETATM   16  H   UNL     1      15.587  53.555  46.042  1.00  0.00     0.169 HD
ENDROOT
BRANCH   1  17
HETATM   17  C   UNL     1      19.610  50.253  48.799  1.00  0.00     0.075 C 
HETATM   18  C   UNL     1      20.653  49.331  48.705  1.00  0.00     0.050 C 
HETATM   19  C   UNL     1      20.561  47.847  48.612  1.00  0.00     0.071 C 
HETATM   20  N   UNL     1      21.834  50.066  48.657  1.00  0.00    -0.238 N 
HETATM   21  N   UNL     1      21.572  51.395  48.556  1.00  0.00    -0.179 NA
HETATM   22  C   UNL     1      20.259  51.499  48.742  1.00  0.00     0.158 C 
BRANCH  20  23
HETATM   23  C   UNL     1      23.195  49.643  48.701  1.00  0.00     0.061 A 
HETATM   24  C   UNL     1      24.150  50.365  47.975  1.00  0.00     0.051 A 
HETATM   25  C   UNL     1      25.470  49.952  48.021  1.00  0.00     0.118 A 
HETATM   26  N   UNL     1      25.899  48.898  48.746  1.00  0.00    -0.273 NA
HETATM   27  C   UNL     1      24.967  48.237  49.464  1.00  0.00     0.118 A 
HETATM   28  C   UNL     1      23.619  48.565  49.476  1.00  0.00     0.051 A 
ENDBRANCH  20  23
ENDBRANCH   1  17
TORSDOF 2
ENDMDL
MODEL 7
REMARK VINA RESULT:      -7.9      2.777      8.052
REMARK  2 active torsions:
REMARK  status: ('A' for Active; 'I' for Inactive)
REMARK    1  A    between atoms: N_3  and  C_4 
REMARK    2  A    between atoms: C_12  and  C_13 
REMARK       I    between atoms: C_13  and  N_14 
ROOT
HETATM    1  C   UNL     1      30.183  49.017  41.707  1.00  0.00     0.262 C 
HETATM    2  N   UNL     1      30.788  50.267  41.943  1.00  0.00    -0.311 N 
HETATM    3  C   UNL     1      30.424  51.499  41.331  1.00  0.00     0.064 A 
HETATM    4  C   UNL     1      31.356  52.517  41.049  1.00  0.00     0.061 A 
HETATM    5  C   UNL     1      30.898  53.700  40.433  1.00  0.00     0.032 A 
HETATM    6  C   UNL     1      29.552  53.895  40.128  1.00  0.00     0.002 A 
HETATM    7  C   UNL     1      28.630  52.911  40.441  1.00  0.00     0.002 A 
HETATM    8  C   UNL     1      29.062  51.729  41.042  1.00  0.00     0.032 A 
HETATM    9  N   UNL     1      32.747  52.494  41.275  1.00  0.00    -0.325 N 
HETATM   10  C   UNL     1      33.605  51.639  41.880  1.00  0.00     0.227 C 
HETATM   11  O   UNL     1      34.799  51.964  41.895  1.00  0.00    -0.273 OA
HETATM   12  C   UNL     1      33.192  50.319  42.476  1.00  0.00     0.092 C 
HETATM   13  C   UNL     1      33.477  49.186  41.495  1.00  0.00     0.021 C 
HETATM   14  C   UNL     1      31.776  50.351  43.011  1.00  0.00     0.146 C 
HETATM   15  O   UNL     1      30.242  48.113  42.542  1.00  0.00    -0.267 OA
HETATM   16  H   UNL     1      33.261  53.308  40.954  1.00  0.00     0.169 HD
ENDROOT
BRANCH   1  17
HETATM   17  C   UNL     1      29.577  48.747  40.400  1.00  0.00     0.075 C 
HETATM   18  C   UNL     1      28.222  48.525  40.153  1.00  0.00     0.050 C 
HETATM   19  C   UNL     1      27.082  48.650  41.103  1.00  0.00     0.071 C 
HETATM   20  N   UNL     1      28.108  48.207  38.802  1.00  0.00    -0.238 N 
HETATM   21  N   UNL     1      29.296  48.375  38.165  1.00  0.00    -0.179 NA
HETATM   22  C   UNL     1      30.176  48.596  39.137  1.00  0.00     0.158 C 
BRANCH  20  23
HETATM   23  C   UNL     1      26.989  47.753  38.045  1.00  0.00     0.061 A 
HETATM   24  C   UNL     1      26.263  48.682  37.289  1.00  0.00     0.051 A 
HETATM   25  C   UNL     1      25.178  48.237  36.555  1.00  0.00     0.118 A 
HETATM   26  N   UNL     1      24.785  46.947  36.507  1.00  0.00    -0.273 NA
HETATM   27  C   UNL     1      25.519  46.064  37.217  1.00  0.00     0.118 A 
HETATM   28  C   UNL     1      26.616  46.411  37.991  1.00  0.00     0.051 A 
ENDBRANCH  20  23
ENDBRANCH   1  17
TORSDOF 2
ENDMDL
MODEL 8
REMARK VINA RESULT:      -7.7     23.981     26.428
REMARK  2 active torsions:
REMARK  status: ('A' for Active; 'I' for Inactive)
REMARK    1  A    between atoms: N_3  and  C_4 
REMARK    2  A    between atoms: C_12  and  C_13 
REMARK       I    between atoms: C_13  and  N_14 
ROOT
HETATM    1  C   UNL     1      38.189  42.989  63.710  1.00  0.00     0.262 C 
HETATM    2  N   UNL     1      38.449  44.369  63.821  1.00  0.00    -0.311 N 
HETATM    3  C   UNL     1      39.719  44.962  64.066  1.00  0.00     0.064 A 
HETATM    4  C   UNL     1      39.876  46.156  64.796  1.00  0.00     0.061 A 
HETATM    5  C   UNL     1      41.179  46.661  64.991  1.00  0.00     0.032 A 
HETATM    6  C   UNL     1      42.299  46.028  64.458  1.00  0.00     0.002 A 
HETATM    7  C   UNL     1      42.141  44.876  63.706  1.00  0.00     0.002 A 
HETATM    8  C   UNL     1      40.863  44.353  63.507  1.00  0.00     0.032 A 
HETATM    9  N   UNL     1      38.869  46.924  65.415  1.00  0.00    -0.325 N 
HETATM   10  C   UNL     1      37.515  46.881  65.446  1.00  0.00     0.227 C 
HETATM   11  O   UNL     1      36.945  47.755  66.110  1.00  0.00    -0.273 OA
HETATM   12  C   UNL     1      36.695  45.815  64.770  1.00  0.00     0.092 C 
HETATM   13  C   UNL     1      36.295  44.739  65.777  1.00  0.00     0.021 C 
HETATM   14  C   UNL     1      37.361  45.290  63.516  1.00  0.00     0.146 C 
HETATM   15  O   UNL     1      37.206  42.572  63.096  1.00  0.00    -0.267 OA
HETATM   16  H   UNL     1      39.188  47.729  65.943  1.00  0.00     0.169 HD
ENDROOT
BRANCH   1  17
HETATM   17  C   UNL     1      39.035  42.037  64.438  1.00  0.00     0.075 C 
HETATM   18  C   UNL     1      39.508  40.819  63.950  1.00  0.00     0.050 C 
HETATM   19  C   UNL     1      39.394  40.276  62.568  1.00  0.00     0.071 C 
HETATM   20  N   UNL     1      40.177  40.199  65.002  1.00  0.00    -0.238 N 
HETATM   21  N   UNL     1      40.281  41.036  66.068  1.00  0.00    -0.179 NA
HETATM   22  C   UNL     1      39.517  42.079  65.758  1.00  0.00     0.158 C 
BRANCH  20  23
HETATM   23  C   UNL     1      40.728  38.888  65.111  1.00  0.00     0.061 A 
HETATM   24  C   UNL     1      41.979  38.632  64.536  1.00  0.00     0.051 A 
HETATM   25  C   UNL     1      42.510  37.359  64.645  1.00  0.00     0.118 A 
HETATM   26  N   UNL     1      41.899  36.346  65.293  1.00  0.00    -0.273 NA
HETATM   27  C   UNL     1      40.710  36.624  65.867  1.00  0.00     0.118 A 
HETATM   28  C   UNL     1      40.089  37.863  65.807  1.00  0.00     0.051 A 
ENDBRANCH  20  23
ENDBRANCH   1  17
TORSDOF 2
ENDMDL
MODEL 9
REMARK VINA RESULT:      -7.7      3.252      7.548
REMARK  2 active torsions:
REMARK  status: ('A' for Active; 'I' for Inactive)
REMARK    1  A    between atoms: N_3  and  C_4 
REMARK    2  A    between atoms: C_12  and  C_13 
REMARK       I    between atoms: C_13  and  N_14 
ROOT
HETATM    1  C   UNL     1      28.826  50.461  38.700  1.00  0.00     0.262 C 
HETATM    2  N   UNL     1      29.905  50.721  39.568  1.00  0.00    -0.311 N 
HETATM    3  C   UNL     1      30.667  49.744  40.267  1.00  0.00     0.064 A 
HETATM    4  C   UNL     1      31.229  49.979  41.537  1.00  0.00     0.061 A 
HETATM    5  C   UNL     1      31.963  48.944  42.152  1.00  0.00     0.032 A 
HETATM    6  C   UNL     1      32.168  47.716  41.525  1.00  0.00     0.002 A 
HETATM    7  C   UNL     1      31.649  47.499  40.260  1.00  0.00     0.002 A 
HETATM    8  C   UNL     1      30.912  48.505  39.636  1.00  0.00     0.032 A 
HETATM    9  N   UNL     1      31.120  51.144  42.322  1.00  0.00    -0.325 N 
HETATM   10  C   UNL     1      30.595  52.379  42.136  1.00  0.00     0.227 C 
HETATM   11  O   UNL     1      30.695  53.175  43.078  1.00  0.00    -0.273 OA
HETATM   12  C   UNL     1      29.867  52.800  40.888  1.00  0.00     0.092 C 
HETATM   13  C   UNL     1      28.359  52.691  41.094  1.00  0.00     0.021 C 
HETATM   14  C   UNL     1      30.389  52.092  39.655  1.00  0.00     0.146 C 
HETATM   15  O   UNL     1      28.500  51.268  37.828  1.00  0.00    -0.267 OA
HETATM   16  H   UNL     1      31.555  51.103  43.239  1.00  0.00     0.169 HD
ENDROOT
BRANCH   1  17
HETATM   17  C   UNL     1      28.002  49.267  38.914  1.00  0.00     0.075 C 
HETATM   18  C   UNL     1      27.366  48.909  40.104  1.00  0.00     0.050 C 
HETATM   19  C   UNL     1      27.255  49.702  41.359  1.00  0.00     0.071 C 
HETATM   20  N   UNL     1      26.788  47.661  39.889  1.00  0.00    -0.238 N 
HETATM   21  N   UNL     1      26.895  47.298  38.584  1.00  0.00    -0.179 NA
HETATM   22  C   UNL     1      27.700  48.206  38.042  1.00  0.00     0.158 C 
BRANCH  20  23
HETATM   23  C   UNL     1      26.145  46.766  40.794  1.00  0.00     0.061 A 
HETATM   24  C   UNL     1      24.762  46.876  40.982  1.00  0.00     0.051 A 
HETATM   25  C   UNL     1      24.142  46.005  41.861  1.00  0.00     0.118 A 
HETATM   26  N   UNL     1      24.792  45.035  42.537  1.00  0.00    -0.273 NA
HETATM   27  C   UNL     1      26.118  44.927  42.315  1.00  0.00     0.118 A 
HETATM   28  C   UNL     1      26.834  45.756  41.464  1.00  0.00     0.051 A 
ENDBRANCH  20  23
ENDBRANCH   1  17
TORSDOF 2
ENDMDL
MODEL 10
REMARK VINA RESULT:      -7.6     11.260     13.279
REMARK  2 active torsions:
REMARK  status: ('A' for Active; 'I' for Inactive)
REMARK    1  A    between atoms: N_3  and  C_4 
REMARK    2  A    between atoms: C_12  and  C_13 
REMARK       I    between atoms: C_13  and  N_14 
ROOT
HETATM    1  C   UNL     1      19.186  49.232  49.282  1.00  0.00     0.262 C 
HETATM    2  N   UNL     1      18.437  49.488  48.117  1.00  0.00    -0.311 N 
HETATM    3  C   UNL     1      18.576  48.816  46.871  1.00  0.00     0.064 A 
HETATM    4  C   UNL     1      18.358  49.450  45.631  1.00  0.00     0.061 A 
HETATM    5  C   UNL     1      18.528  48.699  44.450  1.00  0.00     0.032 A 
HETATM    6  C   UNL     1      18.876  47.350  44.481  1.00  0.00     0.002 A 
HETATM    7  C   UNL     1      19.052  46.717  45.699  1.00  0.00     0.002 A 
HETATM    8  C   UNL     1      18.898  47.441  46.881  1.00  0.00     0.032 A 
HETATM    9  N   UNL     1      18.014  50.798  45.406  1.00  0.00    -0.325 N 
HETATM   10  C   UNL     1      17.688  51.849  46.196  1.00  0.00     0.227 C 
HETATM   11  O   UNL     1      17.428  52.916  45.626  1.00  0.00    -0.273 OA
HETATM   12  C   UNL     1      17.677  51.794  47.700  1.00  0.00     0.092 C 
HETATM   13  C   UNL     1      18.977  52.367  48.258  1.00  0.00     0.021 C 
HETATM   14  C   UNL     1      17.319  50.417  48.220  1.00  0.00     0.146 C 
HETATM   15  O   UNL     1      18.751  49.523  50.397  1.00  0.00    -0.267 OA
HETATM   16  H   UNL     1      17.951  51.082  44.433  1.00  0.00     0.169 HD
ENDROOT
BRANCH   1  17
HETATM   17  C   UNL     1      20.555  48.720  49.159  1.00  0.00     0.075 C 
HETATM   18  C   UNL     1      21.727  49.456  49.333  1.00  0.00     0.050 C 
HETATM   19  C   UNL     1      21.867  50.859  49.814  1.00  0.00     0.071 C 
HETATM   20  N   UNL     1      22.784  48.607  49.020  1.00  0.00    -0.238 N 
HETATM   21  N   UNL     1      22.340  47.339  48.815  1.00  0.00    -0.179 NA
HETATM   22  C   UNL     1      21.014  47.440  48.801  1.00  0.00     0.158 C 
BRANCH  20  23
HETATM   23  C   UNL     1      24.179  48.868  48.888  1.00  0.00     0.061 A 
HETATM   24  C   UNL     1      25.085  48.082  49.612  1.00  0.00     0.051 A 
HETATM   25  C   UNL     1      26.438  48.339  49.479  1.00  0.00     0.118 A 
HETATM   26  N   UNL     1      26.943  49.296  48.673  1.00  0.00    -0.273 NA
HETATM   27  C   UNL     1      26.054  50.018  47.961  1.00  0.00     0.118 A 
HETATM   28  C   UNL     1      24.680  49.846  48.030  1.00  0.00     0.051 A 
ENDBRANCH  20  23
ENDBRANCH   1  17
TORSDOF 2
ENDMDL
