MODEL 1
REMARK VINA RESULT:      -9.2      0.000      0.000
REMARK  13 active torsions:
REMARK  status: ('A' for Active; 'I' for Inactive)
REMARK    1  A    between atoms: C_2  and  O_3 
REMARK    2  A    between atoms: O_3  and  C_4 
REMARK    3  A    between atoms: C_5  and  O_6 
REMARK    4  A    between atoms: C_9  and  C_10 
REMARK    5  A    between atoms: N_11  and  C_12 
REMARK    6  A    between atoms: C_12  and  C_13 
REMARK    7  A    between atoms: C_13  and  N_14 
REMARK    8  A    between atoms: C_20  and  O_21 
REMARK    9  A    between atoms: C_22  and  C_23 
REMARK   10  A    between atoms: C_23  and  C_24 
REMARK   11  A    between atoms: C_28  and  O_29 
REMARK   12  A    between atoms: O_29  and  C_30 
REMARK   13  A    between atoms: C_30  and  C_31 
ROOT
HETATM    1  C   UNL     1      24.848  43.900  48.893  1.00  0.00     0.161 A 
HETATM    2  N   UNL     1      23.439  43.531  48.802  1.00  0.00    -0.332 N 
HETATM    3  C   UNL     1      23.284  42.159  48.918  1.00  0.00     0.278 A 
HETATM    4  O   UNL     1      22.243  41.530  48.860  1.00  0.00    -0.265 OA
HETATM    5  C   UNL     1      24.624  41.560  49.077  1.00  0.00     0.146 A 
HETATM    6  C   UNL     1      25.511  42.561  49.011  1.00  0.00     0.059 A 
ENDROOT
BRANCH   6   7
HETATM    7  C   UNL     1      26.981  42.384  49.088  1.00  0.00     0.194 C 
HETATM    8  O   UNL     1      27.656  42.115  48.104  1.00  0.00    -0.287 OA
BRANCH   7   9
HETATM    9  C   UNL     1      27.606  42.458  50.437  1.00  0.00     0.021 A 
HETATM   10  C   UNL     1      27.853  41.291  51.182  1.00  0.00    -0.045 A 
HETATM   11  C   UNL     1      27.647  39.914  50.619  1.00  0.00     0.049 C 
HETATM   12  C   UNL     1      28.328  41.428  52.497  1.00  0.00     0.044 A 
HETATM   13  C   UNL     1      28.536  42.686  53.064  1.00  0.00     0.069 A 
HETATM   14  C   UNL     1      28.369  43.833  52.290  1.00  0.00     0.038 A 
HETATM   15  C   UNL     1      27.915  43.718  50.975  1.00  0.00     0.019 A 
BRANCH  13  16
HETATM   16  O   UNL     1      28.950  42.690  54.365  1.00  0.00    -0.347 OA
BRANCH  16  17
HETATM   17  C   UNL     1      30.328  43.017  54.552  1.00  0.00     0.214 C 
BRANCH  17  18
HETATM   18  C   UNL     1      30.438  43.916  55.759  1.00  0.00    -0.034 A 
HETATM   19  C   UNL     1      31.317  43.591  56.802  1.00  0.00     0.009 A 
HETATM   20  C   UNL     1      31.409  44.408  57.930  1.00  0.00     0.001 A 
HETATM   21  C   UNL     1      30.622  45.553  58.029  1.00  0.00     0.000 A 
HETATM   22  C   UNL     1      29.738  45.882  57.003  1.00  0.00     0.001 A 
HETATM   23  C   UNL     1      29.647  45.067  55.872  1.00  0.00     0.009 A 
ENDBRANCH  17  18
ENDBRANCH  16  17
ENDBRANCH  13  16
ENDBRANCH   7   9
ENDBRANCH   6   7
BRANCH   1  24
HETATM   24  C   UNL     1      25.082  44.819  50.076  1.00  0.00    -0.028 A 
HETATM   25  C   UNL     1      24.694  44.470  51.381  1.00  0.00     0.012 A 
HETATM   26  C   UNL     1      24.898  45.351  52.446  1.00  0.00     0.040 A 
HETATM   27  C   UNL     1      25.502  46.589  52.223  1.00  0.00     0.099 A 
HETATM   28  C   UNL     1      25.933  46.943  50.942  1.00  0.00     0.102 A 
HETATM   29  C   UNL     1      25.705  46.061  49.877  1.00  0.00     0.049 A 
BRANCH  27  30
HETATM   30  O   UNL     1      25.626  47.454  53.272  1.00  0.00    -0.358 OA
HETATM   31  H   UNL     1      26.476  47.924  53.212  1.00  0.00     0.218 HD
ENDBRANCH  27  30
BRANCH  28  32
HETATM   32  O   UNL     1      26.547  48.106  50.566  1.00  0.00    -0.349 OA
BRANCH  32  33
HETATM   33  C   UNL     1      27.139  48.122  49.262  1.00  0.00     0.171 C 
HETATM   34  C   UNL     1      27.348  49.571  48.859  1.00  0.00     0.034 C 
ENDBRANCH  32  33
ENDBRANCH  28  32
ENDBRANCH   1  24
BRANCH   5  35
HETATM   35  O   UNL     1      24.839  40.222  49.176  1.00  0.00    -0.355 OA
HETATM   36  H   UNL     1      24.051  39.828  49.598  1.00  0.00     0.218 HD
ENDBRANCH   5  35
BRANCH   2  37
HETATM   37  C   UNL     1      22.472  44.323  48.042  1.00  0.00     0.155 C 
BRANCH  37  38
HETATM   38  C   UNL     1      21.259  44.799  48.852  1.00  0.00     0.254 C 
BRANCH  38  39
HETATM   39  N   UNL     1      21.128  46.308  48.831  1.00  0.00    -0.077 N 
HETATM   40  H   UNL     1      20.967  46.594  49.807  1.00  0.00     0.279 HD
HETATM   41  C   UNL     1      22.408  46.962  48.387  1.00  0.00     0.269 C 
HETATM   42  C   UNL     1      19.950  46.801  48.035  1.00  0.00     0.269 C 
ENDBRANCH  38  39
ENDBRANCH  37  38
ENDBRANCH   2  37
TORSDOF 13
ENDMDL
MODEL 2
REMARK VINA RESULT:      -9.0      2.841      9.192
REMARK  13 active torsions:
REMARK  status: ('A' for Active; 'I' for Inactive)
REMARK    1  A    between atoms: C_2  and  O_3 
REMARK    2  A    between atoms: O_3  and  C_4 
REMARK    3  A    between atoms: C_5  and  O_6 
REMARK    4  A    between atoms: C_9  and  C_10 
REMARK    5  A    between atoms: N_11  and  C_12 
REMARK    6  A    between atoms: C_12  and  C_13 
REMARK    7  A    between atoms: C_13  and  N_14 
REMARK    8  A    between atoms: C_20  and  O_21 
REMARK    9  A    between atoms: C_22  and  C_23 
REMARK   10  A    between atoms: C_23  and  C_24 
REMARK   11  A    between atoms: C_28  and  O_29 
REMARK   12  A    between atoms: O_29  and  C_30 
REMARK   13  A    between atoms: C_30  and  C_31 
ROOT
HETATM    1  C   UNL     1      26.305  44.286  51.521  1.00  0.00     0.161 A 
HETATM    2  N   UNL     1      26.004  44.236  52.948  1.00  0.00    -0.332 N 
HETATM    3  C   UNL     1      25.747  45.506  53.439  1.00  0.00     0.278 A 
HETATM    4  O   UNL     1      25.488  45.811  54.589  1.00  0.00    -0.265 OA
HETATM    5  C   UNL     1      25.892  46.464  52.324  1.00  0.00     0.146 A 
HETATM    6  C   UNL     1      26.260  45.758  51.247  1.00  0.00     0.059 A 
ENDROOT
BRANCH   6   7
HETATM    7  C   UNL     1      26.549  46.349  49.918  1.00  0.00     0.194 C 
HETATM    8  O   UNL     1      27.523  46.017  49.257  1.00  0.00    -0.287 OA
BRANCH   7   9
HETATM    9  C   UNL     1      25.651  47.440  49.449  1.00  0.00     0.021 A 
HETATM   10  C   UNL     1      26.165  48.707  49.124  1.00  0.00    -0.045 A 
HETATM   11  C   UNL     1      27.639  48.997  49.085  1.00  0.00     0.049 C 
HETATM   12  C   UNL     1      25.260  49.733  48.806  1.00  0.00     0.044 A 
HETATM   13  C   UNL     1      23.881  49.513  48.827  1.00  0.00     0.069 A 
HETATM   14  C   UNL     1      23.386  48.233  49.067  1.00  0.00     0.038 A 
HETATM   15  C   UNL     1      24.270  47.196  49.367  1.00  0.00     0.019 A 
BRANCH  13  16
HETATM   16  O   UNL     1      23.103  50.599  48.551  1.00  0.00    -0.347 OA
BRANCH  16  17
HETATM   17  C   UNL     1      21.975  50.762  49.413  1.00  0.00     0.214 C 
BRANCH  17  18
HETATM   18  C   UNL     1      20.755  50.986  48.556  1.00  0.00    -0.034 A 
HETATM   19  C   UNL     1      19.834  51.990  48.889  1.00  0.00     0.009 A 
HETATM   20  C   UNL     1      18.693  52.190  48.111  1.00  0.00     0.001 A 
HETATM   21  C   UNL     1      18.458  51.386  46.997  1.00  0.00     0.000 A 
HETATM   22  C   UNL     1      19.362  50.380  46.661  1.00  0.00     0.001 A 
HETATM   23  C   UNL     1      20.506  50.181  47.436  1.00  0.00     0.009 A 
ENDBRANCH  17  18
ENDBRANCH  16  17
ENDBRANCH  13  16
ENDBRANCH   7   9
ENDBRANCH   6   7
BRANCH   1  24
HETATM   24  C   UNL     1      25.296  43.473  50.735  1.00  0.00    -0.028 A 
HETATM   25  C   UNL     1      25.620  42.230  50.164  1.00  0.00     0.012 A 
HETATM   26  C   UNL     1      24.676  41.518  49.421  1.00  0.00     0.040 A 
HETATM   27  C   UNL     1      23.391  42.033  49.246  1.00  0.00     0.099 A 
HETATM   28  C   UNL     1      23.031  43.247  49.837  1.00  0.00     0.102 A 
HETATM   29  C   UNL     1      23.992  43.963  50.563  1.00  0.00     0.049 A 
BRANCH  27  30
HETATM   30  O   UNL     1      22.513  41.346  48.459  1.00  0.00    -0.358 OA
HETATM   31  H   UNL     1      21.866  41.961  48.072  1.00  0.00     0.218 HD
ENDBRANCH  27  30
BRANCH  28  32
HETATM   32  O   UNL     1      21.818  43.875  49.769  1.00  0.00    -0.349 OA
BRANCH  32  33
HETATM   33  C   UNL     1      21.628  44.780  48.676  1.00  0.00     0.171 C 
HETATM   34  C   UNL     1      20.188  45.260  48.708  1.00  0.00     0.034 C 
ENDBRANCH  32  33
ENDBRANCH  28  32
ENDBRANCH   1  24
BRANCH   5  35
HETATM   35  O   UNL     1      25.750  47.808  52.469  1.00  0.00    -0.355 OA
HETATM   36  H   UNL     1      24.841  47.975  52.783  1.00  0.00     0.218 HD
ENDBRANCH   5  35
BRANCH   2  37
HETATM   37  C   UNL     1      26.549  43.200  53.826  1.00  0.00     0.155 C 
BRANCH  37  38
HETATM   38  C   UNL     1      28.001  43.433  54.263  1.00  0.00     0.254 C 
BRANCH  38  39
HETATM   39  N   UNL     1      28.903  42.291  53.840  1.00  0.00    -0.077 N 
HETATM   40  H   UNL     1      29.174  41.806  54.707  1.00  0.00     0.279 HD
HETATM   41  C   UNL     1      28.163  41.296  52.990  1.00  0.00     0.269 C 
HETATM   42  C   UNL     1      30.178  42.743  53.180  1.00  0.00     0.269 C 
ENDBRANCH  38  39
ENDBRANCH  37  38
ENDBRANCH   2  37
TORSDOF 13
ENDMDL
MODEL 3
REMARK VINA RESULT:      -8.7      2.858      9.314
REMARK  13 active torsions:
REMARK  status: ('A' for Active; 'I' for Inactive)
REMARK    1  A    between atoms: C_2  and  O_3 
REMARK    2  A    between atoms: O_3  and  C_4 
REMARK    3  A    between atoms: C_5  and  O_6 
REMARK    4  A    between atoms: C_9  and  C_10 
REMARK    5  A    between atoms: N_11  and  C_12 
REMARK    6  A    between atoms: C_12  and  C_13 
REMARK    7  A    between atoms: C_13  and  N_14 
REMARK    8  A    between atoms: C_20  and  O_21 
REMARK    9  A    between atoms: C_22  and  C_23 
REMARK   10  A    between atoms: C_23  and  C_24 
REMARK   11  A    between atoms: C_28  and  O_29 
REMARK   12  A    between atoms: O_29  and  C_30 
REMARK   13  A    between atoms: C_30  and  C_31 
ROOT
HETATM    1  C   UNL     1      26.244  44.307  51.471  1.00  0.00     0.161 A 
HETATM    2  N   UNL     1      25.963  44.234  52.901  1.00  0.00    -0.332 N 
HETATM    3  C   UNL     1      25.742  45.498  53.422  1.00  0.00     0.278 A 
HETATM    4  O   UNL     1      25.508  45.784  54.582  1.00  0.00    -0.265 OA
HETATM    5  C   UNL     1      25.891  46.476  52.325  1.00  0.00     0.146 A 
HETATM    6  C   UNL     1      26.226  45.785  51.228  1.00  0.00     0.059 A 
ENDROOT
BRANCH   6   7
HETATM    7  C   UNL     1      26.508  46.398  49.907  1.00  0.00     0.194 C 
HETATM    8  O   UNL     1      27.488  46.091  49.244  1.00  0.00    -0.287 OA
BRANCH   7   9
HETATM    9  C   UNL     1      25.592  47.479  49.450  1.00  0.00     0.021 A 
HETATM   10  C   UNL     1      26.087  48.755  49.127  1.00  0.00    -0.045 A 
HETATM   11  C   UNL     1      27.556  49.064  49.078  1.00  0.00     0.049 C 
HETATM   12  C   UNL     1      25.166  49.769  48.821  1.00  0.00     0.044 A 
HETATM   13  C   UNL     1      23.791  49.531  48.851  1.00  0.00     0.069 A 
HETATM   14  C   UNL     1      23.314  48.244  49.089  1.00  0.00     0.038 A 
HETATM   15  C   UNL     1      24.214  47.217  49.377  1.00  0.00     0.019 A 
BRANCH  13  16
HETATM   16  O   UNL     1      22.995  50.609  48.586  1.00  0.00    -0.347 OA
BRANCH  16  17
HETATM   17  C   UNL     1      21.860  50.739  49.443  1.00  0.00     0.214 C 
BRANCH  17  18
HETATM   18  C   UNL     1      20.645  50.982  48.583  1.00  0.00    -0.034 A 
HETATM   19  C   UNL     1      20.419  50.195  47.445  1.00  0.00     0.009 A 
HETATM   20  C   UNL     1      19.307  50.427  46.634  1.00  0.00     0.001 A 
HETATM   21  C   UNL     1      18.414  51.450  46.949  1.00  0.00     0.000 A 
HETATM   22  C   UNL     1      18.633  52.244  48.073  1.00  0.00     0.001 A 
HETATM   23  C   UNL     1      19.744  52.011  48.887  1.00  0.00     0.009 A 
ENDBRANCH  17  18
ENDBRANCH  16  17
ENDBRANCH  13  16
ENDBRANCH   7   9
ENDBRANCH   6   7
BRANCH   1  24
HETATM   24  C   UNL     1      25.205  43.533  50.684  1.00  0.00    -0.028 A 
HETATM   25  C   UNL     1      23.852  43.914  50.655  1.00  0.00     0.012 A 
HETATM   26  C   UNL     1      22.914  43.163  49.944  1.00  0.00     0.040 A 
HETATM   27  C   UNL     1      23.316  42.025  49.242  1.00  0.00     0.099 A 
HETATM   28  C   UNL     1      24.661  41.647  49.223  1.00  0.00     0.102 A 
HETATM   29  C   UNL     1      25.591  42.396  49.956  1.00  0.00     0.049 A 
BRANCH  27  30
HETATM   30  O   UNL     1      22.365  41.276  48.613  1.00  0.00    -0.358 OA
HETATM   31  H   UNL     1      22.092  40.540  49.188  1.00  0.00     0.218 HD
ENDBRANCH  27  30
BRANCH  28  32
HETATM   32  O   UNL     1      25.211  40.573  48.578  1.00  0.00    -0.349 OA
BRANCH  32  33
HETATM   33  C   UNL     1      26.624  40.396  48.726  1.00  0.00     0.171 C 
HETATM   34  C   UNL     1      26.999  39.065  48.097  1.00  0.00     0.034 C 
ENDBRANCH  32  33
ENDBRANCH  28  32
ENDBRANCH   1  24
BRANCH   5  35
HETATM   35  O   UNL     1      25.780  47.819  52.500  1.00  0.00    -0.355 OA
HETATM   36  H   UNL     1      25.694  48.224  51.615  1.00  0.00     0.218 HD
ENDBRANCH   5  35
BRANCH   2  37
HETATM   37  C   UNL     1      26.499  43.168  53.749  1.00  0.00     0.155 C 
BRANCH  37  38
HETATM   38  C   UNL     1      27.956  43.371  54.185  1.00  0.00     0.254 C 
BRANCH  38  39
HETATM   39  N   UNL     1      28.840  42.222  53.741  1.00  0.00    -0.077 N 
HETATM   40  H   UNL     1      29.031  41.667  54.586  1.00  0.00     0.279 HD
HETATM   41  C   UNL     1      28.120  41.321  52.776  1.00  0.00     0.269 C 
HETATM   42  C   UNL     1      30.173  42.661  53.199  1.00  0.00     0.269 C 
ENDBRANCH  38  39
ENDBRANCH  37  38
ENDBRANCH   2  37
TORSDOF 13
ENDMDL
MODEL 4
REMARK VINA RESULT:      -8.5      0.916      2.175
REMARK  13 active torsions:
REMARK  status: ('A' for Active; 'I' for Inactive)
REMARK    1  A    between atoms: C_2  and  O_3 
REMARK    2  A    between atoms: O_3  and  C_4 
REMARK    3  A    between atoms: C_5  and  O_6 
REMARK    4  A    between atoms: C_9  and  C_10 
REMARK    5  A    between atoms: N_11  and  C_12 
REMARK    6  A    between atoms: C_12  and  C_13 
REMARK    7  A    between atoms: C_13  and  N_14 
REMARK    8  A    between atoms: C_20  and  O_21 
REMARK    9  A    between atoms: C_22  and  C_23 
REMARK   10  A    between atoms: C_23  and  C_24 
REMARK   11  A    between atoms: C_28  and  O_29 
REMARK   12  A    between atoms: O_29  and  C_30 
REMARK   13  A    between atoms: C_30  and  C_31 
ROOT
HETATM    1  C   UNL     1      24.826  43.849  48.778  1.00  0.00     0.161 A 
HETATM    2  N   UNL     1      23.421  43.456  48.740  1.00  0.00    -0.332 N 
HETATM    3  C   UNL     1      23.289  42.093  48.952  1.00  0.00     0.278 A 
HETATM    4  O   UNL     1      22.257  41.447  48.957  1.00  0.00    -0.265 OA
HETATM    5  C   UNL     1      24.641  41.525  49.124  1.00  0.00     0.146 A 
HETATM    6  C   UNL     1      25.511  42.532  48.972  1.00  0.00     0.059 A 
ENDROOT
BRANCH   6   7
HETATM    7  C   UNL     1      26.985  42.380  49.032  1.00  0.00     0.194 C 
HETATM    8  O   UNL     1      27.654  42.142  48.037  1.00  0.00    -0.287 OA
BRANCH   7   9
HETATM    9  C   UNL     1      27.621  42.441  50.376  1.00  0.00     0.021 A 
HETATM   10  C   UNL     1      27.919  41.265  51.087  1.00  0.00    -0.045 A 
HETATM   11  C   UNL     1      27.758  39.896  50.489  1.00  0.00     0.049 C 
HETATM   12  C   UNL     1      28.404  41.384  52.400  1.00  0.00     0.044 A 
HETATM   13  C   UNL     1      28.572  42.633  52.998  1.00  0.00     0.069 A 
HETATM   14  C   UNL     1      28.355  43.793  52.258  1.00  0.00     0.038 A 
HETATM   15  C   UNL     1      27.891  43.697  50.945  1.00  0.00     0.019 A 
BRANCH  13  16
HETATM   16  O   UNL     1      29.000  42.617  54.295  1.00  0.00    -0.347 OA
BRANCH  16  17
HETATM   17  C   UNL     1      30.363  43.004  54.478  1.00  0.00     0.214 C 
BRANCH  17  18
HETATM   18  C   UNL     1      30.442  43.888  55.698  1.00  0.00    -0.034 A 
HETATM   19  C   UNL     1      31.300  43.556  56.756  1.00  0.00     0.009 A 
HETATM   20  C   UNL     1      31.363  44.360  57.895  1.00  0.00     0.001 A 
HETATM   21  C   UNL     1      30.566  45.498  57.991  1.00  0.00     0.000 A 
HETATM   22  C   UNL     1      29.702  45.834  56.950  1.00  0.00     0.001 A 
HETATM   23  C   UNL     1      29.641  45.033  55.808  1.00  0.00     0.009 A 
ENDBRANCH  17  18
ENDBRANCH  16  17
ENDBRANCH  13  16
ENDBRANCH   7   9
ENDBRANCH   6   7
BRANCH   1  24
HETATM   24  C   UNL     1      25.068  44.850  49.891  1.00  0.00    -0.028 A 
HETATM   25  C   UNL     1      25.584  46.134  49.642  1.00  0.00     0.012 A 
HETATM   26  C   UNL     1      25.823  47.023  50.692  1.00  0.00     0.040 A 
HETATM   27  C   UNL     1      25.541  46.646  52.006  1.00  0.00     0.099 A 
HETATM   28  C   UNL     1      24.991  45.389  52.276  1.00  0.00     0.102 A 
HETATM   29  C   UNL     1      24.774  44.498  51.217  1.00  0.00     0.049 A 
BRANCH  27  30
HETATM   30  O   UNL     1      25.848  47.511  53.015  1.00  0.00    -0.358 OA
HETATM   31  H   UNL     1      26.753  47.848  52.896  1.00  0.00     0.218 HD
ENDBRANCH  27  30
BRANCH  28  32
HETATM   32  O   UNL     1      24.652  44.879  53.499  1.00  0.00    -0.349 OA
BRANCH  32  33
HETATM   33  C   UNL     1      25.698  44.809  54.473  1.00  0.00     0.171 C 
HETATM   34  C   UNL     1      25.629  43.446  55.139  1.00  0.00     0.034 C 
ENDBRANCH  32  33
ENDBRANCH  28  32
ENDBRANCH   1  24
BRANCH   5  35
HETATM   35  O   UNL     1      24.878  40.200  49.309  1.00  0.00    -0.355 OA
HETATM   36  H   UNL     1      24.289  39.709  48.704  1.00  0.00     0.218 HD
ENDBRANCH   5  35
BRANCH   2  37
HETATM   37  C   UNL     1      22.427  44.181  47.947  1.00  0.00     0.155 C 
BRANCH  37  38
HETATM   38  C   UNL     1      21.311  44.838  48.770  1.00  0.00     0.254 C 
BRANCH  38  39
HETATM   39  N   UNL     1      20.377  45.652  47.897  1.00  0.00    -0.077 N 
HETATM   40  H   UNL     1      20.926  45.926  47.070  1.00  0.00     0.279 HD
HETATM   41  C   UNL     1      19.224  44.822  47.405  1.00  0.00     0.269 C 
HETATM   42  C   UNL     1      19.905  46.926  48.544  1.00  0.00     0.269 C 
ENDBRANCH  38  39
ENDBRANCH  37  38
ENDBRANCH   2  37
TORSDOF 13
ENDMDL
MODEL 5
REMARK VINA RESULT:      -8.2      6.395     11.796
REMARK  13 active torsions:
REMARK  status: ('A' for Active; 'I' for Inactive)
REMARK    1  A    between atoms: C_2  and  O_3 
REMARK    2  A    between atoms: O_3  and  C_4 
REMARK    3  A    between atoms: C_5  and  O_6 
REMARK    4  A    between atoms: C_9  and  C_10 
REMARK    5  A    between atoms: N_11  and  C_12 
REMARK    6  A    between atoms: C_12  and  C_13 
REMARK    7  A    between atoms: C_13  and  N_14 
REMARK    8  A    between atoms: C_20  and  O_21 
REMARK    9  A    between atoms: C_22  and  C_23 
REMARK   10  A    between atoms: C_23  and  C_24 
REMARK   11  A    between atoms: C_28  and  O_29 
REMARK   12  A    between atoms: O_29  and  C_30 
REMARK   13  A    between atoms: C_30  and  C_31 
ROOT
HETATM    1  C   UNL     1      21.472  47.412  47.503  1.00  0.00     0.161 A 
HETATM    2  N   UNL     1      22.017  46.199  48.106  1.00  0.00    -0.332 N 
HETATM    3  C   UNL     1      23.059  46.506  48.966  1.00  0.00     0.278 A 
HETATM    4  O   UNL     1      23.739  45.723  49.604  1.00  0.00    -0.265 OA
HETATM    5  C   UNL     1      23.252  47.970  48.944  1.00  0.00     0.146 A 
HETATM    6  C   UNL     1      22.372  48.468  48.067  1.00  0.00     0.059 A 
ENDROOT
BRANCH   6   7
HETATM    7  C   UNL     1      22.261  49.905  47.718  1.00  0.00     0.194 C 
HETATM    8  O   UNL     1      23.152  50.502  47.130  1.00  0.00    -0.287 OA
BRANCH   7   9
HETATM    9  C   UNL     1      21.049  50.628  48.191  1.00  0.00     0.021 A 
HETATM   10  C   UNL     1      20.938  51.051  49.527  1.00  0.00    -0.045 A 
HETATM   11  C   UNL     1      22.070  50.939  50.508  1.00  0.00     0.049 C 
HETATM   12  C   UNL     1      19.724  51.618  49.949  1.00  0.00     0.044 A 
HETATM   13  C   UNL     1      18.643  51.745  49.074  1.00  0.00     0.069 A 
HETATM   14  C   UNL     1      18.791  51.402  47.732  1.00  0.00     0.038 A 
HETATM   15  C   UNL     1      19.996  50.854  47.289  1.00  0.00     0.019 A 
BRANCH  13  16
HETATM   16  O   UNL     1      17.501  52.263  49.614  1.00  0.00    -0.347 OA
BRANCH  16  17
HETATM   17  C   UNL     1      16.295  51.633  49.177  1.00  0.00     0.214 C 
BRANCH  17  18
HETATM   18  C   UNL     1      15.211  52.681  49.119  1.00  0.00    -0.034 A 
HETATM   19  C   UNL     1      14.879  53.285  47.899  1.00  0.00     0.009 A 
HETATM   20  C   UNL     1      13.890  54.268  47.842  1.00  0.00     0.001 A 
HETATM   21  C   UNL     1      13.228  54.661  49.003  1.00  0.00     0.000 A 
HETATM   22  C   UNL     1      13.555  54.073  50.224  1.00  0.00     0.001 A 
HETATM   23  C   UNL     1      14.542  53.087  50.282  1.00  0.00     0.009 A 
ENDBRANCH  17  18
ENDBRANCH  16  17
ENDBRANCH  13  16
ENDBRANCH   7   9
ENDBRANCH   6   7
BRANCH   1  24
HETATM   24  C   UNL     1      20.010  47.577  47.868  1.00  0.00    -0.028 A 
HETATM   25  C   UNL     1      19.582  47.696  49.202  1.00  0.00     0.012 A 
HETATM   26  C   UNL     1      18.224  47.818  49.507  1.00  0.00     0.040 A 
HETATM   27  C   UNL     1      17.276  47.833  48.484  1.00  0.00     0.099 A 
HETATM   28  C   UNL     1      17.679  47.756  47.148  1.00  0.00     0.102 A 
HETATM   29  C   UNL     1      19.041  47.613  46.853  1.00  0.00     0.049 A 
BRANCH  27  30
HETATM   30  O   UNL     1      15.954  47.886  48.818  1.00  0.00    -0.358 OA
HETATM   31  H   UNL     1      15.691  47.057  49.255  1.00  0.00     0.218 HD
ENDBRANCH  27  30
BRANCH  28  32
HETATM   32  O   UNL     1      16.878  47.769  46.039  1.00  0.00    -0.349 OA
BRANCH  32  33
HETATM   33  C   UNL     1      16.907  48.960  45.246  1.00  0.00     0.171 C 
HETATM   34  C   UNL     1      15.868  49.919  45.801  1.00  0.00     0.034 C 
ENDBRANCH  32  33
ENDBRANCH  28  32
ENDBRANCH   1  24
BRANCH   5  35
HETATM   35  O   UNL     1      24.226  48.606  49.647  1.00  0.00    -0.355 OA
HETATM   36  H   UNL     1      23.998  49.555  49.671  1.00  0.00     0.218 HD
ENDBRANCH   5  35
BRANCH   2  37
HETATM   37  C   UNL     1      21.974  44.903  47.428  1.00  0.00     0.155 C 
BRANCH  37  38
HETATM   38  C   UNL     1      22.395  44.939  45.953  1.00  0.00     0.254 C 
BRANCH  38  39
HETATM   39  N   UNL     1      21.230  44.638  45.031  1.00  0.00    -0.077 N 
HETATM   40  H   UNL     1      21.548  43.884  44.407  1.00  0.00     0.279 HD
HETATM   41  C   UNL     1      20.050  44.108  45.797  1.00  0.00     0.269 C 
HETATM   42  C   UNL     1      20.844  45.796  44.150  1.00  0.00     0.269 C 
ENDBRANCH  38  39
ENDBRANCH  37  38
ENDBRANCH   2  37
TORSDOF 13
ENDMDL
MODEL 6
REMARK VINA RESULT:      -8.1      2.163      5.080
REMARK  13 active torsions:
REMARK  status: ('A' for Active; 'I' for Inactive)
REMARK    1  A    between atoms: C_2  and  O_3 
REMARK    2  A    between atoms: O_3  and  C_4 
REMARK    3  A    between atoms: C_5  and  O_6 
REMARK    4  A    between atoms: C_9  and  C_10 
REMARK    5  A    between atoms: N_11  and  C_12 
REMARK    6  A    between atoms: C_12  and  C_13 
REMARK    7  A    between atoms: C_13  and  N_14 
REMARK    8  A    between atoms: C_20  and  O_21 
REMARK    9  A    between atoms: C_22  and  C_23 
REMARK   10  A    between atoms: C_23  and  C_24 
REMARK   11  A    between atoms: C_28  and  O_29 
REMARK   12  A    between atoms: O_29  and  C_30 
REMARK   13  A    between atoms: C_30  and  C_31 
ROOT
HETATM    1  C   UNL     1      23.828  47.401  49.653  1.00  0.00     0.161 A 
HETATM    2  N   UNL     1      23.597  48.741  49.122  1.00  0.00    -0.332 N 
HETATM    3  C   UNL     1      24.777  49.291  48.652  1.00  0.00     0.278 A 
HETATM    4  O   UNL     1      24.930  50.400  48.172  1.00  0.00    -0.265 OA
HETATM    5  C   UNL     1      25.859  48.312  48.878  1.00  0.00     0.146 A 
HETATM    6  C   UNL     1      25.311  47.259  49.496  1.00  0.00     0.059 A 
ENDROOT
BRANCH   6   7
HETATM    7  C   UNL     1      26.067  46.062  49.940  1.00  0.00     0.194 C 
HETATM    8  O   UNL     1      26.266  45.108  49.201  1.00  0.00    -0.287 OA
BRANCH   7   9
HETATM    9  C   UNL     1      26.504  46.023  51.362  1.00  0.00     0.021 A 
HETATM   10  C   UNL     1      27.155  44.892  51.886  1.00  0.00    -0.045 A 
HETATM   11  C   UNL     1      27.578  43.733  51.028  1.00  0.00     0.049 C 
HETATM   12  C   UNL     1      27.434  44.861  53.262  1.00  0.00     0.044 A 
HETATM   13  C   UNL     1      27.062  45.914  54.099  1.00  0.00     0.069 A 
HETATM   14  C   UNL     1      26.494  47.065  53.558  1.00  0.00     0.038 A 
HETATM   15  C   UNL     1      26.226  47.124  52.190  1.00  0.00     0.019 A 
BRANCH  13  16
HETATM   16  O   UNL     1      27.341  45.744  55.425  1.00  0.00    -0.347 OA
BRANCH  16  17
HETATM   17  C   UNL     1      28.436  46.523  55.910  1.00  0.00     0.214 C 
BRANCH  17  18
HETATM   18  C   UNL     1      29.492  45.579  56.428  1.00  0.00    -0.034 A 
HETATM   19  C   UNL     1      29.999  45.731  57.726  1.00  0.00     0.009 A 
HETATM   20  C   UNL     1      30.990  44.873  58.205  1.00  0.00     0.001 A 
HETATM   21  C   UNL     1      31.488  43.858  57.390  1.00  0.00     0.000 A 
HETATM   22  C   UNL     1      30.998  43.701  56.094  1.00  0.00     0.001 A 
HETATM   23  C   UNL     1      30.004  44.557  55.615  1.00  0.00     0.009 A 
ENDBRANCH  17  18
ENDBRANCH  16  17
ENDBRANCH  13  16
ENDBRANCH   7   9
ENDBRANCH   6   7
BRANCH   1  24
HETATM   24  C   UNL     1      23.017  46.376  48.884  1.00  0.00    -0.028 A 
HETATM   25  C   UNL     1      22.290  46.713  47.729  1.00  0.00     0.012 A 
HETATM   26  C   UNL     1      21.529  45.752  47.059  1.00  0.00     0.040 A 
HETATM   27  C   UNL     1      21.493  44.438  47.527  1.00  0.00     0.099 A 
HETATM   28  C   UNL     1      22.239  44.069  48.650  1.00  0.00     0.102 A 
HETATM   29  C   UNL     1      22.983  45.045  49.326  1.00  0.00     0.049 A 
BRANCH  27  30
HETATM   30  O   UNL     1      20.688  43.539  46.890  1.00  0.00    -0.358 OA
HETATM   31  H   UNL     1      21.110  43.247  46.063  1.00  0.00     0.218 HD
ENDBRANCH  27  30
BRANCH  28  32
HETATM   32  O   UNL     1      22.318  42.828  49.221  1.00  0.00    -0.349 OA
BRANCH  32  33
HETATM   33  C   UNL     1      23.609  42.211  49.230  1.00  0.00     0.171 C 
HETATM   34  C   UNL     1      24.230  42.441  50.597  1.00  0.00     0.034 C 
ENDBRANCH  32  33
ENDBRANCH  28  32
ENDBRANCH   1  24
BRANCH   5  35
HETATM   35  O   UNL     1      27.161  48.551  48.570  1.00  0.00    -0.355 OA
HETATM   36  H   UNL     1      27.179  49.260  47.898  1.00  0.00     0.218 HD
ENDBRANCH   5  35
BRANCH   2  37
HETATM   37  C   UNL     1      22.524  49.604  49.620  1.00  0.00     0.155 C 
BRANCH  37  38
HETATM   38  C   UNL     1      21.510  50.040  48.555  1.00  0.00     0.254 C 
BRANCH  38  39
HETATM   39  N   UNL     1      20.096  50.050  49.099  1.00  0.00    -0.077 N 
HETATM   40  H   UNL     1      19.494  50.357  48.322  1.00  0.00     0.279 HD
HETATM   41  C   UNL     1      19.648  48.667  49.484  1.00  0.00     0.269 C 
HETATM   42  C   UNL     1      19.888  51.031  50.221  1.00  0.00     0.269 C 
ENDBRANCH  38  39
ENDBRANCH  37  38
ENDBRANCH   2  37
TORSDOF 13
ENDMDL
MODEL 7
REMARK VINA RESULT:      -8.0      3.646      7.177
REMARK  13 active torsions:
REMARK  status: ('A' for Active; 'I' for Inactive)
REMARK    1  A    between atoms: C_2  and  O_3 
REMARK    2  A    between atoms: O_3  and  C_4 
REMARK    3  A    between atoms: C_5  and  O_6 
REMARK    4  A    between atoms: C_9  and  C_10 
REMARK    5  A    between atoms: N_11  and  C_12 
REMARK    6  A    between atoms: C_12  and  C_13 
REMARK    7  A    between atoms: C_13  and  N_14 
REMARK    8  A    between atoms: C_20  and  O_21 
REMARK    9  A    between atoms: C_22  and  C_23 
REMARK   10  A    between atoms: C_23  and  C_24 
REMARK   11  A    between atoms: C_28  and  O_29 
REMARK   12  A    between atoms: O_29  and  C_30 
REMARK   13  A    between atoms: C_30  and  C_31 
ROOT
HETATM    1  C   UNL     1      20.685  48.170  49.177  1.00  0.00     0.161 A 
HETATM    2  N   UNL     1      20.253  49.564  49.208  1.00  0.00    -0.332 N 
HETATM    3  C   UNL     1      21.158  50.371  48.539  1.00  0.00     0.278 A 
HETATM    4  O   UNL     1      21.104  51.580  48.404  1.00  0.00    -0.265 OA
HETATM    5  C   UNL     1      22.256  49.515  48.046  1.00  0.00     0.146 A 
HETATM    6  C   UNL     1      21.997  48.269  48.462  1.00  0.00     0.059 A 
ENDROOT
BRANCH   6   7
HETATM    7  C   UNL     1      22.878  47.103  48.211  1.00  0.00     0.194 C 
HETATM    8  O   UNL     1      22.758  46.399  47.218  1.00  0.00    -0.287 OA
BRANCH   7   9
HETATM    9  C   UNL     1      23.870  46.760  49.267  1.00  0.00     0.021 A 
HETATM   10  C   UNL     1      23.814  45.524  49.934  1.00  0.00    -0.045 A 
HETATM   11  C   UNL     1      22.867  44.430  49.532  1.00  0.00     0.049 C 
HETATM   12  C   UNL     1      24.696  45.304  51.005  1.00  0.00     0.044 A 
HETATM   13  C   UNL     1      25.596  46.289  51.415  1.00  0.00     0.069 A 
HETATM   14  C   UNL     1      25.701  47.477  50.695  1.00  0.00     0.038 A 
HETATM   15  C   UNL     1      24.847  47.707  49.616  1.00  0.00     0.019 A 
BRANCH  13  16
HETATM   16  O   UNL     1      26.364  45.976  52.499  1.00  0.00    -0.347 OA
BRANCH  16  17
HETATM   17  C   UNL     1      26.508  44.576  52.746  1.00  0.00     0.214 C 
BRANCH  17  18
HETATM   18  C   UNL     1      27.753  44.369  53.573  1.00  0.00    -0.034 A 
HETATM   19  C   UNL     1      28.589  43.271  53.327  1.00  0.00     0.009 A 
HETATM   20  C   UNL     1      29.732  43.064  54.101  1.00  0.00     0.001 A 
HETATM   21  C   UNL     1      30.047  43.948  55.130  1.00  0.00     0.000 A 
HETATM   22  C   UNL     1      29.220  45.039  55.390  1.00  0.00     0.001 A 
HETATM   23  C   UNL     1      28.078  45.250  54.615  1.00  0.00     0.009 A 
ENDBRANCH  17  18
ENDBRANCH  16  17
ENDBRANCH  13  16
ENDBRANCH   7   9
ENDBRANCH   6   7
BRANCH   1  24
HETATM   24  C   UNL     1      19.653  47.309  48.475  1.00  0.00    -0.028 A 
HETATM   25  C   UNL     1      19.607  45.914  48.642  1.00  0.00     0.012 A 
HETATM   26  C   UNL     1      18.662  45.144  47.958  1.00  0.00     0.040 A 
HETATM   27  C   UNL     1      17.744  45.759  47.106  1.00  0.00     0.099 A 
HETATM   28  C   UNL     1      17.744  47.148  46.954  1.00  0.00     0.102 A 
HETATM   29  C   UNL     1      18.708  47.909  47.628  1.00  0.00     0.049 A 
BRANCH  27  30
HETATM   30  O   UNL     1      16.878  44.973  46.402  1.00  0.00    -0.358 OA
HETATM   31  H   UNL     1      16.410  44.373  47.008  1.00  0.00     0.218 HD
ENDBRANCH  27  30
BRANCH  28  32
HETATM   32  O   UNL     1      16.908  47.896  46.171  1.00  0.00    -0.349 OA
BRANCH  32  33
HETATM   33  C   UNL     1      15.557  48.029  46.626  1.00  0.00     0.171 C 
HETATM   34  C   UNL     1      15.208  49.507  46.637  1.00  0.00     0.034 C 
ENDBRANCH  32  33
ENDBRANCH  28  32
ENDBRANCH   1  24
BRANCH   5  35
HETATM   35  O   UNL     1      23.339  49.996  47.381  1.00  0.00    -0.355 OA
HETATM   36  H   UNL     1      23.044  50.251  46.486  1.00  0.00     0.218 HD
ENDBRANCH   5  35
BRANCH   2  37
HETATM   37  C   UNL     1      19.442  50.107  50.298  1.00  0.00     0.155 C 
BRANCH  37  38
HETATM   38  C   UNL     1      18.022  50.523  49.892  1.00  0.00     0.254 C 
BRANCH  38  39
HETATM   39  N   UNL     1      18.003  51.895  49.249  1.00  0.00    -0.077 N 
HETATM   40  H   UNL     1      18.940  52.294  49.400  1.00  0.00     0.279 HD
HETATM   41  C   UNL     1      17.799  51.800  47.762  1.00  0.00     0.269 C 
HETATM   42  C   UNL     1      17.021  52.845  49.882  1.00  0.00     0.269 C 
ENDBRANCH  38  39
ENDBRANCH  37  38
ENDBRANCH   2  37
TORSDOF 13
ENDMDL
MODEL 8
REMARK VINA RESULT:      -8.0      2.428      5.432
REMARK  13 active torsions:
REMARK  status: ('A' for Active; 'I' for Inactive)
REMARK    1  A    between atoms: C_2  and  O_3 
REMARK    2  A    between atoms: O_3  and  C_4 
REMARK    3  A    between atoms: C_5  and  O_6 
REMARK    4  A    between atoms: C_9  and  C_10 
REMARK    5  A    between atoms: N_11  and  C_12 
REMARK    6  A    between atoms: C_12  and  C_13 
REMARK    7  A    between atoms: C_13  and  N_14 
REMARK    8  A    between atoms: C_20  and  O_21 
REMARK    9  A    between atoms: C_22  and  C_23 
REMARK   10  A    between atoms: C_23  and  C_24 
REMARK   11  A    between atoms: C_28  and  O_29 
REMARK   12  A    between atoms: O_29  and  C_30 
REMARK   13  A    between atoms: C_30  and  C_31 
ROOT
HETATM    1  C   UNL     1      23.010  47.220  49.447  1.00  0.00     0.161 A 
HETATM    2  N   UNL     1      23.078  48.570  48.895  1.00  0.00    -0.332 N 
HETATM    3  C   UNL     1      24.395  48.961  48.720  1.00  0.00     0.278 A 
HETATM    4  O   UNL     1      24.794  50.034  48.305  1.00  0.00    -0.265 OA
HETATM    5  C   UNL     1      25.263  47.858  49.178  1.00  0.00     0.146 A 
HETATM    6  C   UNL     1      24.459  46.891  49.637  1.00  0.00     0.059 A 
ENDROOT
BRANCH   6   7
HETATM    7  C   UNL     1      24.934  45.617  50.228  1.00  0.00     0.194 C 
HETATM    8  O   UNL     1      24.666  44.531  49.733  1.00  0.00    -0.287 OA
BRANCH   7   9
HETATM    9  C   UNL     1      25.685  45.700  51.510  1.00  0.00     0.021 A 
HETATM   10  C   UNL     1      26.699  44.775  51.814  1.00  0.00    -0.045 A 
HETATM   11  C   UNL     1      27.186  43.755  50.824  1.00  0.00     0.049 C 
HETATM   12  C   UNL     1      27.289  44.825  53.087  1.00  0.00     0.044 A 
HETATM   13  C   UNL     1      26.872  45.755  54.041  1.00  0.00     0.069 A 
HETATM   14  C   UNL     1      25.927  46.721  53.703  1.00  0.00     0.038 A 
HETATM   15  C   UNL     1      25.342  46.700  52.435  1.00  0.00     0.019 A 
BRANCH  13  16
HETATM   16  O   UNL     1      27.484  45.672  55.258  1.00  0.00    -0.347 OA
BRANCH  16  17
HETATM   17  C   UNL     1      28.773  46.285  55.323  1.00  0.00     0.214 C 
BRANCH  17  18
HETATM   18  C   UNL     1      29.709  45.342  56.037  1.00  0.00    -0.034 A 
HETATM   19  C   UNL     1      30.140  45.628  57.339  1.00  0.00     0.009 A 
HETATM   20  C   UNL     1      31.021  44.769  57.998  1.00  0.00     0.001 A 
HETATM   21  C   UNL     1      31.483  43.620  57.360  1.00  0.00     0.000 A 
HETATM   22  C   UNL     1      31.067  43.328  56.062  1.00  0.00     0.001 A 
HETATM   23  C   UNL     1      30.183  44.185  55.403  1.00  0.00     0.009 A 
ENDBRANCH  17  18
ENDBRANCH  16  17
ENDBRANCH  13  16
ENDBRANCH   7   9
ENDBRANCH   6   7
BRANCH   1  24
HETATM   24  C   UNL     1      22.278  46.293  48.495  1.00  0.00    -0.028 A 
HETATM   25  C   UNL     1      22.886  45.782  47.335  1.00  0.00     0.012 A 
HETATM   26  C   UNL     1      22.176  44.953  46.464  1.00  0.00     0.040 A 
HETATM   27  C   UNL     1      20.851  44.614  46.745  1.00  0.00     0.099 A 
HETATM   28  C   UNL     1      20.237  45.077  47.912  1.00  0.00     0.102 A 
HETATM   29  C   UNL     1      20.952  45.925  48.769  1.00  0.00     0.049 A 
BRANCH  27  30
HETATM   30  O   UNL     1      20.165  43.857  45.840  1.00  0.00    -0.358 OA
HETATM   31  H   UNL     1      19.497  43.319  46.300  1.00  0.00     0.218 HD
ENDBRANCH  27  30
BRANCH  28  32
HETATM   32  O   UNL     1      18.960  44.826  48.331  1.00  0.00    -0.349 OA
BRANCH  32  33
HETATM   33  C   UNL     1      17.909  45.448  47.582  1.00  0.00     0.171 C 
HETATM   34  C   UNL     1      17.235  46.471  48.479  1.00  0.00     0.034 C 
ENDBRANCH  32  33
ENDBRANCH  28  32
ENDBRANCH   1  24
BRANCH   5  35
HETATM   35  O   UNL     1      26.621  47.927  49.185  1.00  0.00    -0.355 OA
HETATM   36  H   UNL     1      26.960  47.026  49.349  1.00  0.00     0.218 HD
ENDBRANCH   5  35
BRANCH   2  37
HETATM   37  C   UNL     1      22.036  49.568  49.142  1.00  0.00     0.155 C 
BRANCH  37  38
HETATM   38  C   UNL     1      21.056  49.768  47.979  1.00  0.00     0.254 C 
BRANCH  38  39
HETATM   39  N   UNL     1      19.673  49.248  48.316  1.00  0.00    -0.077 N 
HETATM   40  H   UNL     1      19.644  48.276  47.980  1.00  0.00     0.279 HD
HETATM   41  C   UNL     1      19.452  49.207  49.803  1.00  0.00     0.269 C 
HETATM   42  C   UNL     1      18.564  49.983  47.613  1.00  0.00     0.269 C 
ENDBRANCH  38  39
ENDBRANCH  37  38
ENDBRANCH   2  37
TORSDOF 13
ENDMDL
MODEL 9
REMARK VINA RESULT:      -7.8      2.690      3.940
REMARK  13 active torsions:
REMARK  status: ('A' for Active; 'I' for Inactive)
REMARK    1  A    between atoms: C_2  and  O_3 
REMARK    2  A    between atoms: O_3  and  C_4 
REMARK    3  A    between atoms: C_5  and  O_6 
REMARK    4  A    between atoms: C_9  and  C_10 
REMARK    5  A    between atoms: N_11  and  C_12 
REMARK    6  A    between atoms: C_12  and  C_13 
REMARK    7  A    between atoms: C_13  and  N_14 
REMARK    8  A    between atoms: C_20  and  O_21 
REMARK    9  A    between atoms: C_22  and  C_23 
REMARK   10  A    between atoms: C_23  and  C_24 
REMARK   11  A    between atoms: C_28  and  O_29 
REMARK   12  A    between atoms: O_29  and  C_30 
REMARK   13  A    between atoms: C_30  and  C_31 
ROOT
HETATM    1  C   UNL     1      23.274  44.387  47.639  1.00  0.00     0.161 A 
HETATM    2  N   UNL     1      22.854  43.961  46.307  1.00  0.00    -0.332 N 
HETATM    3  C   UNL     1      22.335  42.677  46.346  1.00  0.00     0.278 A 
HETATM    4  O   UNL     1      21.921  42.024  45.405  1.00  0.00    -0.265 OA
HETATM    5  C   UNL     1      22.413  42.195  47.739  1.00  0.00     0.146 A 
HETATM    6  C   UNL     1      22.998  43.163  48.456  1.00  0.00     0.059 A 
ENDROOT
BRANCH   6   7
HETATM    7  C   UNL     1      23.302  43.064  49.904  1.00  0.00     0.194 C 
HETATM    8  O   UNL     1      22.431  42.867  50.739  1.00  0.00    -0.287 OA
BRANCH   7   9
HETATM    9  C   UNL     1      24.710  43.304  50.321  1.00  0.00     0.021 A 
HETATM   10  C   UNL     1      25.677  42.288  50.219  1.00  0.00    -0.045 A 
HETATM   11  C   UNL     1      25.396  40.969  49.556  1.00  0.00     0.049 C 
HETATM   12  C   UNL     1      26.958  42.531  50.741  1.00  0.00     0.044 A 
HETATM   13  C   UNL     1      27.268  43.741  51.364  1.00  0.00     0.069 A 
HETATM   14  C   UNL     1      26.330  44.771  51.385  1.00  0.00     0.038 A 
HETATM   15  C   UNL     1      25.057  44.557  50.855  1.00  0.00     0.019 A 
BRANCH  13  16
HETATM   16  O   UNL     1      28.529  43.838  51.877  1.00  0.00    -0.347 OA
BRANCH  16  17
HETATM   17  C   UNL     1      28.831  42.892  52.904  1.00  0.00     0.214 C 
BRANCH  17  18
HETATM   18  C   UNL     1      29.339  43.648  54.106  1.00  0.00    -0.034 A 
HETATM   19  C   UNL     1      28.677  44.802  54.545  1.00  0.00     0.009 A 
HETATM   20  C   UNL     1      29.153  45.517  55.645  1.00  0.00     0.001 A 
HETATM   21  C   UNL     1      30.299  45.089  56.313  1.00  0.00     0.000 A 
HETATM   22  C   UNL     1      30.971  43.947  55.881  1.00  0.00     0.001 A 
HETATM   23  C   UNL     1      30.494  43.229  54.782  1.00  0.00     0.009 A 
ENDBRANCH  17  18
ENDBRANCH  16  17
ENDBRANCH  13  16
ENDBRANCH   7   9
ENDBRANCH   6   7
BRANCH   1  24
HETATM   24  C   UNL     1      22.501  45.616  48.073  1.00  0.00    -0.028 A 
HETATM   25  C   UNL     1      21.107  45.715  47.918  1.00  0.00     0.012 A 
HETATM   26  C   UNL     1      20.427  46.873  48.301  1.00  0.00     0.040 A 
HETATM   27  C   UNL     1      21.128  47.945  48.856  1.00  0.00     0.099 A 
HETATM   28  C   UNL     1      22.508  47.856  49.057  1.00  0.00     0.102 A 
HETATM   29  C   UNL     1      23.184  46.698  48.650  1.00  0.00     0.049 A 
BRANCH  27  30
HETATM   30  O   UNL     1      20.444  49.087  49.158  1.00  0.00    -0.358 OA
HETATM   31  H   UNL     1      20.994  49.863  48.955  1.00  0.00     0.218 HD
ENDBRANCH  27  30
BRANCH  28  32
HETATM   32  O   UNL     1      23.330  48.808  49.595  1.00  0.00    -0.349 OA
BRANCH  32  33
HETATM   33  C   UNL     1      24.303  49.380  48.715  1.00  0.00     0.171 C 
HETATM   34  C   UNL     1      23.634  50.502  47.940  1.00  0.00     0.034 C 
ENDBRANCH  32  33
ENDBRANCH  28  32
ENDBRANCH   1  24
BRANCH   5  35
HETATM   35  O   UNL     1      22.025  40.950  48.123  1.00  0.00    -0.355 OA
HETATM   36  H   UNL     1      21.589  41.034  48.993  1.00  0.00     0.218 HD
ENDBRANCH   5  35
BRANCH   2  37
HETATM   37  C   UNL     1      23.488  44.467  45.089  1.00  0.00     0.155 C 
BRANCH  37  38
HETATM   38  C   UNL     1      22.513  45.044  44.054  1.00  0.00     0.254 C 
BRANCH  38  39
HETATM   39  N   UNL     1      22.929  44.699  42.639  1.00  0.00    -0.077 N 
HETATM   40  H   UNL     1      22.079  44.779  42.064  1.00  0.00     0.279 HD
HETATM   41  C   UNL     1      23.919  45.695  42.102  1.00  0.00     0.269 C 
HETATM   42  C   UNL     1      23.425  43.286  42.483  1.00  0.00     0.269 C 
ENDBRANCH  38  39
ENDBRANCH  37  38
ENDBRANCH   2  37
TORSDOF 13
ENDMDL
MODEL 10
REMARK VINA RESULT:      -7.8      5.338     11.779
REMARK  13 active torsions:
REMARK  status: ('A' for Active; 'I' for Inactive)
REMARK    1  A    between atoms: C_2  and  O_3 
REMARK    2  A    between atoms: O_3  and  C_4 
REMARK    3  A    between atoms: C_5  and  O_6 
REMARK    4  A    between atoms: C_9  and  C_10 
REMARK    5  A    between atoms: N_11  and  C_12 
REMARK    6  A    between atoms: C_12  and  C_13 
REMARK    7  A    between atoms: C_13  and  N_14 
REMARK    8  A    between atoms: C_20  and  O_21 
REMARK    9  A    between atoms: C_22  and  C_23 
REMARK   10  A    between atoms: C_23  and  C_24 
REMARK   11  A    between atoms: C_28  and  O_29 
REMARK   12  A    between atoms: O_29  and  C_30 
REMARK   13  A    between atoms: C_30  and  C_31 
ROOT
HETATM    1  C   UNL     1      21.901  47.371  47.545  1.00  0.00     0.161 A 
HETATM    2  N   UNL     1      22.528  46.252  48.241  1.00  0.00    -0.332 N 
HETATM    3  C   UNL     1      23.431  46.708  49.187  1.00  0.00     0.278 A 
HETATM    4  O   UNL     1      24.135  46.033  49.915  1.00  0.00    -0.265 OA
HETATM    5  C   UNL     1      23.441  48.184  49.133  1.00  0.00     0.146 A 
HETATM    6  C   UNL     1      22.599  48.546  48.157  1.00  0.00     0.059 A 
ENDROOT
BRANCH   6   7
HETATM    7  C   UNL     1      22.346  49.948  47.748  1.00  0.00     0.194 C 
HETATM    8  O   UNL     1      23.203  50.634  47.210  1.00  0.00    -0.287 OA
BRANCH   7   9
HETATM    9  C   UNL     1      21.022  50.531  48.100  1.00  0.00     0.021 A 
HETATM   10  C   UNL     1      20.760  50.993  49.402  1.00  0.00    -0.045 A 
HETATM   11  C   UNL     1      21.822  51.068  50.462  1.00  0.00     0.049 C 
HETATM   12  C   UNL     1      19.457  51.417  49.710  1.00  0.00     0.044 A 
HETATM   13  C   UNL     1      18.437  51.368  48.759  1.00  0.00     0.069 A 
HETATM   14  C   UNL     1      18.725  50.989  47.450  1.00  0.00     0.038 A 
HETATM   15  C   UNL     1      20.018  50.581  47.118  1.00  0.00     0.019 A 
BRANCH  13  16
HETATM   16  O   UNL     1      17.202  51.758  49.192  1.00  0.00    -0.347 OA
BRANCH  16  17
HETATM   17  C   UNL     1      16.267  52.045  48.152  1.00  0.00     0.214 C 
BRANCH  17  18
HETATM   18  C   UNL     1      15.159  52.889  48.733  1.00  0.00    -0.034 A 
HETATM   19  C   UNL     1      14.788  52.736  50.076  1.00  0.00     0.009 A 
HETATM   20  C   UNL     1      13.751  53.500  50.614  1.00  0.00     0.001 A 
HETATM   21  C   UNL     1      13.073  54.418  49.816  1.00  0.00     0.000 A 
HETATM   22  C   UNL     1      13.428  54.573  48.477  1.00  0.00     0.001 A 
HETATM   23  C   UNL     1      14.467  53.812  47.937  1.00  0.00     0.009 A 
ENDBRANCH  17  18
ENDBRANCH  16  17
ENDBRANCH  13  16
ENDBRANCH   7   9
ENDBRANCH   6   7
BRANCH   1  24
HETATM   24  C   UNL     1      20.399  47.355  47.759  1.00  0.00    -0.028 A 
HETATM   25  C   UNL     1      19.825  47.507  49.033  1.00  0.00     0.012 A 
HETATM   26  C   UNL     1      18.439  47.460  49.201  1.00  0.00     0.040 A 
HETATM   27  C   UNL     1      17.607  47.271  48.098  1.00  0.00     0.099 A 
HETATM   28  C   UNL     1      18.151  47.157  46.816  1.00  0.00     0.102 A 
HETATM   29  C   UNL     1      19.543  47.185  46.660  1.00  0.00     0.049 A 
BRANCH  27  30
HETATM   30  O   UNL     1      16.262  47.163  48.304  1.00  0.00    -0.358 OA
HETATM   31  H   UNL     1      16.084  47.033  49.251  1.00  0.00     0.218 HD
ENDBRANCH  27  30
BRANCH  28  32
HETATM   32  O   UNL     1      17.473  46.981  45.640  1.00  0.00    -0.349 OA
BRANCH  32  33
HETATM   33  C   UNL     1      17.874  45.867  44.835  1.00  0.00     0.171 C 
HETATM   34  C   UNL     1      17.822  46.298  43.379  1.00  0.00     0.034 C 
ENDBRANCH  32  33
ENDBRANCH  28  32
ENDBRANCH   1  24
BRANCH   5  35
HETATM   35  O   UNL     1      24.252  48.955  49.905  1.00  0.00    -0.355 OA
HETATM   36  H   UNL     1      24.914  49.365  49.316  1.00  0.00     0.218 HD
ENDBRANCH   5  35
BRANCH   2  37
HETATM   37  C   UNL     1      22.716  44.945  47.608  1.00  0.00     0.155 C 
BRANCH  37  38
HETATM   38  C   UNL     1      22.190  43.758  48.426  1.00  0.00     0.254 C 
BRANCH  38  39
HETATM   39  N   UNL     1      23.238  42.675  48.579  1.00  0.00    -0.077 N 
HETATM   40  H   UNL     1      24.014  42.939  47.957  1.00  0.00     0.279 HD
HETATM   41  C   UNL     1      23.788  42.640  49.979  1.00  0.00     0.269 C 
HETATM   42  C   UNL     1      22.769  41.315  48.135  1.00  0.00     0.269 C 
ENDBRANCH  38  39
ENDBRANCH  37  38
ENDBRANCH   2  37
TORSDOF 13
ENDMDL
