MODEL 1
REMARK VINA RESULT:     -10.6      0.000      0.000
REMARK  5 active torsions:
REMARK  status: ('A' for Active; 'I' for Inactive)
REMARK    1  A    between atoms: C_4  and  C_5 
REMARK       I    between atoms: C_5  and  N_6 
REMARK    2  A    between atoms: N_6  and  C_7 
REMARK    3  A    between atoms: C_7  and  C_8 
REMARK       I    between atoms: C_8  and  N_9 
REMARK    4  A    between atoms: N_9  and  C_10 
REMARK    5  A    between atoms: C_13  and  C_14 
ROOT
HETATM    1  C   UNL     1      25.775  47.822  49.544  1.00  0.00     0.241 C 
HETATM    2  N   UNL     1      25.110  47.539  50.712  1.00  0.00    -0.304 N 
HETATM    3  O   UNL     1      26.878  47.398  49.207  1.00  0.00    -0.271 OA
HETATM    4  H   UNL     1      24.274  48.064  50.948  1.00  0.00     0.171 HD
ENDROOT
BRANCH   2   5
HETATM    5  C   UNL     1      25.589  46.695  51.669  1.00  0.00     0.173 A 
HETATM    6  S   UNL     1      24.751  45.210  51.756  1.00  0.00    -0.061 SA
HETATM    7  C   UNL     1      25.760  44.742  53.064  1.00  0.00     0.086 A 
HETATM    8  C   UNL     1      26.663  45.750  53.341  1.00  0.00     0.078 A 
HETATM    9  N   UNL     1      26.569  46.861  52.516  1.00  0.00    -0.223 NA
BRANCH   8  10
HETATM   10  C   UNL     1      27.631  45.801  54.441  1.00  0.00     0.021 A 
HETATM   11  C   UNL     1      28.716  44.906  54.701  1.00  0.00     0.004 A 
HETATM   12  C   UNL     1      29.305  45.330  55.899  1.00  0.00     0.043 A 
HETATM   13  C   UNL     1      29.280  43.782  54.056  1.00  0.00     0.014 A 
HETATM   14  C   UNL     1      30.393  44.674  56.491  1.00  0.00     0.030 A 
HETATM   15  N   UNL     1      28.625  46.450  56.318  1.00  0.00    -0.364 N 
HETATM   16  C   UNL     1      30.913  43.555  55.836  1.00  0.00     0.002 A 
HETATM   17  C   UNL     1      30.370  43.117  54.633  1.00  0.00     0.001 A 
HETATM   18  H   UNL     1      28.841  46.974  57.155  1.00  0.00     0.165 HD
HETATM   19  C   UNL     1      27.624  46.750  55.442  1.00  0.00     0.103 A 
ENDBRANCH   8  10
ENDBRANCH   2   5
BRANCH   1  20
HETATM   20  C   UNL     1      25.079  48.899  48.692  1.00  0.00     0.226 C 
BRANCH  20  21
HETATM   21  N   UNL     1      23.735  49.296  49.104  1.00  0.00    -0.348 N 
HETATM   22  C   UNL     1      22.866  49.927  48.246  1.00  0.00     0.252 C 
HETATM   23  O   UNL     1      23.243  50.401  47.178  1.00  0.00    -0.268 OA
HETATM   24  H   UNL     1      23.442  49.066  50.044  1.00  0.00     0.163 HD
BRANCH  22  25
HETATM   25  C   UNL     1      21.466  50.108  48.703  1.00  0.00     0.033 A 
HETATM   26  C   UNL     1      20.792  51.272  48.312  1.00  0.00     0.023 A 
HETATM   27  C   UNL     1      19.466  51.487  48.702  1.00  0.00    -0.061 A 
HETATM   28  C   UNL     1      18.750  52.749  48.318  1.00  0.00     0.048 C 
HETATM   29  C   UNL     1      18.822  50.521  49.486  1.00  0.00     0.013 A 
HETATM   30  C   UNL     1      19.477  49.337  49.858  1.00  0.00    -0.061 A 
HETATM   31  C   UNL     1      20.808  49.139  49.470  1.00  0.00     0.023 A 
HETATM   32  C   UNL     1      18.754  48.315  50.685  1.00  0.00     0.048 C 
ENDBRANCH  22  25
ENDBRANCH  20  21
ENDBRANCH   1  20
TORSDOF 5
ENDMDL
MODEL 2
REMARK VINA RESULT:     -10.1      1.751      2.749
REMARK  5 active torsions:
REMARK  status: ('A' for Active; 'I' for Inactive)
REMARK    1  A    between atoms: C_4  and  C_5 
REMARK       I    between atoms: C_5  and  N_6 
REMARK    2  A    between atoms: N_6  and  C_7 
REMARK    3  A    between atoms: C_7  and  C_8 
REMARK       I    between atoms: C_8  and  N_9 
REMARK    4  A    between atoms: N_9  and  C_10 
REMARK    5  A    between atoms: C_13  and  C_14 
ROOT
HETATM    1  C   UNL     1      25.707  47.563  50.167  1.00  0.00     0.241 C 
HETATM    2  N   UNL     1      25.786  46.303  49.623  1.00  0.00    -0.304 N 
HETATM    3  O   UNL     1      25.870  47.864  51.346  1.00  0.00    -0.271 OA
HETATM    4  H   UNL     1      25.484  46.156  48.665  1.00  0.00     0.171 HD
ENDROOT
BRANCH   2   5
HETATM    5  C   UNL     1      26.100  45.189  50.341  1.00  0.00     0.173 A 
HETATM    6  S   UNL     1      24.799  44.096  50.517  1.00  0.00    -0.061 SA
HETATM    7  C   UNL     1      25.809  43.082  51.466  1.00  0.00     0.086 A 
HETATM    8  C   UNL     1      27.063  43.648  51.581  1.00  0.00     0.078 A 
HETATM    9  N   UNL     1      27.225  44.851  50.911  1.00  0.00    -0.223 NA
BRANCH   8  10
HETATM   10  C   UNL     1      28.189  43.163  52.387  1.00  0.00     0.021 A 
HETATM   11  C   UNL     1      28.749  43.754  53.563  1.00  0.00     0.004 A 
HETATM   12  C   UNL     1      29.845  42.962  53.925  1.00  0.00     0.043 A 
HETATM   13  C   UNL     1      28.453  44.872  54.375  1.00  0.00     0.014 A 
HETATM   14  C   UNL     1      30.666  43.248  55.024  1.00  0.00     0.030 A 
HETATM   15  N   UNL     1      29.916  41.921  53.027  1.00  0.00    -0.364 N 
HETATM   16  C   UNL     1      30.355  44.370  55.794  1.00  0.00     0.002 A 
HETATM   17  C   UNL     1      29.261  45.169  55.480  1.00  0.00     0.001 A 
HETATM   18  H   UNL     1      30.609  41.186  53.052  1.00  0.00     0.165 HD
HETATM   19  C   UNL     1      28.916  42.025  52.105  1.00  0.00     0.103 A 
ENDBRANCH   8  10
ENDBRANCH   2   5
BRANCH   1  20
HETATM   20  C   UNL     1      25.212  48.626  49.169  1.00  0.00     0.226 C 
BRANCH  20  21
HETATM   21  N   UNL     1      23.811  49.025  49.273  1.00  0.00    -0.348 N 
HETATM   22  C   UNL     1      23.157  49.663  48.246  1.00  0.00     0.252 C 
HETATM   23  O   UNL     1      23.762  50.139  47.291  1.00  0.00    -0.268 OA
HETATM   24  H   UNL     1      23.315  48.792  50.123  1.00  0.00     0.163 HD
BRANCH  22  25
HETATM   25  C   UNL     1      21.690  49.846  48.380  1.00  0.00     0.033 A 
HETATM   26  C   UNL     1      20.907  48.712  48.630  1.00  0.00     0.023 A 
HETATM   27  C   UNL     1      19.521  48.829  48.781  1.00  0.00    -0.061 A 
HETATM   28  C   UNL     1      18.671  47.613  49.011  1.00  0.00     0.048 C 
HETATM   29  C   UNL     1      18.930  50.094  48.681  1.00  0.00     0.013 A 
HETATM   30  C   UNL     1      19.707  51.241  48.461  1.00  0.00    -0.061 A 
HETATM   31  C   UNL     1      21.093  51.110  48.302  1.00  0.00     0.023 A 
HETATM   32  C   UNL     1      19.045  52.585  48.374  1.00  0.00     0.048 C 
ENDBRANCH  22  25
ENDBRANCH  20  21
ENDBRANCH   1  20
TORSDOF 5
ENDMDL
MODEL 3
REMARK VINA RESULT:     -10.1      2.530     10.266
REMARK  5 active torsions:
REMARK  status: ('A' for Active; 'I' for Inactive)
REMARK    1  A    between atoms: C_4  and  C_5 
REMARK       I    between atoms: C_5  and  N_6 
REMARK    2  A    between atoms: N_6  and  C_7 
REMARK    3  A    between atoms: C_7  and  C_8 
REMARK       I    between atoms: C_8  and  N_9 
REMARK    4  A    between atoms: N_9  and  C_10 
REMARK    5  A    between atoms: C_13  and  C_14 
ROOT
HETATM    1  C   UNL     1      26.692  43.410  50.831  1.00  0.00     0.241 C 
HETATM    2  N   UNL     1      25.472  43.891  51.243  1.00  0.00    -0.304 N 
HETATM    3  O   UNL     1      27.268  43.675  49.779  1.00  0.00    -0.271 OA
HETATM    4  H   UNL     1      25.029  43.486  52.061  1.00  0.00     0.171 HD
ENDROOT
BRANCH   2   5
HETATM    5  C   UNL     1      24.732  44.783  50.527  1.00  0.00     0.173 A 
HETATM    6  S   UNL     1      23.507  44.056  49.583  1.00  0.00    -0.061 SA
HETATM    7  C   UNL     1      23.076  45.608  48.989  1.00  0.00     0.086 A 
HETATM    8  C   UNL     1      23.894  46.568  49.551  1.00  0.00     0.078 A 
HETATM    9  N   UNL     1      24.831  46.083  50.452  1.00  0.00    -0.223 NA
BRANCH   8  10
HETATM   10  C   UNL     1      23.931  48.001  49.240  1.00  0.00     0.021 A 
HETATM   11  C   UNL     1      22.826  48.892  49.060  1.00  0.00     0.004 A 
HETATM   12  C   UNL     1      23.368  50.135  48.711  1.00  0.00     0.043 A 
HETATM   13  C   UNL     1      21.420  48.795  49.159  1.00  0.00     0.014 A 
HETATM   14  C   UNL     1      22.581  51.260  48.429  1.00  0.00     0.030 A 
HETATM   15  N   UNL     1      24.738  50.003  48.717  1.00  0.00    -0.364 N 
HETATM   16  C   UNL     1      21.195  51.124  48.518  1.00  0.00     0.002 A 
HETATM   17  C   UNL     1      20.620  49.912  48.884  1.00  0.00     0.001 A 
HETATM   18  H   UNL     1      25.388  50.749  48.508  1.00  0.00     0.165 HD
HETATM   19  C   UNL     1      25.088  48.727  49.046  1.00  0.00     0.103 A 
ENDBRANCH   8  10
ENDBRANCH   2   5
BRANCH   1  20
HETATM   20  C   UNL     1      27.261  42.322  51.760  1.00  0.00     0.226 C 
BRANCH  20  21
HETATM   21  N   UNL     1      27.799  42.766  53.043  1.00  0.00    -0.348 N 
HETATM   22  C   UNL     1      29.066  43.285  53.163  1.00  0.00     0.252 C 
HETATM   23  O   UNL     1      29.892  43.187  52.261  1.00  0.00    -0.268 OA
HETATM   24  H   UNL     1      27.195  42.709  53.853  1.00  0.00     0.163 HD
BRANCH  22  25
HETATM   25  C   UNL     1      29.437  43.885  54.468  1.00  0.00     0.033 A 
HETATM   26  C   UNL     1      30.548  43.360  55.141  1.00  0.00     0.023 A 
HETATM   27  C   UNL     1      30.952  43.898  56.367  1.00  0.00    -0.061 A 
HETATM   28  C   UNL     1      32.118  43.316  57.111  1.00  0.00     0.048 C 
HETATM   29  C   UNL     1      30.231  44.968  56.911  1.00  0.00     0.013 A 
HETATM   30  C   UNL     1      29.135  45.522  56.233  1.00  0.00    -0.061 A 
HETATM   31  C   UNL     1      28.734  44.969  55.010  1.00  0.00     0.023 A 
HETATM   32  C   UNL     1      28.393  46.679  56.835  1.00  0.00     0.048 C 
ENDBRANCH  22  25
ENDBRANCH  20  21
ENDBRANCH   1  20
TORSDOF 5
ENDMDL
MODEL 4
REMARK VINA RESULT:      -9.8      3.102     10.129
REMARK  5 active torsions:
REMARK  status: ('A' for Active; 'I' for Inactive)
REMARK    1  A    between atoms: C_4  and  C_5 
REMARK       I    between atoms: C_5  and  N_6 
REMARK    2  A    between atoms: N_6  and  C_7 
REMARK    3  A    between atoms: C_7  and  C_8 
REMARK       I    between atoms: C_8  and  N_9 
REMARK    4  A    between atoms: N_9  and  C_10 
REMARK    5  A    between atoms: C_13  and  C_14 
ROOT
HETATM    1  C   UNL     1      24.934  43.003  50.576  1.00  0.00     0.241 C 
HETATM    2  N   UNL     1      25.072  43.782  49.452  1.00  0.00    -0.304 N 
HETATM    3  O   UNL     1      23.906  42.829  51.226  1.00  0.00    -0.271 OA
HETATM    4  H   UNL     1      26.001  43.969  49.089  1.00  0.00     0.171 HD
ENDROOT
BRANCH   2   5
HETATM    5  C   UNL     1      24.042  44.460  48.873  1.00  0.00     0.173 A 
HETATM    6  S   UNL     1      23.425  43.702  47.472  1.00  0.00    -0.061 SA
HETATM    7  C   UNL     1      22.320  45.003  47.283  1.00  0.00     0.086 A 
HETATM    8  C   UNL     1      22.500  45.921  48.299  1.00  0.00     0.078 A 
HETATM    9  N   UNL     1      23.481  45.586  49.221  1.00  0.00    -0.223 NA
BRANCH   8  10
HETATM   10  C   UNL     1      21.837  47.220  48.455  1.00  0.00     0.021 A 
HETATM   11  C   UNL     1      22.438  48.518  48.477  1.00  0.00     0.004 A 
HETATM   12  C   UNL     1      21.405  49.432  48.718  1.00  0.00     0.043 A 
HETATM   13  C   UNL     1      23.744  49.033  48.315  1.00  0.00     0.014 A 
HETATM   14  C   UNL     1      21.617  50.812  48.835  1.00  0.00     0.030 A 
HETATM   15  N   UNL     1      20.232  48.716  48.799  1.00  0.00    -0.364 N 
HETATM   16  C   UNL     1      22.922  51.286  48.687  1.00  0.00     0.002 A 
HETATM   17  C   UNL     1      23.971  50.411  48.424  1.00  0.00     0.001 A 
HETATM   18  H   UNL     1      19.321  49.122  48.960  1.00  0.00     0.165 HD
HETATM   19  C   UNL     1      20.479  47.385  48.630  1.00  0.00     0.103 A 
ENDBRANCH   8  10
ENDBRANCH   2   5
BRANCH   1  20
HETATM   20  C   UNL     1      26.271  42.448  51.100  1.00  0.00     0.226 C 
BRANCH  20  21
HETATM   21  N   UNL     1      26.897  43.170  52.204  1.00  0.00    -0.348 N 
HETATM   22  C   UNL     1      27.833  42.584  53.022  1.00  0.00     0.252 C 
HETATM   23  O   UNL     1      28.020  41.371  53.024  1.00  0.00    -0.268 OA
HETATM   24  H   UNL     1      26.643  44.140  52.338  1.00  0.00     0.163 HD
BRANCH  22  25
HETATM   25  C   UNL     1      28.546  43.461  53.983  1.00  0.00     0.033 A 
HETATM   26  C   UNL     1      28.069  44.766  54.161  1.00  0.00     0.023 A 
HETATM   27  C   UNL     1      28.693  45.631  55.065  1.00  0.00    -0.061 A 
HETATM   28  C   UNL     1      28.210  47.042  55.233  1.00  0.00     0.048 C 
HETATM   29  C   UNL     1      29.800  45.173  55.791  1.00  0.00     0.013 A 
HETATM   30  C   UNL     1      30.269  43.859  55.644  1.00  0.00    -0.061 A 
HETATM   31  C   UNL     1      29.641  43.005  54.727  1.00  0.00     0.023 A 
HETATM   32  C   UNL     1      31.448  43.395  56.447  1.00  0.00     0.048 C 
ENDBRANCH  22  25
ENDBRANCH  20  21
ENDBRANCH   1  20
TORSDOF 5
ENDMDL
MODEL 5
REMARK VINA RESULT:      -9.8      2.171      3.078
REMARK  5 active torsions:
REMARK  status: ('A' for Active; 'I' for Inactive)
REMARK    1  A    between atoms: C_4  and  C_5 
REMARK       I    between atoms: C_5  and  N_6 
REMARK    2  A    between atoms: N_6  and  C_7 
REMARK    3  A    between atoms: C_7  and  C_8 
REMARK       I    between atoms: C_8  and  N_9 
REMARK    4  A    between atoms: N_9  and  C_10 
REMARK    5  A    between atoms: C_13  and  C_14 
ROOT
HETATM    1  C   UNL     1      24.554  45.148  50.973  1.00  0.00     0.241 C 
HETATM    2  N   UNL     1      25.694  45.874  51.225  1.00  0.00    -0.304 N 
HETATM    3  O   UNL     1      23.999  44.364  51.739  1.00  0.00    -0.271 OA
HETATM    4  H   UNL     1      26.143  46.373  50.465  1.00  0.00     0.171 HD
ENDROOT
BRANCH   2   5
HETATM    5  C   UNL     1      26.361  45.844  52.413  1.00  0.00     0.173 A 
HETATM    6  S   UNL     1      25.926  47.108  53.477  1.00  0.00    -0.061 SA
HETATM    7  C   UNL     1      27.075  46.520  54.609  1.00  0.00     0.086 A 
HETATM    8  C   UNL     1      27.708  45.404  54.097  1.00  0.00     0.078 A 
HETATM    9  N   UNL     1      27.272  45.012  52.840  1.00  0.00    -0.223 NA
BRANCH   8  10
HETATM   10  C   UNL     1      28.822  44.659  54.692  1.00  0.00     0.021 A 
HETATM   11  C   UNL     1      29.490  44.915  55.931  1.00  0.00     0.004 A 
HETATM   12  C   UNL     1      30.526  43.978  56.028  1.00  0.00     0.043 A 
HETATM   13  C   UNL     1      29.335  45.833  56.995  1.00  0.00     0.014 A 
HETATM   14  C   UNL     1      31.421  43.936  57.105  1.00  0.00     0.030 A 
HETATM   15  N   UNL     1      30.458  43.174  54.913  1.00  0.00    -0.364 N 
HETATM   16  C   UNL     1      31.251  44.869  58.130  1.00  0.00     0.002 A 
HETATM   17  C   UNL     1      30.219  45.801  58.081  1.00  0.00     0.001 A 
HETATM   18  H   UNL     1      31.082  42.402  54.722  1.00  0.00     0.165 HD
HETATM   19  C   UNL     1      29.429  43.567  54.109  1.00  0.00     0.103 A 
ENDBRANCH   8  10
ENDBRANCH   2   5
BRANCH   1  20
HETATM   20  C   UNL     1      24.070  45.264  49.517  1.00  0.00     0.226 C 
BRANCH  20  21
HETATM   21  N   UNL     1      22.902  46.107  49.276  1.00  0.00    -0.348 N 
HETATM   22  C   UNL     1      23.004  47.471  49.135  1.00  0.00     0.252 C 
HETATM   23  O   UNL     1      24.028  48.077  49.434  1.00  0.00    -0.268 OA
HETATM   24  H   UNL     1      22.002  45.654  49.186  1.00  0.00     0.163 HD
BRANCH  22  25
HETATM   25  C   UNL     1      21.789  48.204  48.700  1.00  0.00     0.033 A 
HETATM   26  C   UNL     1      20.725  47.461  48.174  1.00  0.00     0.023 A 
HETATM   27  C   UNL     1      19.551  48.100  47.763  1.00  0.00    -0.061 A 
HETATM   28  C   UNL     1      18.421  47.314  47.163  1.00  0.00     0.048 C 
HETATM   29  C   UNL     1      19.454  49.492  47.886  1.00  0.00     0.013 A 
HETATM   30  C   UNL     1      20.501  50.244  48.439  1.00  0.00    -0.061 A 
HETATM   31  C   UNL     1      21.676  49.593  48.839  1.00  0.00     0.023 A 
HETATM   32  C   UNL     1      20.360  51.732  48.572  1.00  0.00     0.048 C 
ENDBRANCH  22  25
ENDBRANCH  20  21
ENDBRANCH   1  20
TORSDOF 5
ENDMDL
MODEL 6
REMARK VINA RESULT:      -9.6      2.430      3.268
REMARK  5 active torsions:
REMARK  status: ('A' for Active; 'I' for Inactive)
REMARK    1  A    between atoms: C_4  and  C_5 
REMARK       I    between atoms: C_5  and  N_6 
REMARK    2  A    between atoms: N_6  and  C_7 
REMARK    3  A    between atoms: C_7  and  C_8 
REMARK       I    between atoms: C_8  and  N_9 
REMARK    4  A    between atoms: N_9  and  C_10 
REMARK    5  A    between atoms: C_13  and  C_14 
ROOT
HETATM    1  C   UNL     1      24.588  44.778  51.267  1.00  0.00     0.241 C 
HETATM    2  N   UNL     1      25.593  45.697  51.456  1.00  0.00    -0.304 N 
HETATM    3  O   UNL     1      24.257  43.883  52.040  1.00  0.00    -0.271 OA
HETATM    4  H   UNL     1      25.873  46.293  50.685  1.00  0.00     0.171 HD
ENDROOT
BRANCH   2   5
HETATM    5  C   UNL     1      26.358  45.757  52.583  1.00  0.00     0.173 A 
HETATM    6  S   UNL     1      26.103  47.168  53.510  1.00  0.00    -0.061 SA
HETATM    7  C   UNL     1      27.306  46.633  54.613  1.00  0.00     0.086 A 
HETATM    8  C   UNL     1      27.815  45.419  54.196  1.00  0.00     0.078 A 
HETATM    9  N   UNL     1      27.246  44.914  53.036  1.00  0.00    -0.223 NA
BRANCH   8  10
HETATM   10  C   UNL     1      28.925  44.667  54.790  1.00  0.00     0.021 A 
HETATM   11  C   UNL     1      29.598  44.920  56.027  1.00  0.00     0.004 A 
HETATM   12  C   UNL     1      30.627  43.976  56.123  1.00  0.00     0.043 A 
HETATM   13  C   UNL     1      29.452  45.840  57.090  1.00  0.00     0.014 A 
HETATM   14  C   UNL     1      31.525  43.929  57.198  1.00  0.00     0.030 A 
HETATM   15  N   UNL     1      30.551  43.170  55.010  1.00  0.00    -0.364 N 
HETATM   16  C   UNL     1      31.364  44.864  58.222  1.00  0.00     0.002 A 
HETATM   17  C   UNL     1      30.339  45.803  58.174  1.00  0.00     0.001 A 
HETATM   18  H   UNL     1      31.169  42.393  54.819  1.00  0.00     0.165 HD
HETATM   19  C   UNL     1      29.523  43.569  54.207  1.00  0.00     0.103 A 
ENDBRANCH   8  10
ENDBRANCH   2   5
BRANCH   1  20
HETATM   20  C   UNL     1      23.962  44.844  49.862  1.00  0.00     0.226 C 
BRANCH  20  21
HETATM   21  N   UNL     1      23.492  46.151  49.411  1.00  0.00    -0.348 N 
HETATM   22  C   UNL     1      22.506  46.284  48.462  1.00  0.00     0.252 C 
HETATM   23  O   UNL     1      22.137  45.335  47.776  1.00  0.00    -0.268 OA
HETATM   24  H   UNL     1      23.895  46.972  49.842  1.00  0.00     0.163 HD
BRANCH  22  25
HETATM   25  C   UNL     1      21.969  47.646  48.221  1.00  0.00     0.033 A 
HETATM   26  C   UNL     1      22.796  48.739  48.509  1.00  0.00     0.023 A 
HETATM   27  C   UNL     1      22.347  50.045  48.287  1.00  0.00    -0.061 A 
HETATM   28  C   UNL     1      23.213  51.221  48.628  1.00  0.00     0.048 C 
HETATM   29  C   UNL     1      21.059  50.242  47.772  1.00  0.00     0.013 A 
HETATM   30  C   UNL     1      20.233  49.155  47.451  1.00  0.00    -0.061 A 
HETATM   31  C   UNL     1      20.691  47.852  47.688  1.00  0.00     0.023 A 
HETATM   32  C   UNL     1      18.864  49.400  46.886  1.00  0.00     0.048 C 
ENDBRANCH  22  25
ENDBRANCH  20  21
ENDBRANCH   1  20
TORSDOF 5
ENDMDL
MODEL 7
REMARK VINA RESULT:      -9.5      2.310     11.022
REMARK  5 active torsions:
REMARK  status: ('A' for Active; 'I' for Inactive)
REMARK    1  A    between atoms: C_4  and  C_5 
REMARK       I    between atoms: C_5  and  N_6 
REMARK    2  A    between atoms: N_6  and  C_7 
REMARK    3  A    between atoms: C_7  and  C_8 
REMARK       I    between atoms: C_8  and  N_9 
REMARK    4  A    between atoms: N_9  and  C_10 
REMARK    5  A    between atoms: C_13  and  C_14 
ROOT
HETATM    1  C   UNL     1      24.557  47.054  50.423  1.00  0.00     0.241 C 
HETATM    2  N   UNL     1      23.888  47.270  49.242  1.00  0.00    -0.304 N 
HETATM    3  O   UNL     1      24.729  47.867  51.327  1.00  0.00    -0.271 OA
HETATM    4  H   UNL     1      23.939  46.572  48.507  1.00  0.00     0.171 HD
ENDROOT
BRANCH   2   5
HETATM    5  C   UNL     1      23.277  48.446  48.924  1.00  0.00     0.173 A 
HETATM    6  S   UNL     1      24.337  49.612  48.265  1.00  0.00    -0.061 SA
HETATM    7  C   UNL     1      23.026  50.717  48.172  1.00  0.00     0.086 A 
HETATM    8  C   UNL     1      21.876  50.120  48.649  1.00  0.00     0.078 A 
HETATM    9  N   UNL     1      22.029  48.804  49.060  1.00  0.00    -0.223 NA
BRANCH   8  10
HETATM   10  C   UNL     1      20.562  50.742  48.840  1.00  0.00     0.021 A 
HETATM   11  C   UNL     1      19.532  50.941  47.867  1.00  0.00     0.004 A 
HETATM   12  C   UNL     1      18.502  51.637  48.512  1.00  0.00     0.043 A 
HETATM   13  C   UNL     1      19.345  50.607  46.507  1.00  0.00     0.014 A 
HETATM   14  C   UNL     1      17.326  52.036  47.864  1.00  0.00     0.030 A 
HETATM   15  N   UNL     1      18.883  51.814  49.823  1.00  0.00    -0.364 N 
HETATM   16  C   UNL     1      17.181  51.705  46.515  1.00  0.00     0.002 A 
HETATM   17  C   UNL     1      18.172  50.995  45.846  1.00  0.00     0.001 A 
HETATM   18  H   UNL     1      18.326  52.280  50.526  1.00  0.00     0.165 HD
HETATM   19  C   UNL     1      20.116  51.269  50.034  1.00  0.00     0.103 A 
ENDBRANCH   8  10
ENDBRANCH   2   5
BRANCH   1  20
HETATM   20  C   UNL     1      25.262  45.687  50.481  1.00  0.00     0.226 C 
BRANCH  20  21
HETATM   21  N   UNL     1      26.348  45.546  51.448  1.00  0.00    -0.348 N 
HETATM   22  C   UNL     1      26.155  44.977  52.684  1.00  0.00     0.252 C 
HETATM   23  O   UNL     1      25.031  44.774  53.133  1.00  0.00    -0.268 OA
HETATM   24  H   UNL     1      27.270  45.857  51.171  1.00  0.00     0.163 HD
BRANCH  22  25
HETATM   25  C   UNL     1      27.360  44.705  53.506  1.00  0.00     0.033 A 
HETATM   26  C   UNL     1      28.259  43.731  53.054  1.00  0.00     0.023 A 
HETATM   27  C   UNL     1      29.419  43.446  53.781  1.00  0.00    -0.061 A 
HETATM   28  C   UNL     1      30.367  42.377  53.322  1.00  0.00     0.048 C 
HETATM   29  C   UNL     1      29.668  44.149  54.967  1.00  0.00     0.013 A 
HETATM   30  C   UNL     1      28.791  45.148  55.414  1.00  0.00    -0.061 A 
HETATM   31  C   UNL     1      27.627  45.418  54.681  1.00  0.00     0.023 A 
HETATM   32  C   UNL     1      29.095  45.895  56.680  1.00  0.00     0.048 C 
ENDBRANCH  22  25
ENDBRANCH  20  21
ENDBRANCH   1  20
TORSDOF 5
ENDMDL
MODEL 8
REMARK VINA RESULT:      -9.5      2.215      2.809
REMARK  5 active torsions:
REMARK  status: ('A' for Active; 'I' for Inactive)
REMARK    1  A    between atoms: C_4  and  C_5 
REMARK       I    between atoms: C_5  and  N_6 
REMARK    2  A    between atoms: N_6  and  C_7 
REMARK    3  A    between atoms: C_7  and  C_8 
REMARK       I    between atoms: C_8  and  N_9 
REMARK    4  A    between atoms: N_9  and  C_10 
REMARK    5  A    between atoms: C_13  and  C_14 
ROOT
HETATM    1  C   UNL     1      24.996  47.415  50.254  1.00  0.00     0.241 C 
HETATM    2  N   UNL     1      25.277  46.229  49.619  1.00  0.00    -0.304 N 
HETATM    3  O   UNL     1      25.002  47.618  51.465  1.00  0.00    -0.271 OA
HETATM    4  H   UNL     1      25.094  46.142  48.625  1.00  0.00     0.171 HD
ENDROOT
BRANCH   2   5
HETATM    5  C   UNL     1      25.645  45.092  50.273  1.00  0.00     0.173 A 
HETATM    6  S   UNL     1      24.375  43.965  50.458  1.00  0.00    -0.061 SA
HETATM    7  C   UNL     1      25.445  42.933  51.315  1.00  0.00     0.086 A 
HETATM    8  C   UNL     1      26.693  43.519  51.400  1.00  0.00     0.078 A 
HETATM    9  N   UNL     1      26.801  44.754  50.777  1.00  0.00    -0.223 NA
BRANCH   8  10
HETATM   10  C   UNL     1      27.863  43.024  52.133  1.00  0.00     0.021 A 
HETATM   11  C   UNL     1      28.483  43.593  53.289  1.00  0.00     0.004 A 
HETATM   12  C   UNL     1      29.602  42.800  53.574  1.00  0.00     0.043 A 
HETATM   13  C   UNL     1      28.226  44.692  54.140  1.00  0.00     0.014 A 
HETATM   14  C   UNL     1      30.480  43.067  54.633  1.00  0.00     0.030 A 
HETATM   15  N   UNL     1      29.628  41.779  52.651  1.00  0.00    -0.364 N 
HETATM   16  C   UNL     1      30.206  44.171  55.443  1.00  0.00     0.002 A 
HETATM   17  C   UNL     1      29.092  44.970  55.206  1.00  0.00     0.001 A 
HETATM   18  H   UNL     1      30.325  41.048  52.622  1.00  0.00     0.165 HD
HETATM   19  C   UNL     1      28.579  41.897  51.787  1.00  0.00     0.103 A 
ENDBRANCH   8  10
ENDBRANCH   2   5
BRANCH   1  20
HETATM   20  C   UNL     1      24.484  48.510  49.299  1.00  0.00     0.226 C 
BRANCH  20  21
HETATM   21  N   UNL     1      23.041  48.729  49.262  1.00  0.00    -0.348 N 
HETATM   22  C   UNL     1      22.190  47.873  48.604  1.00  0.00     0.252 C 
HETATM   23  O   UNL     1      22.606  47.022  47.824  1.00  0.00    -0.268 OA
HETATM   24  H   UNL     1      22.671  49.525  49.765  1.00  0.00     0.163 HD
BRANCH  22  25
HETATM   25  C   UNL     1      20.733  48.080  48.794  1.00  0.00     0.033 A 
HETATM   26  C   UNL     1      20.302  49.324  49.270  1.00  0.00     0.023 A 
HETATM   27  C   UNL     1      18.939  49.579  49.453  1.00  0.00    -0.061 A 
HETATM   28  C   UNL     1      18.472  50.897  49.999  1.00  0.00     0.048 C 
HETATM   29  C   UNL     1      18.012  48.572  49.152  1.00  0.00     0.013 A 
HETATM   30  C   UNL     1      18.430  47.332  48.645  1.00  0.00    -0.061 A 
HETATM   31  C   UNL     1      19.799  47.086  48.476  1.00  0.00     0.023 A 
HETATM   32  C   UNL     1      17.411  46.281  48.317  1.00  0.00     0.048 C 
ENDBRANCH  22  25
ENDBRANCH  20  21
ENDBRANCH   1  20
TORSDOF 5
ENDMDL
MODEL 9
REMARK VINA RESULT:      -9.4      2.454     10.501
REMARK  5 active torsions:
REMARK  status: ('A' for Active; 'I' for Inactive)
REMARK    1  A    between atoms: C_4  and  C_5 
REMARK       I    between atoms: C_5  and  N_6 
REMARK    2  A    between atoms: N_6  and  C_7 
REMARK    3  A    between atoms: C_7  and  C_8 
REMARK       I    between atoms: C_8  and  N_9 
REMARK    4  A    between atoms: N_9  and  C_10 
REMARK    5  A    between atoms: C_13  and  C_14 
ROOT
HETATM    1  C   UNL     1      24.995  44.474  50.111  1.00  0.00     0.241 C 
HETATM    2  N   UNL     1      24.282  45.540  50.606  1.00  0.00    -0.304 N 
HETATM    3  O   UNL     1      25.335  44.298  48.944  1.00  0.00    -0.271 OA
HETATM    4  H   UNL     1      23.930  45.503  51.557  1.00  0.00     0.171 HD
ENDROOT
BRANCH   2   5
HETATM    5  C   UNL     1      23.875  46.595  49.845  1.00  0.00     0.173 A 
HETATM    6  S   UNL     1      25.031  47.847  49.734  1.00  0.00    -0.061 SA
HETATM    7  C   UNL     1      23.927  48.750  48.777  1.00  0.00     0.086 A 
HETATM    8  C   UNL     1      22.758  48.034  48.611  1.00  0.00     0.078 A 
HETATM    9  N   UNL     1      22.748  46.784  49.213  1.00  0.00    -0.223 NA
BRANCH   8  10
HETATM   10  C   UNL     1      21.526  48.479  47.952  1.00  0.00     0.021 A 
HETATM   11  C   UNL     1      20.837  49.721  48.121  1.00  0.00     0.004 A 
HETATM   12  C   UNL     1      19.682  49.647  47.333  1.00  0.00     0.043 A 
HETATM   13  C   UNL     1      21.057  50.912  48.849  1.00  0.00     0.014 A 
HETATM   14  C   UNL     1      18.735  50.679  47.264  1.00  0.00     0.030 A 
HETATM   15  N   UNL     1      19.698  48.430  46.691  1.00  0.00    -0.364 N 
HETATM   16  C   UNL     1      18.976  51.834  48.011  1.00  0.00     0.002 A 
HETATM   17  C   UNL     1      20.123  51.954  48.788  1.00  0.00     0.001 A 
HETATM   18  H   UNL     1      18.988  48.109  46.048  1.00  0.00     0.165 HD
HETATM   19  C   UNL     1      20.810  47.724  47.047  1.00  0.00     0.103 A 
ENDBRANCH   8  10
ENDBRANCH   2   5
BRANCH   1  20
HETATM   20  C   UNL     1      25.222  43.360  51.149  1.00  0.00     0.226 C 
BRANCH  20  21
HETATM   21  N   UNL     1      26.015  43.707  52.325  1.00  0.00    -0.348 N 
HETATM   22  C   UNL     1      27.384  43.587  52.342  1.00  0.00     0.252 C 
HETATM   23  O   UNL     1      27.990  42.969  51.472  1.00  0.00    -0.268 OA
HETATM   24  H   UNL     1      25.527  44.071  53.133  1.00  0.00     0.163 HD
BRANCH  22  25
HETATM   25  C   UNL     1      28.104  44.150  53.512  1.00  0.00     0.033 A 
HETATM   26  C   UNL     1      27.628  45.346  54.063  1.00  0.00     0.023 A 
HETATM   27  C   UNL     1      28.258  45.913  55.176  1.00  0.00    -0.061 A 
HETATM   28  C   UNL     1      27.777  47.214  55.748  1.00  0.00     0.048 C 
HETATM   29  C   UNL     1      29.370  45.267  55.730  1.00  0.00     0.013 A 
HETATM   30  C   UNL     1      29.838  44.053  55.205  1.00  0.00    -0.061 A 
HETATM   31  C   UNL     1      29.204  43.500  54.085  1.00  0.00     0.023 A 
HETATM   32  C   UNL     1      31.023  43.377  55.832  1.00  0.00     0.048 C 
ENDBRANCH  22  25
ENDBRANCH  20  21
ENDBRANCH   1  20
TORSDOF 5
ENDMDL
MODEL 10
REMARK VINA RESULT:      -9.3      2.147      2.519
REMARK  5 active torsions:
REMARK  status: ('A' for Active; 'I' for Inactive)
REMARK    1  A    between atoms: C_4  and  C_5 
REMARK       I    between atoms: C_5  and  N_6 
REMARK    2  A    between atoms: N_6  and  C_7 
REMARK    3  A    between atoms: C_7  and  C_8 
REMARK       I    between atoms: C_8  and  N_9 
REMARK    4  A    between atoms: N_9  and  C_10 
REMARK    5  A    between atoms: C_13  and  C_14 
ROOT
HETATM    1  C   UNL     1      25.020  44.865  49.728  1.00  0.00     0.241 C 
HETATM    2  N   UNL     1      25.065  44.290  50.975  1.00  0.00    -0.304 N 
HETATM    3  O   UNL     1      25.958  45.382  49.125  1.00  0.00    -0.271 OA
HETATM    4  H   UNL     1      24.197  44.030  51.433  1.00  0.00     0.171 HD
ENDROOT
BRANCH   2   5
HETATM    5  C   UNL     1      26.202  44.185  51.718  1.00  0.00     0.173 A 
HETATM    6  S   UNL     1      27.194  42.868  51.271  1.00  0.00    -0.061 SA
HETATM    7  C   UNL     1      28.285  43.292  52.527  1.00  0.00     0.086 A 
HETATM    8  C   UNL     1      27.816  44.405  53.197  1.00  0.00     0.078 A 
HETATM    9  N   UNL     1      26.626  44.923  52.708  1.00  0.00    -0.223 NA
BRANCH   8  10
HETATM   10  C   UNL     1      28.388  45.032  54.394  1.00  0.00     0.021 A 
HETATM   11  C   UNL     1      29.428  44.531  55.237  1.00  0.00     0.004 A 
HETATM   12  C   UNL     1      29.572  45.450  56.284  1.00  0.00     0.043 A 
HETATM   13  C   UNL     1      30.278  43.402  55.237  1.00  0.00     0.014 A 
HETATM   14  C   UNL     1      30.488  45.281  57.331  1.00  0.00     0.030 A 
HETATM   15  N   UNL     1      28.681  46.475  56.056  1.00  0.00    -0.364 N 
HETATM   16  C   UNL     1      31.299  44.145  57.309  1.00  0.00     0.002 A 
HETATM   17  C   UNL     1      31.203  43.221  56.274  1.00  0.00     0.001 A 
HETATM   18  H   UNL     1      28.573  47.285  56.651  1.00  0.00     0.165 HD
HETATM   19  C   UNL     1      27.972  46.239  54.915  1.00  0.00     0.103 A 
ENDBRANCH   8  10
ENDBRANCH   2   5
BRANCH   1  20
HETATM   20  C   UNL     1      23.595  44.970  49.157  1.00  0.00     0.226 C 
BRANCH  20  21
HETATM   21  N   UNL     1      23.001  46.304  49.108  1.00  0.00    -0.348 N 
HETATM   22  C   UNL     1      22.312  46.756  48.009  1.00  0.00     0.252 C 
HETATM   23  O   UNL     1      22.357  46.169  46.932  1.00  0.00    -0.268 OA
HETATM   24  H   UNL     1      23.086  46.888  49.930  1.00  0.00     0.163 HD
BRANCH  22  25
HETATM   25  C   UNL     1      21.585  48.043  48.140  1.00  0.00     0.033 A 
HETATM   26  C   UNL     1      20.589  48.334  47.200  1.00  0.00     0.023 A 
HETATM   27  C   UNL     1      19.862  49.526  47.286  1.00  0.00    -0.061 A 
HETATM   28  C   UNL     1      18.819  49.862  46.260  1.00  0.00     0.048 C 
HETATM   29  C   UNL     1      20.143  50.422  48.325  1.00  0.00     0.013 A 
HETATM   30  C   UNL     1      21.118  50.127  49.290  1.00  0.00    -0.061 A 
HETATM   31  C   UNL     1      21.846  48.934  49.188  1.00  0.00     0.023 A 
HETATM   32  C   UNL     1      21.384  51.101  50.400  1.00  0.00     0.048 C 
ENDBRANCH  22  25
ENDBRANCH  20  21
ENDBRANCH   1  20
TORSDOF 5
ENDMDL
