MODEL 1
REMARK VINA RESULT:      -8.5      0.000      0.000
REMARK  6 active torsions:
REMARK  status: ('A' for Active; 'I' for Inactive)
REMARK    1  A    between atoms: C_2  and  N_3 
REMARK    2  A    between atoms: C_4  and  S_5 
REMARK    3  A    between atoms: S_5  and  C_6 
REMARK    4  A    between atoms: C_6  and  C_7 
REMARK       I    between atoms: C_7  and  N_8 
REMARK    5  A    between atoms: N_8  and  C_9 
REMARK    6  A    between atoms: C_23  and  C_24 
ROOT
HETATM    1  C   UNL     1      25.552  44.564  53.127  1.00  0.00     0.231 C 
HETATM    2  N   UNL     1      26.842  45.037  52.938  1.00  0.00    -0.325 N 
HETATM    3  O   UNL     1      25.068  44.265  54.216  1.00  0.00    -0.272 OA
HETATM    4  H   UNL     1      26.929  45.743  52.205  1.00  0.00     0.169 HD
ENDROOT
BRANCH   2   5
HETATM    5  C   UNL     1      27.783  45.131  53.988  1.00  0.00     0.054 A 
HETATM    6  C   UNL     1      27.859  46.245  54.873  1.00  0.00     0.040 A 
HETATM    7 BR   UNL     1      26.567  47.648  54.869  1.00  0.00    -0.049 Br
HETATM    8  C   UNL     1      28.812  46.290  55.903  1.00  0.00     0.053 A 
HETATM    9  C   UNL     1      29.647  45.207  56.020  1.00  0.00     0.064 A 
HETATM   10  C   UNL     1      29.555  44.101  55.178  1.00  0.00     0.065 A 
HETATM   11  N   UNL     1      30.671  44.968  56.930  1.00  0.00    -0.306 N 
HETATM   12  N   UNL     1      30.530  43.187  55.564  1.00  0.00    -0.306 N 
HETATM   13  C   UNL     1      28.624  44.021  54.170  1.00  0.00     0.063 A 
HETATM   14  C   UNL     1      31.235  43.714  56.656  1.00  0.00     0.325 A 
HETATM   15  H   UNL     1      30.727  42.292  55.148  1.00  0.00     0.170 HD
HETATM   16  O   UNL     1      32.157  43.185  57.250  1.00  0.00    -0.247 OA
HETATM   17  H   UNL     1      30.984  45.572  57.672  1.00  0.00     0.170 HD
ENDBRANCH   2   5
BRANCH   1  18
HETATM   18  C   UNL     1      24.754  44.402  51.844  1.00  0.00     0.185 C 
BRANCH  18  19
HETATM   19  S   UNL     1      25.759  44.662  50.351  1.00  0.00    -0.081 SA
BRANCH  19  20
HETATM   20  C   UNL     1      24.811  45.885  49.589  1.00  0.00     0.192 A 
HETATM   21  N   UNL     1      25.037  47.228  49.685  1.00  0.00    -0.311 N 
HETATM   22  C   UNL     1      23.898  47.817  49.190  1.00  0.00     0.135 A 
HETATM   23  N   UNL     1      23.084  46.879  48.749  1.00  0.00    -0.134 NA
HETATM   24  N   UNL     1      23.663  45.662  48.995  1.00  0.00    -0.123 NA
BRANCH  21  25
HETATM   25  C   UNL     1      26.194  47.904  50.227  1.00  0.00     0.128 C 
HETATM   26  C   UNL     1      27.209  48.280  49.160  1.00  0.00     0.027 C 
ENDBRANCH  21  25
BRANCH  22  27
HETATM   27  C   UNL     1      23.561  49.302  49.182  1.00  0.00     0.057 A 
HETATM   28  C   UNL     1      24.226  50.187  48.151  1.00  0.00     0.013 A 
HETATM   29  C   UNL     1      22.789  49.833  47.989  1.00  0.00     0.013 A 
ENDBRANCH  22  27
ENDBRANCH  19  20
ENDBRANCH  18  19
ENDBRANCH   1  18
TORSDOF 6
ENDMDL
MODEL 2
REMARK VINA RESULT:      -8.4      1.123      1.958
REMARK  6 active torsions:
REMARK  status: ('A' for Active; 'I' for Inactive)
REMARK    1  A    between atoms: C_2  and  N_3 
REMARK    2  A    between atoms: C_4  and  S_5 
REMARK    3  A    between atoms: S_5  and  C_6 
REMARK    4  A    between atoms: C_6  and  C_7 
REMARK       I    between atoms: C_7  and  N_8 
REMARK    5  A    between atoms: N_8  and  C_9 
REMARK    6  A    between atoms: C_23  and  C_24 
ROOT
HETATM    1  C   UNL     1      25.653  44.363  52.951  1.00  0.00     0.231 C 
HETATM    2  N   UNL     1      26.934  44.870  52.796  1.00  0.00    -0.325 N 
HETATM    3  O   UNL     1      25.137  44.081  54.031  1.00  0.00    -0.272 OA
HETATM    4  H   UNL     1      27.028  45.556  52.044  1.00  0.00     0.169 HD
ENDROOT
BRANCH   2   5
HETATM    5  C   UNL     1      27.832  45.025  53.875  1.00  0.00     0.054 A 
HETATM    6  C   UNL     1      27.837  46.164  54.732  1.00  0.00     0.040 A 
HETATM    7 BR   UNL     1      26.497  47.519  54.643  1.00  0.00    -0.049 Br
HETATM    8  C   UNL     1      28.748  46.269  55.795  1.00  0.00     0.053 A 
HETATM    9  C   UNL     1      29.615  45.220  55.971  1.00  0.00     0.064 A 
HETATM   10  C   UNL     1      29.592  44.090  55.157  1.00  0.00     0.065 A 
HETATM   11  N   UNL     1      30.612  45.041  56.924  1.00  0.00    -0.306 N 
HETATM   12  N   UNL     1      30.583  43.221  55.603  1.00  0.00    -0.306 N 
HETATM   13  C   UNL     1      28.703  43.951  54.119  1.00  0.00     0.063 A 
HETATM   14  C   UNL     1      31.229  43.801  56.705  1.00  0.00     0.325 A 
HETATM   15  H   UNL     1      30.826  42.323  55.219  1.00  0.00     0.170 HD
HETATM   16  O   UNL     1      32.145  43.321  57.347  1.00  0.00    -0.247 OA
HETATM   17  H   UNL     1      30.877  45.676  57.660  1.00  0.00     0.170 HD
ENDBRANCH   2   5
BRANCH   1  18
HETATM   18  C   UNL     1      24.909  44.138  51.646  1.00  0.00     0.185 C 
BRANCH  18  19
HETATM   19  S   UNL     1      25.706  44.955  50.230  1.00  0.00    -0.081 SA
BRANCH  19  20
HETATM   20  C   UNL     1      24.665  46.321  50.077  1.00  0.00     0.192 A 
HETATM   21  N   UNL     1      23.627  46.423  49.196  1.00  0.00    -0.311 N 
HETATM   22  C   UNL     1      23.279  47.753  49.209  1.00  0.00     0.135 A 
HETATM   23  N   UNL     1      24.010  48.382  50.108  1.00  0.00    -0.134 NA
HETATM   24  N   UNL     1      24.879  47.477  50.658  1.00  0.00    -0.123 NA
BRANCH  21  25
HETATM   25  C   UNL     1      23.037  45.383  48.384  1.00  0.00     0.128 C 
HETATM   26  C   UNL     1      21.972  44.591  49.124  1.00  0.00     0.027 C 
ENDBRANCH  21  25
BRANCH  22  27
HETATM   27  C   UNL     1      22.261  48.444  48.312  1.00  0.00     0.057 A 
HETATM   28  C   UNL     1      20.790  48.200  48.568  1.00  0.00     0.013 A 
HETATM   29  C   UNL     1      21.388  49.510  48.946  1.00  0.00     0.013 A 
ENDBRANCH  22  27
ENDBRANCH  19  20
ENDBRANCH  18  19
ENDBRANCH   1  18
TORSDOF 6
ENDMDL
MODEL 3
REMARK VINA RESULT:      -8.1      3.008      8.992
REMARK  6 active torsions:
REMARK  status: ('A' for Active; 'I' for Inactive)
REMARK    1  A    between atoms: C_2  and  N_3 
REMARK    2  A    between atoms: C_4  and  S_5 
REMARK    3  A    between atoms: S_5  and  C_6 
REMARK    4  A    between atoms: C_6  and  C_7 
REMARK       I    between atoms: C_7  and  N_8 
REMARK    5  A    between atoms: N_8  and  C_9 
REMARK    6  A    between atoms: C_23  and  C_24 
ROOT
HETATM    1  C   UNL     1      26.553  45.293  50.308  1.00  0.00     0.231 C 
HETATM    2  N   UNL     1      26.299  46.582  50.752  1.00  0.00    -0.325 N 
HETATM    3  O   UNL     1      26.149  44.826  49.246  1.00  0.00    -0.272 OA
HETATM    4  H   UNL     1      27.075  47.015  51.257  1.00  0.00     0.169 HD
ENDROOT
BRANCH   2   5
HETATM    5  C   UNL     1      25.450  47.476  50.061  1.00  0.00     0.054 A 
HETATM    6  C   UNL     1      25.925  48.613  49.347  1.00  0.00     0.040 A 
HETATM    7 BR   UNL     1      27.783  48.948  49.072  1.00  0.00    -0.049 Br
HETATM    8  C   UNL     1      25.040  49.469  48.673  1.00  0.00     0.053 A 
HETATM    9  C   UNL     1      23.707  49.147  48.728  1.00  0.00     0.064 A 
HETATM   10  C   UNL     1      23.241  48.018  49.396  1.00  0.00     0.065 A 
HETATM   11  N   UNL     1      22.613  49.794  48.165  1.00  0.00    -0.306 N 
HETATM   12  N   UNL     1      21.858  47.977  49.254  1.00  0.00    -0.306 N 
HETATM   13  C   UNL     1      24.083  47.153  50.052  1.00  0.00     0.063 A 
HETATM   14  C   UNL     1      21.450  49.079  48.488  1.00  0.00     0.325 A 
HETATM   15  H   UNL     1      21.225  47.290  49.630  1.00  0.00     0.170 HD
HETATM   16  O   UNL     1      20.310  49.360  48.167  1.00  0.00    -0.247 OA
HETATM   17  H   UNL     1      22.616  50.637  47.615  1.00  0.00     0.170 HD
ENDBRANCH   2   5
BRANCH   1  18
HETATM   18  C   UNL     1      27.370  44.452  51.274  1.00  0.00     0.185 C 
BRANCH  18  19
HETATM   19  S   UNL     1      26.551  44.230  52.883  1.00  0.00    -0.081 SA
BRANCH  19  20
HETATM   20  C   UNL     1      27.835  44.734  53.918  1.00  0.00     0.192 A 
HETATM   21  N   UNL     1      29.059  44.134  54.001  1.00  0.00    -0.311 N 
HETATM   22  C   UNL     1      29.636  44.658  55.133  1.00  0.00     0.135 A 
HETATM   23  N   UNL     1      28.837  45.577  55.639  1.00  0.00    -0.134 NA
HETATM   24  N   UNL     1      27.706  45.628  54.868  1.00  0.00    -0.123 NA
BRANCH  21  25
HETATM   25  C   UNL     1      29.624  43.130  53.127  1.00  0.00     0.128 C 
HETATM   26  C   UNL     1      29.177  41.722  53.480  1.00  0.00     0.027 C 
ENDBRANCH  21  25
BRANCH  22  27
HETATM   27  C   UNL     1      30.955  44.240  55.769  1.00  0.00     0.057 A 
HETATM   28  C   UNL     1      31.092  44.331  57.273  1.00  0.00     0.013 A 
HETATM   29  C   UNL     1      30.944  42.994  56.634  1.00  0.00     0.013 A 
ENDBRANCH  22  27
ENDBRANCH  19  20
ENDBRANCH  18  19
ENDBRANCH   1  18
TORSDOF 6
ENDMDL
MODEL 4
REMARK VINA RESULT:      -8.1      4.386      7.631
REMARK  6 active torsions:
REMARK  status: ('A' for Active; 'I' for Inactive)
REMARK    1  A    between atoms: C_2  and  N_3 
REMARK    2  A    between atoms: C_4  and  S_5 
REMARK    3  A    between atoms: S_5  and  C_6 
REMARK    4  A    between atoms: C_6  and  C_7 
REMARK       I    between atoms: C_7  and  N_8 
REMARK    5  A    between atoms: N_8  and  C_9 
REMARK    6  A    between atoms: C_23  and  C_24 
ROOT
HETATM    1  C   UNL     1      26.664  44.184  51.421  1.00  0.00     0.231 C 
HETATM    2  N   UNL     1      26.153  42.927  51.710  1.00  0.00    -0.325 N 
HETATM    3  O   UNL     1      27.486  44.420  50.539  1.00  0.00    -0.272 OA
HETATM    4  H   UNL     1      25.169  42.925  51.985  1.00  0.00     0.169 HD
ENDROOT
BRANCH   2   5
HETATM    5  C   UNL     1      26.609  41.752  51.072  1.00  0.00     0.054 A 
HETATM    6  C   UNL     1      25.942  41.153  49.964  1.00  0.00     0.040 A 
HETATM    7 BR   UNL     1      24.467  41.984  49.085  1.00  0.00    -0.049 Br
HETATM    8  C   UNL     1      26.438  39.986  49.363  1.00  0.00     0.053 A 
HETATM    9  C   UNL     1      27.595  39.465  49.886  1.00  0.00     0.064 A 
HETATM   10  C   UNL     1      28.269  40.065  50.946  1.00  0.00     0.065 A 
HETATM   11  N   UNL     1      28.314  38.338  49.504  1.00  0.00    -0.306 N 
HETATM   12  N   UNL     1      29.396  39.299  51.225  1.00  0.00    -0.306 N 
HETATM   13  C   UNL     1      27.817  41.215  51.547  1.00  0.00     0.063 A 
HETATM   14  C   UNL     1      29.438  38.217  50.333  1.00  0.00     0.325 A 
HETATM   15  H   UNL     1      30.083  39.462  51.942  1.00  0.00     0.170 HD
HETATM   16  O   UNL     1      30.286  37.344  50.288  1.00  0.00    -0.247 OA
HETATM   17  H   UNL     1      28.093  37.691  48.764  1.00  0.00     0.170 HD
ENDBRANCH   2   5
BRANCH   1  18
HETATM   18  C   UNL     1      26.145  45.289  52.325  1.00  0.00     0.185 C 
BRANCH  18  19
HETATM   19  S   UNL     1      25.612  44.678  53.953  1.00  0.00    -0.081 SA
BRANCH  19  20
HETATM   20  C   UNL     1      27.144  44.192  54.580  1.00  0.00     0.192 A 
HETATM   21  N   UNL     1      28.022  45.009  55.231  1.00  0.00    -0.311 N 
HETATM   22  C   UNL     1      29.199  44.301  55.279  1.00  0.00     0.135 A 
HETATM   23  N   UNL     1      29.003  43.103  54.763  1.00  0.00    -0.134 NA
HETATM   24  N   UNL     1      27.706  43.034  54.329  1.00  0.00    -0.123 NA
BRANCH  21  25
HETATM   25  C   UNL     1      27.797  46.347  55.731  1.00  0.00     0.128 C 
HETATM   26  C   UNL     1      28.156  47.421  54.717  1.00  0.00     0.027 C 
ENDBRANCH  21  25
BRANCH  22  27
HETATM   27  C   UNL     1      30.548  44.795  55.784  1.00  0.00     0.057 A 
HETATM   28  C   UNL     1      30.727  45.010  57.271  1.00  0.00     0.013 A 
HETATM   29  C   UNL     1      31.370  43.834  56.622  1.00  0.00     0.013 A 
ENDBRANCH  22  27
ENDBRANCH  19  20
ENDBRANCH  18  19
ENDBRANCH   1  18
TORSDOF 6
ENDMDL
MODEL 5
REMARK VINA RESULT:      -8.1      1.890      2.708
REMARK  6 active torsions:
REMARK  status: ('A' for Active; 'I' for Inactive)
REMARK    1  A    between atoms: C_2  and  N_3 
REMARK    2  A    between atoms: C_4  and  S_5 
REMARK    3  A    between atoms: S_5  and  C_6 
REMARK    4  A    between atoms: C_6  and  C_7 
REMARK       I    between atoms: C_7  and  N_8 
REMARK    5  A    between atoms: N_8  and  C_9 
REMARK    6  A    between atoms: C_23  and  C_24 
ROOT
HETATM    1  C   UNL     1      25.456  44.383  52.788  1.00  0.00     0.231 C 
HETATM    2  N   UNL     1      26.801  44.607  52.534  1.00  0.00    -0.325 N 
HETATM    3  O   UNL     1      24.983  44.140  53.896  1.00  0.00    -0.272 OA
HETATM    4  H   UNL     1      26.983  45.311  51.816  1.00  0.00     0.169 HD
ENDROOT
BRANCH   2   5
HETATM    5  C   UNL     1      27.798  44.480  53.527  1.00  0.00     0.054 A 
HETATM    6  C   UNL     1      28.704  43.382  53.591  1.00  0.00     0.040 A 
HETATM    7 BR   UNL     1      28.804  42.056  52.224  1.00  0.00    -0.049 Br
HETATM    8  C   UNL     1      29.680  43.304  54.596  1.00  0.00     0.053 A 
HETATM    9  C   UNL     1      29.724  44.339  55.497  1.00  0.00     0.064 A 
HETATM   10  C   UNL     1      28.864  45.432  55.418  1.00  0.00     0.065 A 
HETATM   11  N   UNL     1      30.571  44.537  56.582  1.00  0.00    -0.306 N 
HETATM   12  N   UNL     1      29.174  46.296  56.463  1.00  0.00    -0.306 N 
HETATM   13  C   UNL     1      27.908  45.544  54.438  1.00  0.00     0.063 A 
HETATM   14  C   UNL     1      30.237  45.751  57.199  1.00  0.00     0.325 A 
HETATM   15  H   UNL     1      28.727  47.170  56.686  1.00  0.00     0.170 HD
HETATM   16  O   UNL     1      30.766  46.238  58.181  1.00  0.00    -0.247 OA
HETATM   17  H   UNL     1      31.308  43.931  56.903  1.00  0.00     0.170 HD
ENDBRANCH   2   5
BRANCH   1  18
HETATM   18  C   UNL     1      24.574  44.425  51.552  1.00  0.00     0.185 C 
BRANCH  18  19
HETATM   19  S   UNL     1      25.406  45.167  50.115  1.00  0.00    -0.081 SA
BRANCH  19  20
HETATM   20  C   UNL     1      24.472  46.610  49.970  1.00  0.00     0.192 A 
HETATM   21  N   UNL     1      23.489  46.820  49.046  1.00  0.00    -0.311 N 
HETATM   22  C   UNL     1      23.236  48.169  49.097  1.00  0.00     0.135 A 
HETATM   23  N   UNL     1      23.963  48.710  50.054  1.00  0.00    -0.134 NA
HETATM   24  N   UNL     1      24.738  47.725  50.608  1.00  0.00    -0.123 NA
BRANCH  21  25
HETATM   25  C   UNL     1      22.869  45.856  48.165  1.00  0.00     0.128 C 
HETATM   26  C   UNL     1      21.744  45.085  48.835  1.00  0.00     0.027 C 
ENDBRANCH  21  25
BRANCH  22  27
HETATM   27  C   UNL     1      22.315  48.965  48.182  1.00  0.00     0.057 A 
HETATM   28  C   UNL     1      21.774  50.289  48.677  1.00  0.00     0.013 A 
HETATM   29  C   UNL     1      22.842  50.280  47.639  1.00  0.00     0.013 A 
ENDBRANCH  22  27
ENDBRANCH  19  20
ENDBRANCH  18  19
ENDBRANCH   1  18
TORSDOF 6
ENDMDL
MODEL 6
REMARK VINA RESULT:      -7.9      3.963      5.921
REMARK  6 active torsions:
REMARK  status: ('A' for Active; 'I' for Inactive)
REMARK    1  A    between atoms: C_2  and  N_3 
REMARK    2  A    between atoms: C_4  and  S_5 
REMARK    3  A    between atoms: S_5  and  C_6 
REMARK    4  A    between atoms: C_6  and  C_7 
REMARK       I    between atoms: C_7  and  N_8 
REMARK    5  A    between atoms: N_8  and  C_9 
REMARK    6  A    between atoms: C_23  and  C_24 
ROOT
HETATM    1  C   UNL     1      26.938  44.289  51.393  1.00  0.00     0.231 C 
HETATM    2  N   UNL     1      26.720  44.106  52.750  1.00  0.00    -0.325 N 
HETATM    3  O   UNL     1      27.987  44.700  50.902  1.00  0.00    -0.272 OA
HETATM    4  H   UNL     1      26.141  43.295  52.978  1.00  0.00     0.169 HD
ENDROOT
BRANCH   2   5
HETATM    5  C   UNL     1      27.665  44.474  53.733  1.00  0.00     0.054 A 
HETATM    6  C   UNL     1      27.683  45.753  54.362  1.00  0.00     0.040 A 
HETATM    7 BR   UNL     1      26.307  47.046  54.093  1.00  0.00    -0.049 Br
HETATM    8  C   UNL     1      28.642  46.068  55.337  1.00  0.00     0.053 A 
HETATM    9  C   UNL     1      29.543  45.084  55.660  1.00  0.00     0.064 A 
HETATM   10  C   UNL     1      29.509  43.822  55.073  1.00  0.00     0.065 A 
HETATM   11  N   UNL     1      30.589  45.103  56.576  1.00  0.00    -0.306 N 
HETATM   12  N   UNL     1      30.542  43.068  55.620  1.00  0.00    -0.306 N 
HETATM   13  C   UNL     1      28.574  43.477  54.126  1.00  0.00     0.063 A 
HETATM   14  C   UNL     1      31.225  43.853  56.559  1.00  0.00     0.325 A 
HETATM   15  H   UNL     1      30.788  42.118  55.397  1.00  0.00     0.170 HD
HETATM   16  O   UNL     1      32.184  43.516  57.229  1.00  0.00    -0.247 OA
HETATM   17  H   UNL     1      30.873  45.867  57.166  1.00  0.00     0.170 HD
ENDBRANCH   2   5
BRANCH   1  18
HETATM   18  C   UNL     1      25.738  43.967  50.520  1.00  0.00     0.185 C 
BRANCH  18  19
HETATM   19  S   UNL     1      25.185  42.242  50.687  1.00  0.00    -0.081 SA
BRANCH  19  20
HETATM   20  C   UNL     1      26.707  41.447  50.519  1.00  0.00     0.192 A 
HETATM   21  N   UNL     1      27.224  40.981  49.345  1.00  0.00    -0.311 N 
HETATM   22  C   UNL     1      28.275  40.176  49.714  1.00  0.00     0.135 A 
HETATM   23  N   UNL     1      28.424  40.232  51.022  1.00  0.00    -0.134 NA
HETATM   24  N   UNL     1      27.438  41.039  51.528  1.00  0.00    -0.123 NA
BRANCH  21  25
HETATM   25  C   UNL     1      26.757  41.230  47.999  1.00  0.00     0.128 C 
HETATM   26  C   UNL     1      25.743  40.202  47.528  1.00  0.00     0.027 C 
ENDBRANCH  21  25
BRANCH  22  27
HETATM   27  C   UNL     1      29.125  39.300  48.803  1.00  0.00     0.057 A 
HETATM   28  C   UNL     1      29.866  38.130  49.412  1.00  0.00     0.013 A 
HETATM   29  C   UNL     1      28.658  37.874  48.579  1.00  0.00     0.013 A 
ENDBRANCH  22  27
ENDBRANCH  19  20
ENDBRANCH  18  19
ENDBRANCH   1  18
TORSDOF 6
ENDMDL
MODEL 7
REMARK VINA RESULT:      -7.9      6.317      8.346
REMARK  6 active torsions:
REMARK  status: ('A' for Active; 'I' for Inactive)
REMARK    1  A    between atoms: C_2  and  N_3 
REMARK    2  A    between atoms: C_4  and  S_5 
REMARK    3  A    between atoms: S_5  and  C_6 
REMARK    4  A    between atoms: C_6  and  C_7 
REMARK       I    between atoms: C_7  and  N_8 
REMARK    5  A    between atoms: N_8  and  C_9 
REMARK    6  A    between atoms: C_23  and  C_24 
ROOT
HETATM    1  C   UNL     1      21.090  46.561  48.238  1.00  0.00     0.231 C 
HETATM    2  N   UNL     1      21.593  47.503  49.123  1.00  0.00    -0.325 N 
HETATM    3  O   UNL     1      21.632  46.228  47.187  1.00  0.00    -0.272 OA
HETATM    4  H   UNL     1      21.428  47.287  50.108  1.00  0.00     0.169 HD
ENDROOT
BRANCH   2   5
HETATM    5  C   UNL     1      22.754  48.261  48.855  1.00  0.00     0.054 A 
HETATM    6  C   UNL     1      22.737  49.489  48.130  1.00  0.00     0.040 A 
HETATM    7 BR   UNL     1      21.116  50.351  47.613  1.00  0.00    -0.049 Br
HETATM    8  C   UNL     1      23.919  50.207  47.892  1.00  0.00     0.053 A 
HETATM    9  C   UNL     1      25.078  49.677  48.402  1.00  0.00     0.064 A 
HETATM   10  C   UNL     1      25.096  48.496  49.140  1.00  0.00     0.065 A 
HETATM   11  N   UNL     1      26.381  50.157  48.331  1.00  0.00    -0.306 N 
HETATM   12  N   UNL     1      26.412  48.243  49.512  1.00  0.00    -0.306 N 
HETATM   13  C   UNL     1      23.954  47.777  49.402  1.00  0.00     0.063 A 
HETATM   14  C   UNL     1      27.226  49.271  49.014  1.00  0.00     0.325 A 
HETATM   15  H   UNL     1      26.756  47.461  50.043  1.00  0.00     0.170 HD
HETATM   16  O   UNL     1      28.432  49.373  49.150  1.00  0.00    -0.247 OA
HETATM   17  H   UNL     1      26.702  50.993  47.871  1.00  0.00     0.170 HD
ENDBRANCH   2   5
BRANCH   1  18
HETATM   18  C   UNL     1      19.753  45.969  48.652  1.00  0.00     0.185 C 
BRANCH  18  19
HETATM   19  S   UNL     1      18.372  46.558  47.625  1.00  0.00    -0.081 SA
BRANCH  19  20
HETATM   20  C   UNL     1      18.005  48.018  48.466  1.00  0.00     0.192 A 
HETATM   21  N   UNL     1      17.467  49.138  47.899  1.00  0.00    -0.311 N 
HETATM   22  C   UNL     1      17.626  50.125  48.842  1.00  0.00     0.135 A 
HETATM   23  N   UNL     1      18.147  49.601  49.933  1.00  0.00    -0.134 NA
HETATM   24  N   UNL     1      18.380  48.272  49.697  1.00  0.00    -0.123 NA
BRANCH  21  25
HETATM   25  C   UNL     1      16.893  49.285  46.581  1.00  0.00     0.128 C 
HETATM   26  C   UNL     1      17.899  49.770  45.551  1.00  0.00     0.027 C 
ENDBRANCH  21  25
BRANCH  22  27
HETATM   27  C   UNL     1      17.316  51.607  48.679  1.00  0.00     0.057 A 
HETATM   28  C   UNL     1      17.654  52.544  49.819  1.00  0.00     0.013 A 
HETATM   29  C   UNL     1      18.496  52.557  48.590  1.00  0.00     0.013 A 
ENDBRANCH  22  27
ENDBRANCH  19  20
ENDBRANCH  18  19
ENDBRANCH   1  18
TORSDOF 6
ENDMDL
MODEL 8
REMARK VINA RESULT:      -7.7      3.246      4.400
REMARK  6 active torsions:
REMARK  status: ('A' for Active; 'I' for Inactive)
REMARK    1  A    between atoms: C_2  and  N_3 
REMARK    2  A    between atoms: C_4  and  S_5 
REMARK    3  A    between atoms: S_5  and  C_6 
REMARK    4  A    between atoms: C_6  and  C_7 
REMARK       I    between atoms: C_7  and  N_8 
REMARK    5  A    between atoms: N_8  and  C_9 
REMARK    6  A    between atoms: C_23  and  C_24 
ROOT
HETATM    1  C   UNL     1      25.230  47.050  50.486  1.00  0.00     0.231 C 
HETATM    2  N   UNL     1      25.055  46.081  51.463  1.00  0.00    -0.325 N 
HETATM    3  O   UNL     1      26.296  47.608  50.236  1.00  0.00    -0.272 OA
HETATM    4  H   UNL     1      24.395  45.343  51.211  1.00  0.00     0.169 HD
ENDROOT
BRANCH   2   5
HETATM    5  C   UNL     1      26.082  45.700  52.355  1.00  0.00     0.054 A 
HETATM    6  C   UNL     1      26.945  44.589  52.126  1.00  0.00     0.040 A 
HETATM    7 BR   UNL     1      26.944  43.610  50.489  1.00  0.00    -0.049 Br
HETATM    8  C   UNL     1      27.954  44.253  53.043  1.00  0.00     0.053 A 
HETATM    9  C   UNL     1      28.071  45.053  54.153  1.00  0.00     0.064 A 
HETATM   10  C   UNL     1      27.253  46.159  54.364  1.00  0.00     0.065 A 
HETATM   11  N   UNL     1      28.964  44.970  55.216  1.00  0.00    -0.306 N 
HETATM   12  N   UNL     1      27.634  46.750  55.564  1.00  0.00    -0.306 N 
HETATM   13  C   UNL     1      26.266  46.522  53.479  1.00  0.00     0.063 A 
HETATM   14  C   UNL     1      28.700  46.020  56.108  1.00  0.00     0.325 A 
HETATM   15  H   UNL     1      27.230  47.563  56.000  1.00  0.00     0.170 HD
HETATM   16  O   UNL     1      29.284  46.252  57.151  1.00  0.00    -0.247 OA
HETATM   17  H   UNL     1      29.687  44.285  55.357  1.00  0.00     0.170 HD
ENDBRANCH   2   5
BRANCH   1  18
HETATM   18  C   UNL     1      23.961  47.416  49.737  1.00  0.00     0.185 C 
BRANCH  18  19
HETATM   19  S   UNL     1      24.089  49.007  48.865  1.00  0.00    -0.081 SA
BRANCH  19  20
HETATM   20  C   UNL     1      22.623  49.737  49.405  1.00  0.00     0.192 A 
HETATM   21  N   UNL     1      21.398  49.560  48.828  1.00  0.00    -0.311 N 
HETATM   22  C   UNL     1      20.602  50.536  49.378  1.00  0.00     0.135 A 
HETATM   23  N   UNL     1      21.292  51.195  50.288  1.00  0.00    -0.134 NA
HETATM   24  N   UNL     1      22.563  50.686  50.308  1.00  0.00    -0.123 NA
BRANCH  21  25
HETATM   25  C   UNL     1      21.012  48.594  47.825  1.00  0.00     0.128 C 
HETATM   26  C   UNL     1      20.340  47.367  48.417  1.00  0.00     0.027 C 
ENDBRANCH  21  25
BRANCH  22  27
HETATM   27  C   UNL     1      19.169  50.877  48.992  1.00  0.00     0.057 A 
HETATM   28  C   UNL     1      18.762  52.334  48.943  1.00  0.00     0.013 A 
HETATM   29  C   UNL     1      18.956  51.588  47.669  1.00  0.00     0.013 A 
ENDBRANCH  22  27
ENDBRANCH  19  20
ENDBRANCH  18  19
ENDBRANCH   1  18
TORSDOF 6
ENDMDL
MODEL 9
REMARK VINA RESULT:      -7.6      2.982      8.604
REMARK  6 active torsions:
REMARK  status: ('A' for Active; 'I' for Inactive)
REMARK    1  A    between atoms: C_2  and  N_3 
REMARK    2  A    between atoms: C_4  and  S_5 
REMARK    3  A    between atoms: S_5  and  C_6 
REMARK    4  A    between atoms: C_6  and  C_7 
REMARK       I    between atoms: C_7  and  N_8 
REMARK    5  A    between atoms: N_8  and  C_9 
REMARK    6  A    between atoms: C_23  and  C_24 
ROOT
HETATM    1  C   UNL     1      27.292  44.175  50.688  1.00  0.00     0.231 C 
HETATM    2  N   UNL     1      26.379  45.060  51.240  1.00  0.00    -0.325 N 
HETATM    3  O   UNL     1      27.242  43.741  49.539  1.00  0.00    -0.272 OA
HETATM    4  H   UNL     1      26.787  45.744  51.880  1.00  0.00     0.169 HD
ENDROOT
BRANCH   2   5
HETATM    5  C   UNL     1      25.218  45.486  50.557  1.00  0.00     0.054 A 
HETATM    6  C   UNL     1      25.091  46.770  49.952  1.00  0.00     0.040 A 
HETATM    7 BR   UNL     1      26.552  47.990  49.823  1.00  0.00    -0.049 Br
HETATM    8  C   UNL     1      23.916  47.144  49.281  1.00  0.00     0.053 A 
HETATM    9  C   UNL     1      22.912  46.210  49.227  1.00  0.00     0.064 A 
HETATM   10  C   UNL     1      23.043  44.941  49.786  1.00  0.00     0.065 A 
HETATM   11  N   UNL     1      21.654  46.290  48.638  1.00  0.00    -0.306 N 
HETATM   12  N   UNL     1      21.861  44.246  49.551  1.00  0.00    -0.306 N 
HETATM   13  C   UNL     1      24.185  44.540  50.437  1.00  0.00     0.063 A 
HETATM   14  C   UNL     1      20.985  45.075  48.836  1.00  0.00     0.325 A 
HETATM   15  H   UNL     1      21.638  43.307  49.838  1.00  0.00     0.170 HD
HETATM   16  O   UNL     1      19.861  44.793  48.460  1.00  0.00    -0.247 OA
HETATM   17  H   UNL     1      21.257  47.075  48.147  1.00  0.00     0.170 HD
ENDBRANCH   2   5
BRANCH   1  18
HETATM   18  C   UNL     1      28.386  43.732  51.645  1.00  0.00     0.185 C 
BRANCH  18  19
HETATM   19  S   UNL     1      27.755  42.722  53.019  1.00  0.00    -0.081 SA
BRANCH  19  20
HETATM   20  C   UNL     1      28.772  43.309  54.283  1.00  0.00     0.192 A 
HETATM   21  N   UNL     1      28.521  44.414  55.044  1.00  0.00    -0.311 N 
HETATM   22  C   UNL     1      29.703  44.673  55.695  1.00  0.00     0.135 A 
HETATM   23  N   UNL     1      30.574  43.728  55.403  1.00  0.00    -0.134 NA
HETATM   24  N   UNL     1      29.983  42.865  54.518  1.00  0.00    -0.123 NA
BRANCH  21  25
HETATM   25  C   UNL     1      27.300  45.184  55.127  1.00  0.00     0.128 C 
HETATM   26  C   UNL     1      27.362  46.473  54.326  1.00  0.00     0.027 C 
ENDBRANCH  21  25
BRANCH  22  27
HETATM   27  C   UNL     1      30.021  45.874  56.576  1.00  0.00     0.057 A 
HETATM   28  C   UNL     1      29.167  46.116  57.802  1.00  0.00     0.013 A 
HETATM   29  C   UNL     1      30.551  45.592  57.969  1.00  0.00     0.013 A 
ENDBRANCH  22  27
ENDBRANCH  19  20
ENDBRANCH  18  19
ENDBRANCH   1  18
TORSDOF 6
ENDMDL
MODEL 10
REMARK VINA RESULT:      -7.4      2.784      3.659
REMARK  6 active torsions:
REMARK  status: ('A' for Active; 'I' for Inactive)
REMARK    1  A    between atoms: C_2  and  N_3 
REMARK    2  A    between atoms: C_4  and  S_5 
REMARK    3  A    between atoms: S_5  and  C_6 
REMARK    4  A    between atoms: C_6  and  C_7 
REMARK       I    between atoms: C_7  and  N_8 
REMARK    5  A    between atoms: N_8  and  C_9 
REMARK    6  A    between atoms: C_23  and  C_24 
ROOT
HETATM    1  C   UNL     1      25.948  45.525  50.413  1.00  0.00     0.231 C 
HETATM    2  N   UNL     1      25.705  45.043  51.690  1.00  0.00    -0.325 N 
HETATM    3  O   UNL     1      27.063  45.666  49.917  1.00  0.00    -0.272 OA
HETATM    4  H   UNL     1      24.870  44.459  51.769  1.00  0.00     0.169 HD
ENDROOT
BRANCH   2   5
HETATM    5  C   UNL     1      26.740  44.751  52.607  1.00  0.00     0.054 A 
HETATM    6  C   UNL     1      27.476  43.531  52.593  1.00  0.00     0.040 A 
HETATM    7 BR   UNL     1      27.286  42.235  51.207  1.00  0.00    -0.049 Br
HETATM    8  C   UNL     1      28.498  43.289  53.524  1.00  0.00     0.053 A 
HETATM    9  C   UNL     1      28.757  44.287  54.430  1.00  0.00     0.064 A 
HETATM   10  C   UNL     1      28.063  45.495  54.427  1.00  0.00     0.065 A 
HETATM   11  N   UNL     1      29.697  44.336  55.454  1.00  0.00    -0.306 N 
HETATM   12  N   UNL     1      28.569  46.281  55.457  1.00  0.00    -0.306 N 
HETATM   13  C   UNL     1      27.067  45.767  53.520  1.00  0.00     0.063 A 
HETATM   14  C   UNL     1      29.589  45.572  56.107  1.00  0.00     0.325 A 
HETATM   15  H   UNL     1      28.271  47.206  55.721  1.00  0.00     0.170 HD
HETATM   16  O   UNL     1      30.251  45.955  57.054  1.00  0.00    -0.247 OA
HETATM   17  H   UNL     1      30.357  43.622  55.714  1.00  0.00     0.170 HD
ENDBRANCH   2   5
BRANCH   1  18
HETATM   18  C   UNL     1      24.696  45.917  49.647  1.00  0.00     0.185 C 
BRANCH  18  19
HETATM   19  S   UNL     1      24.466  47.718  49.542  1.00  0.00    -0.081 SA
BRANCH  19  20
HETATM   20  C   UNL     1      22.814  47.758  49.047  1.00  0.00     0.192 A 
HETATM   21  N   UNL     1      21.968  48.816  49.217  1.00  0.00    -0.311 N 
HETATM   22  C   UNL     1      20.715  48.313  48.961  1.00  0.00     0.135 A 
HETATM   23  N   UNL     1      20.823  47.056  48.580  1.00  0.00    -0.134 NA
HETATM   24  N   UNL     1      22.147  46.709  48.628  1.00  0.00    -0.123 NA
BRANCH  21  25
HETATM   25  C   UNL     1      22.293  50.165  49.620  1.00  0.00     0.128 C 
HETATM   26  C   UNL     1      22.774  51.025  48.464  1.00  0.00     0.027 C 
ENDBRANCH  21  25
BRANCH  22  27
HETATM   27  C   UNL     1      19.385  49.035  49.131  1.00  0.00     0.057 A 
HETATM   28  C   UNL     1      18.167  48.223  49.516  1.00  0.00     0.013 A 
HETATM   29  C   UNL     1      18.807  49.105  50.532  1.00  0.00     0.013 A 
ENDBRANCH  22  27
ENDBRANCH  19  20
ENDBRANCH  18  19
ENDBRANCH   1  18
TORSDOF 6
ENDMDL
