MODEL 1
REMARK VINA RESULT:      -9.5      0.000      0.000
REMARK  7 active torsions:
REMARK  status: ('A' for Active; 'I' for Inactive)
REMARK    1  A    between atoms: C_2  and  O_3 
REMARK    2  A    between atoms: O_3  and  C_4 
REMARK    3  A    between atoms: C_7  and  N_8 
REMARK    4  A    between atoms: C_9  and  C_11 
REMARK    5  A    between atoms: C_9  and  O_10 
REMARK       I    between atoms: C_11  and  N_12 
REMARK    6  A    between atoms: N_12  and  C_13 
REMARK    7  A    between atoms: C_13  and  C_14 
ROOT
HETATM    1  N   UNL     1      26.439  42.789  51.771  1.00  0.00    -0.254 N 
HETATM    2  C   UNL     1      27.526  41.873  52.169  1.00  0.00     0.256 C 
HETATM    3  C   UNL     1      27.768  40.762  51.164  1.00  0.00     0.034 A 
HETATM    4  C   UNL     1      26.727  40.412  50.310  1.00  0.00     0.048 A 
HETATM    5  N   UNL     1      25.543  41.135  50.364  1.00  0.00    -0.308 N 
HETATM    6  C   UNL     1      25.357  42.295  51.056  1.00  0.00     0.330 C 
HETATM    7  O   UNL     1      24.267  42.857  50.940  1.00  0.00    -0.246 OA
HETATM    8  C   UNL     1      28.951  40.002  51.112  1.00  0.00     0.015 A 
HETATM    9  C   UNL     1      29.087  38.952  50.200  1.00  0.00     0.001 A 
HETATM   10  C   UNL     1      28.034  38.627  49.348  1.00  0.00     0.002 A 
HETATM   11  C   UNL     1      26.846  39.352  49.409  1.00  0.00     0.030 A 
HETATM   12  H   UNL     1      24.760  40.867  49.782  1.00  0.00     0.170 HD
ENDROOT
BRANCH   2  13
HETATM   13  C   UNL     1      28.898  42.599  52.504  1.00  0.00     0.279 C 
HETATM   14  N   UNL     1      29.356  42.353  53.790  1.00  0.00    -0.352 N 
HETATM   15  H   UNL     1      28.948  41.554  54.267  1.00  0.00     0.162 HD
HETATM   16  O   UNL     1      29.506  43.332  51.725  1.00  0.00    -0.268 OA
BRANCH  14  17
HETATM   17  C   UNL     1      30.617  42.876  54.249  1.00  0.00     0.161 C 
BRANCH  17  18
HETATM   18  C   UNL     1      30.408  43.852  55.375  1.00  0.00    -0.040 A 
HETATM   19  C   UNL     1      31.153  43.748  56.560  1.00  0.00     0.012 A 
HETATM   20  C   UNL     1      30.936  44.642  57.610  1.00  0.00     0.043 A 
HETATM   21  C   UNL     1      29.973  45.635  57.477  1.00  0.00     0.116 A 
HETATM   22  F   UNL     1      29.767  46.493  58.486  1.00  0.00    -0.206 F 
HETATM   23  C   UNL     1      29.217  45.749  56.317  1.00  0.00     0.043 A 
HETATM   24  C   UNL     1      29.429  44.856  55.266  1.00  0.00     0.012 A 
ENDBRANCH  17  18
ENDBRANCH  14  17
ENDBRANCH   2  13
BRANCH   2  25
HETATM   25  O   UNL     1      27.074  41.206  53.365  1.00  0.00    -0.359 OA
HETATM   26  H   UNL     1      26.155  40.965  53.164  1.00  0.00     0.213 HD
ENDBRANCH   2  25
BRANCH   1  27
HETATM   27  C   UNL     1      26.281  44.024  52.477  1.00  0.00     0.043 A 
HETATM   28  C   UNL     1      25.864  44.046  53.814  1.00  0.00     0.032 A 
HETATM   29  C   UNL     1      25.695  45.260  54.495  1.00  0.00     0.039 A 
HETATM   30  C   UNL     1      25.921  46.468  53.840  1.00  0.00     0.068 A 
HETATM   31  C   UNL     1      26.323  46.450  52.504  1.00  0.00     0.039 A 
HETATM   32  C   UNL     1      26.488  45.242  51.823  1.00  0.00     0.032 A 
BRANCH  30  33
HETATM   33  O   UNL     1      25.783  47.717  54.378  1.00  0.00    -0.352 OA
BRANCH  33  34
HETATM   34  C   UNL     1      26.809  48.157  55.265  1.00  0.00     0.171 C 
HETATM   35  C   UNL     1      26.140  48.809  56.461  1.00  0.00     0.034 C 
ENDBRANCH  33  34
ENDBRANCH  30  33
ENDBRANCH   1  27
TORSDOF 7
ENDMDL
MODEL 2
REMARK VINA RESULT:      -9.0      2.265      3.411
REMARK  7 active torsions:
REMARK  status: ('A' for Active; 'I' for Inactive)
REMARK    1  A    between atoms: C_2  and  O_3 
REMARK    2  A    between atoms: O_3  and  C_4 
REMARK    3  A    between atoms: C_7  and  N_8 
REMARK    4  A    between atoms: C_9  and  C_11 
REMARK    5  A    between atoms: C_9  and  O_10 
REMARK       I    between atoms: C_11  and  N_12 
REMARK    6  A    between atoms: N_12  and  C_13 
REMARK    7  A    between atoms: C_13  and  C_14 
ROOT
HETATM    1  N   UNL     1      26.876  41.893  49.868  1.00  0.00    -0.254 N 
HETATM    2  C   UNL     1      27.392  41.093  50.997  1.00  0.00     0.256 C 
HETATM    3  C   UNL     1      28.300  39.958  50.559  1.00  0.00     0.034 A 
HETATM    4  C   UNL     1      28.171  39.480  49.259  1.00  0.00     0.048 A 
HETATM    5  N   UNL     1      27.274  40.101  48.401  1.00  0.00    -0.308 N 
HETATM    6  C   UNL     1      26.625  41.274  48.651  1.00  0.00     0.330 C 
HETATM    7  O   UNL     1      25.918  41.735  47.754  1.00  0.00    -0.246 OA
HETATM    8  C   UNL     1      29.195  39.301  51.421  1.00  0.00     0.015 A 
HETATM    9  C   UNL     1      29.961  38.222  50.970  1.00  0.00     0.001 A 
HETATM   10  C   UNL     1      29.822  37.768  49.661  1.00  0.00     0.002 A 
HETATM   11  C   UNL     1      28.917  38.391  48.805  1.00  0.00     0.030 A 
HETATM   12  H   UNL     1      27.135  39.740  47.466  1.00  0.00     0.170 HD
ENDROOT
BRANCH   2  13
HETATM   13  C   UNL     1      28.111  41.949  52.125  1.00  0.00     0.279 C 
HETATM   14  N   UNL     1      27.359  42.085  53.282  1.00  0.00    -0.352 N 
HETATM   15  H   UNL     1      26.594  41.427  53.400  1.00  0.00     0.162 HD
HETATM   16  O   UNL     1      29.218  42.471  52.002  1.00  0.00    -0.268 OA
BRANCH  14  17
HETATM   17  C   UNL     1      27.878  42.773  54.436  1.00  0.00     0.161 C 
BRANCH  17  18
HETATM   18  C   UNL     1      27.426  44.208  54.444  1.00  0.00    -0.040 A 
HETATM   19  C   UNL     1      28.305  45.234  54.825  1.00  0.00     0.012 A 
HETATM   20  C   UNL     1      27.871  46.561  54.853  1.00  0.00     0.043 A 
HETATM   21  C   UNL     1      26.559  46.861  54.507  1.00  0.00     0.116 A 
HETATM   22  F   UNL     1      26.146  48.135  54.534  1.00  0.00    -0.206 F 
HETATM   23  C   UNL     1      25.670  45.860  54.137  1.00  0.00     0.043 A 
HETATM   24  C   UNL     1      26.099  44.533  54.109  1.00  0.00     0.012 A 
ENDBRANCH  17  18
ENDBRANCH  14  17
ENDBRANCH   2  13
BRANCH   2  25
HETATM   25  O   UNL     1      26.246  40.450  51.591  1.00  0.00    -0.359 OA
HETATM   26  H   UNL     1      25.608  41.173  51.708  1.00  0.00     0.213 HD
ENDBRANCH   2  25
BRANCH   1  27
HETATM   27  C   UNL     1      26.236  43.144  50.140  1.00  0.00     0.043 A 
HETATM   28  C   UNL     1      24.909  43.196  50.588  1.00  0.00     0.032 A 
HETATM   29  C   UNL     1      24.282  44.424  50.838  1.00  0.00     0.039 A 
HETATM   30  C   UNL     1      24.968  45.617  50.621  1.00  0.00     0.068 A 
HETATM   31  C   UNL     1      26.284  45.570  50.161  1.00  0.00     0.039 A 
HETATM   32  C   UNL     1      26.909  44.346  49.909  1.00  0.00     0.032 A 
BRANCH  30  33
HETATM   33  O   UNL     1      24.475  46.878  50.811  1.00  0.00    -0.352 OA
BRANCH  33  34
HETATM   34  C   UNL     1      24.487  47.754  49.686  1.00  0.00     0.171 C 
HETATM   35  C   UNL     1      23.058  47.899  49.194  1.00  0.00     0.034 C 
ENDBRANCH  33  34
ENDBRANCH  30  33
ENDBRANCH   1  27
TORSDOF 7
ENDMDL
MODEL 3
REMARK VINA RESULT:      -8.9      2.687      3.774
REMARK  7 active torsions:
REMARK  status: ('A' for Active; 'I' for Inactive)
REMARK    1  A    between atoms: C_2  and  O_3 
REMARK    2  A    between atoms: O_3  and  C_4 
REMARK    3  A    between atoms: C_7  and  N_8 
REMARK    4  A    between atoms: C_9  and  C_11 
REMARK    5  A    between atoms: C_9  and  O_10 
REMARK       I    between atoms: C_11  and  N_12 
REMARK    6  A    between atoms: N_12  and  C_13 
REMARK    7  A    between atoms: C_13  and  C_14 
ROOT
HETATM    1  N   UNL     1      26.344  44.312  50.793  1.00  0.00    -0.254 N 
HETATM    2  C   UNL     1      26.234  43.823  52.182  1.00  0.00     0.256 C 
HETATM    3  C   UNL     1      27.163  42.662  52.482  1.00  0.00     0.034 A 
HETATM    4  C   UNL     1      27.610  41.888  51.415  1.00  0.00     0.048 A 
HETATM    5  N   UNL     1      27.247  42.248  50.125  1.00  0.00    -0.308 N 
HETATM    6  C   UNL     1      26.635  43.415  49.774  1.00  0.00     0.330 C 
HETATM    7  O   UNL     1      26.448  43.621  48.574  1.00  0.00    -0.246 OA
HETATM    8  C   UNL     1      27.521  42.266  53.783  1.00  0.00     0.015 A 
HETATM    9  C   UNL     1      28.335  41.149  53.993  1.00  0.00     0.001 A 
HETATM   10  C   UNL     1      28.778  40.396  52.909  1.00  0.00     0.002 A 
HETATM   11  C   UNL     1      28.407  40.759  51.616  1.00  0.00     0.030 A 
HETATM   12  H   UNL     1      27.526  41.672  49.342  1.00  0.00     0.170 HD
ENDROOT
BRANCH   2  13
HETATM   13  C   UNL     1      26.414  44.952  53.285  1.00  0.00     0.279 C 
HETATM   14  N   UNL     1      27.716  45.074  53.745  1.00  0.00    -0.352 N 
HETATM   15  H   UNL     1      28.439  44.656  53.166  1.00  0.00     0.162 HD
HETATM   16  O   UNL     1      25.500  45.650  53.721  1.00  0.00    -0.268 OA
BRANCH  14  17
HETATM   17  C   UNL     1      28.081  46.090  54.699  1.00  0.00     0.161 C 
BRANCH  17  18
HETATM   18  C   UNL     1      29.087  45.556  55.683  1.00  0.00    -0.040 A 
HETATM   19  C   UNL     1      29.226  46.139  56.952  1.00  0.00     0.012 A 
HETATM   20  C   UNL     1      30.179  45.654  57.851  1.00  0.00     0.043 A 
HETATM   21  C   UNL     1      30.994  44.591  57.479  1.00  0.00     0.116 A 
HETATM   22  F   UNL     1      31.906  44.127  58.342  1.00  0.00    -0.206 F 
HETATM   23  C   UNL     1      30.879  44.007  56.223  1.00  0.00     0.043 A 
HETATM   24  C   UNL     1      29.930  44.490  55.322  1.00  0.00     0.012 A 
ENDBRANCH  17  18
ENDBRANCH  14  17
ENDBRANCH   2  13
BRANCH   2  25
HETATM   25  O   UNL     1      24.903  43.283  52.314  1.00  0.00    -0.359 OA
HETATM   26  H   UNL     1      25.009  42.344  52.091  1.00  0.00     0.213 HD
ENDBRANCH   2  25
BRANCH   1  27
HETATM   27  C   UNL     1      25.735  45.560  50.448  1.00  0.00     0.043 A 
HETATM   28  C   UNL     1      24.362  45.647  50.182  1.00  0.00     0.032 A 
HETATM   29  C   UNL     1      23.773  46.869  49.829  1.00  0.00     0.039 A 
HETATM   30  C   UNL     1      24.556  48.016  49.714  1.00  0.00     0.068 A 
HETATM   31  C   UNL     1      25.926  47.930  49.962  1.00  0.00     0.039 A 
HETATM   32  C   UNL     1      26.514  46.712  50.312  1.00  0.00     0.032 A 
BRANCH  30  33
HETATM   33  O   UNL     1      24.116  49.262  49.366  1.00  0.00    -0.352 OA
BRANCH  33  34
HETATM   34  C   UNL     1      22.707  49.439  49.238  1.00  0.00     0.171 C 
HETATM   35  C   UNL     1      22.453  50.886  48.855  1.00  0.00     0.034 C 
ENDBRANCH  33  34
ENDBRANCH  30  33
ENDBRANCH   1  27
TORSDOF 7
ENDMDL
MODEL 4
REMARK VINA RESULT:      -8.8      2.176      4.758
REMARK  7 active torsions:
REMARK  status: ('A' for Active; 'I' for Inactive)
REMARK    1  A    between atoms: C_2  and  O_3 
REMARK    2  A    between atoms: O_3  and  C_4 
REMARK    3  A    between atoms: C_7  and  N_8 
REMARK    4  A    between atoms: C_9  and  C_11 
REMARK    5  A    between atoms: C_9  and  O_10 
REMARK       I    between atoms: C_11  and  N_12 
REMARK    6  A    between atoms: N_12  and  C_13 
REMARK    7  A    between atoms: C_13  and  C_14 
ROOT
HETATM    1  N   UNL     1      27.141  42.235  50.692  1.00  0.00    -0.254 N 
HETATM    2  C   UNL     1      26.329  43.375  50.221  1.00  0.00     0.256 C 
HETATM    3  C   UNL     1      25.330  42.992  49.145  1.00  0.00     0.034 A 
HETATM    4  C   UNL     1      25.585  41.852  48.390  1.00  0.00     0.048 A 
HETATM    5  N   UNL     1      26.696  41.078  48.696  1.00  0.00    -0.308 N 
HETATM    6  C   UNL     1      27.479  41.224  49.803  1.00  0.00     0.330 C 
HETATM    7  O   UNL     1      28.385  40.407  49.970  1.00  0.00    -0.246 OA
HETATM    8  C   UNL     1      24.213  43.777  48.804  1.00  0.00     0.015 A 
HETATM    9  C   UNL     1      23.364  43.396  47.761  1.00  0.00     0.001 A 
HETATM   10  C   UNL     1      23.634  42.245  47.026  1.00  0.00     0.002 A 
HETATM   11  C   UNL     1      24.753  41.474  47.334  1.00  0.00     0.030 A 
HETATM   12  H   UNL     1      26.921  40.270  48.131  1.00  0.00     0.170 HD
ENDROOT
BRANCH   2  13
HETATM   13  C   UNL     1      25.589  44.168  51.381  1.00  0.00     0.279 C 
HETATM   14  N   UNL     1      26.004  45.486  51.504  1.00  0.00    -0.352 N 
HETATM   15  H   UNL     1      26.500  45.877  50.708  1.00  0.00     0.162 HD
HETATM   16  O   UNL     1      24.741  43.680  52.127  1.00  0.00    -0.268 OA
BRANCH  14  17
HETATM   17  C   UNL     1      25.396  46.376  52.459  1.00  0.00     0.161 C 
BRANCH  17  18
HETATM   18  C   UNL     1      26.243  46.482  53.698  1.00  0.00    -0.040 A 
HETATM   19  C   UNL     1      26.301  47.681  54.426  1.00  0.00     0.012 A 
HETATM   20  C   UNL     1      27.108  47.779  55.561  1.00  0.00     0.043 A 
HETATM   21  C   UNL     1      27.861  46.683  55.964  1.00  0.00     0.116 A 
HETATM   22  F   UNL     1      28.634  46.779  57.054  1.00  0.00    -0.206 F 
HETATM   23  C   UNL     1      27.826  45.490  55.252  1.00  0.00     0.043 A 
HETATM   24  C   UNL     1      27.022  45.388  54.116  1.00  0.00     0.012 A 
ENDBRANCH  17  18
ENDBRANCH  14  17
ENDBRANCH   2  13
BRANCH   2  25
HETATM   25  O   UNL     1      27.245  44.284  49.578  1.00  0.00    -0.359 OA
HETATM   26  H   UNL     1      27.226  44.013  48.645  1.00  0.00     0.213 HD
ENDBRANCH   2  25
BRANCH   1  27
HETATM   27  C   UNL     1      27.925  42.387  51.880  1.00  0.00     0.043 A 
HETATM   28  C   UNL     1      29.096  43.157  51.882  1.00  0.00     0.032 A 
HETATM   29  C   UNL     1      29.868  43.289  53.044  1.00  0.00     0.039 A 
HETATM   30  C   UNL     1      29.491  42.633  54.214  1.00  0.00     0.068 A 
HETATM   31  C   UNL     1      28.334  41.854  54.211  1.00  0.00     0.039 A 
HETATM   32  C   UNL     1      27.565  41.719  53.053  1.00  0.00     0.032 A 
BRANCH  30  33
HETATM   33  O   UNL     1      30.155  42.665  55.407  1.00  0.00    -0.352 OA
BRANCH  33  34
HETATM   34  C   UNL     1      30.960  43.812  55.670  1.00  0.00     0.171 C 
HETATM   35  C   UNL     1      31.648  43.601  57.007  1.00  0.00     0.034 C 
ENDBRANCH  33  34
ENDBRANCH  30  33
ENDBRANCH   1  27
TORSDOF 7
ENDMDL
MODEL 5
REMARK VINA RESULT:      -8.8      3.261      7.873
REMARK  7 active torsions:
REMARK  status: ('A' for Active; 'I' for Inactive)
REMARK    1  A    between atoms: C_2  and  O_3 
REMARK    2  A    between atoms: O_3  and  C_4 
REMARK    3  A    between atoms: C_7  and  N_8 
REMARK    4  A    between atoms: C_9  and  C_11 
REMARK    5  A    between atoms: C_9  and  O_10 
REMARK       I    between atoms: C_11  and  N_12 
REMARK    6  A    between atoms: N_12  and  C_13 
REMARK    7  A    between atoms: C_13  and  C_14 
ROOT
HETATM    1  N   UNL     1      27.401  43.486  52.302  1.00  0.00    -0.254 N 
HETATM    2  C   UNL     1      26.322  44.216  52.997  1.00  0.00     0.256 C 
HETATM    3  C   UNL     1      26.830  45.366  53.847  1.00  0.00     0.034 A 
HETATM    4  C   UNL     1      28.150  45.325  54.283  1.00  0.00     0.048 A 
HETATM    5  N   UNL     1      28.962  44.278  53.869  1.00  0.00    -0.308 N 
HETATM    6  C   UNL     1      28.643  43.363  52.909  1.00  0.00     0.330 C 
HETATM    7  O   UNL     1      29.505  42.540  52.600  1.00  0.00    -0.246 OA
HETATM    8  C   UNL     1      26.016  46.422  54.297  1.00  0.00     0.015 A 
HETATM    9  C   UNL     1      26.534  47.419  55.127  1.00  0.00     0.001 A 
HETATM   10  C   UNL     1      27.861  47.362  55.543  1.00  0.00     0.002 A 
HETATM   11  C   UNL     1      28.671  46.307  55.128  1.00  0.00     0.030 A 
HETATM   12  H   UNL     1      29.911  44.208  54.211  1.00  0.00     0.170 HD
ENDROOT
BRANCH   2  13
HETATM   13  C   UNL     1      25.163  44.729  52.039  1.00  0.00     0.279 C 
HETATM   14  N   UNL     1      25.494  45.877  51.334  1.00  0.00    -0.352 N 
HETATM   15  H   UNL     1      26.483  46.103  51.282  1.00  0.00     0.162 HD
HETATM   16  O   UNL     1      24.062  44.192  51.931  1.00  0.00    -0.268 OA
BRANCH  14  17
HETATM   17  C   UNL     1      24.591  46.449  50.369  1.00  0.00     0.161 C 
BRANCH  17  18
HETATM   18  C   UNL     1      25.211  47.652  49.711  1.00  0.00    -0.040 A 
HETATM   19  C   UNL     1      24.408  48.624  49.094  1.00  0.00     0.012 A 
HETATM   20  C   UNL     1      24.992  49.725  48.464  1.00  0.00     0.043 A 
HETATM   21  C   UNL     1      26.376  49.851  48.448  1.00  0.00     0.116 A 
HETATM   22  F   UNL     1      26.933  50.909  47.844  1.00  0.00    -0.206 F 
HETATM   23  C   UNL     1      27.189  48.895  49.043  1.00  0.00     0.043 A 
HETATM   24  C   UNL     1      26.609  47.792  49.672  1.00  0.00     0.012 A 
ENDBRANCH  17  18
ENDBRANCH  14  17
ENDBRANCH   2  13
BRANCH   2  25
HETATM   25  O   UNL     1      25.743  43.284  53.933  1.00  0.00    -0.359 OA
HETATM   26  H   UNL     1      24.851  43.126  53.583  1.00  0.00     0.213 HD
ENDBRANCH   2  25
BRANCH   1  27
HETATM   27  C   UNL     1      27.055  42.561  51.266  1.00  0.00     0.043 A 
HETATM   28  C   UNL     1      27.047  42.952  49.920  1.00  0.00     0.032 A 
HETATM   29  C   UNL     1      26.692  42.047  48.910  1.00  0.00     0.039 A 
HETATM   30  C   UNL     1      26.319  40.745  49.236  1.00  0.00     0.068 A 
HETATM   31  C   UNL     1      26.312  40.357  50.576  1.00  0.00     0.039 A 
HETATM   32  C   UNL     1      26.663  41.259  51.584  1.00  0.00     0.032 A 
BRANCH  30  33
HETATM   33  O   UNL     1      25.940  39.770  48.358  1.00  0.00    -0.352 OA
BRANCH  33  34
HETATM   34  C   UNL     1      26.622  38.521  48.441  1.00  0.00     0.171 C 
HETATM   35  C   UNL     1      27.924  38.651  47.671  1.00  0.00     0.034 C 
ENDBRANCH  33  34
ENDBRANCH  30  33
ENDBRANCH   1  27
TORSDOF 7
ENDMDL
MODEL 6
REMARK VINA RESULT:      -8.4     13.828     15.265
REMARK  7 active torsions:
REMARK  status: ('A' for Active; 'I' for Inactive)
REMARK    1  A    between atoms: C_2  and  O_3 
REMARK    2  A    between atoms: O_3  and  C_4 
REMARK    3  A    between atoms: C_7  and  N_8 
REMARK    4  A    between atoms: C_9  and  C_11 
REMARK    5  A    between atoms: C_9  and  O_10 
REMARK       I    between atoms: C_11  and  N_12 
REMARK    6  A    between atoms: N_12  and  C_13 
REMARK    7  A    between atoms: C_13  and  C_14 
ROOT
HETATM    1  N   UNL     1      28.430  50.701  39.481  1.00  0.00    -0.254 N 
HETATM    2  C   UNL     1      27.972  49.786  40.545  1.00  0.00     0.256 C 
HETATM    3  C   UNL     1      26.826  48.890  40.110  1.00  0.00     0.034 A 
HETATM    4  C   UNL     1      26.033  49.311  39.047  1.00  0.00     0.048 A 
HETATM    5  N   UNL     1      26.360  50.489  38.389  1.00  0.00    -0.308 N 
HETATM    6  C   UNL     1      27.513  51.196  38.563  1.00  0.00     0.330 C 
HETATM    7  O   UNL     1      27.690  52.181  37.846  1.00  0.00    -0.246 OA
HETATM    8  C   UNL     1      26.464  47.708  40.780  1.00  0.00     0.015 A 
HETATM    9  C   UNL     1      25.360  46.960  40.363  1.00  0.00     0.001 A 
HETATM   10  C   UNL     1      24.586  47.396  39.290  1.00  0.00     0.002 A 
HETATM   11  C   UNL     1      24.916  48.580  38.636  1.00  0.00     0.030 A 
HETATM   12  H   UNL     1      25.770  50.833  37.644  1.00  0.00     0.170 HD
ENDROOT
BRANCH   2  13
HETATM   13  C   UNL     1      29.127  48.904  41.186  1.00  0.00     0.279 C 
HETATM   14  N   UNL     1      29.911  49.595  42.097  1.00  0.00    -0.352 N 
HETATM   15  H   UNL     1      29.521  50.460  42.461  1.00  0.00     0.162 HD
HETATM   16  O   UNL     1      29.341  47.727  40.903  1.00  0.00    -0.268 OA
BRANCH  14  17
HETATM   17  C   UNL     1      30.965  48.939  42.827  1.00  0.00     0.161 C 
BRANCH  17  18
HETATM   18  C   UNL     1      32.229  49.754  42.779  1.00  0.00    -0.040 A 
HETATM   19  C   UNL     1      32.389  50.877  43.607  1.00  0.00     0.012 A 
HETATM   20  C   UNL     1      33.554  51.643  43.539  1.00  0.00     0.043 A 
HETATM   21  C   UNL     1      34.555  51.291  42.642  1.00  0.00     0.116 A 
HETATM   22  F   UNL     1      35.673  52.027  42.579  1.00  0.00    -0.206 F 
HETATM   23  C   UNL     1      34.413  50.190  41.807  1.00  0.00     0.043 A 
HETATM   24  C   UNL     1      33.249  49.423  41.870  1.00  0.00     0.012 A 
ENDBRANCH  17  18
ENDBRANCH  14  17
ENDBRANCH   2  13
BRANCH   2  25
HETATM   25  O   UNL     1      27.423  50.621  41.584  1.00  0.00    -0.359 OA
HETATM   26  H   UNL     1      26.925  50.001  42.143  1.00  0.00     0.213 HD
ENDBRANCH   2  25
BRANCH   1  27
HETATM   27  C   UNL     1      29.664  51.404  39.656  1.00  0.00     0.043 A 
HETATM   28  C   UNL     1      29.741  52.541  40.472  1.00  0.00     0.032 A 
HETATM   29  C   UNL     1      30.948  53.235  40.628  1.00  0.00     0.039 A 
HETATM   30  C   UNL     1      32.091  52.814  39.950  1.00  0.00     0.068 A 
HETATM   31  C   UNL     1      32.014  51.692  39.124  1.00  0.00     0.039 A 
HETATM   32  C   UNL     1      30.811  51.001  38.966  1.00  0.00     0.032 A 
BRANCH  30  33
HETATM   33  O   UNL     1      33.323  53.403  40.000  1.00  0.00    -0.352 OA
BRANCH  33  34
HETATM   34  C   UNL     1      34.360  52.803  39.227  1.00  0.00     0.171 C 
HETATM   35  C   UNL     1      35.646  53.556  39.512  1.00  0.00     0.034 C 
ENDBRANCH  33  34
ENDBRANCH  30  33
ENDBRANCH   1  27
TORSDOF 7
ENDMDL
MODEL 7
REMARK VINA RESULT:      -8.2      3.389      6.104
REMARK  7 active torsions:
REMARK  status: ('A' for Active; 'I' for Inactive)
REMARK    1  A    between atoms: C_2  and  O_3 
REMARK    2  A    between atoms: O_3  and  C_4 
REMARK    3  A    between atoms: C_7  and  N_8 
REMARK    4  A    between atoms: C_9  and  C_11 
REMARK    5  A    between atoms: C_9  and  O_10 
REMARK       I    between atoms: C_11  and  N_12 
REMARK    6  A    between atoms: N_12  and  C_13 
REMARK    7  A    between atoms: C_13  and  C_14 
ROOT
HETATM    1  N   UNL     1      27.300  42.056  51.369  1.00  0.00    -0.254 N 
HETATM    2  C   UNL     1      26.524  42.873  50.414  1.00  0.00     0.256 C 
HETATM    3  C   UNL     1      25.722  42.041  49.430  1.00  0.00     0.034 A 
HETATM    4  C   UNL     1      26.138  40.737  49.183  1.00  0.00     0.048 A 
HETATM    5  N   UNL     1      27.220  40.231  49.891  1.00  0.00    -0.308 N 
HETATM    6  C   UNL     1      27.814  40.833  50.961  1.00  0.00     0.330 C 
HETATM    7  O   UNL     1      28.716  40.217  51.530  1.00  0.00    -0.246 OA
HETATM    8  C   UNL     1      24.640  42.544  48.685  1.00  0.00     0.015 A 
HETATM    9  C   UNL     1      23.981  41.741  47.750  1.00  0.00     0.001 A 
HETATM   10  C   UNL     1      24.410  40.435  47.527  1.00  0.00     0.002 A 
HETATM   11  C   UNL     1      25.498  39.933  48.237  1.00  0.00     0.030 A 
HETATM   12  H   UNL     1      27.563  39.301  49.692  1.00  0.00     0.170 HD
ENDROOT
BRANCH   2  13
HETATM   13  C   UNL     1      25.580  43.951  51.098  1.00  0.00     0.279 C 
HETATM   14  N   UNL     1      25.952  45.260  50.835  1.00  0.00    -0.352 N 
HETATM   15  H   UNL     1      26.578  45.400  50.048  1.00  0.00     0.162 HD
HETATM   16  O   UNL     1      24.618  43.678  51.815  1.00  0.00    -0.268 OA
BRANCH  14  17
HETATM   17  C   UNL     1      25.173  46.372  51.319  1.00  0.00     0.161 C 
BRANCH  17  18
HETATM   18  C   UNL     1      25.182  47.499  50.323  1.00  0.00    -0.040 A 
HETATM   19  C   UNL     1      23.981  47.991  49.788  1.00  0.00     0.012 A 
HETATM   20  C   UNL     1      23.998  49.021  48.845  1.00  0.00     0.043 A 
HETATM   21  C   UNL     1      25.214  49.553  48.433  1.00  0.00     0.116 A 
HETATM   22  F   UNL     1      25.229  50.541  47.529  1.00  0.00    -0.206 F 
HETATM   23  C   UNL     1      26.415  49.072  48.941  1.00  0.00     0.043 A 
HETATM   24  C   UNL     1      26.402  48.042  49.882  1.00  0.00     0.012 A 
ENDBRANCH  17  18
ENDBRANCH  14  17
ENDBRANCH   2  13
BRANCH   2  25
HETATM   25  O   UNL     1      27.491  43.578  49.609  1.00  0.00    -0.359 OA
HETATM   26  H   UNL     1      27.003  44.351  49.282  1.00  0.00     0.213 HD
ENDBRANCH   2  25
BRANCH   1  27
HETATM   27  C   UNL     1      27.882  42.692  52.511  1.00  0.00     0.043 A 
HETATM   28  C   UNL     1      27.139  42.897  53.682  1.00  0.00     0.032 A 
HETATM   29  C   UNL     1      27.709  43.535  54.792  1.00  0.00     0.039 A 
HETATM   30  C   UNL     1      29.022  43.996  54.737  1.00  0.00     0.068 A 
HETATM   31  C   UNL     1      29.759  43.807  53.568  1.00  0.00     0.039 A 
HETATM   32  C   UNL     1      29.192  43.174  52.460  1.00  0.00     0.032 A 
BRANCH  30  33
HETATM   33  O   UNL     1      29.693  44.643  55.737  1.00  0.00    -0.352 OA
BRANCH  33  34
HETATM   34  C   UNL     1      31.089  44.376  55.858  1.00  0.00     0.171 C 
HETATM   35  C   UNL     1      31.258  43.216  56.822  1.00  0.00     0.034 C 
ENDBRANCH  33  34
ENDBRANCH  30  33
ENDBRANCH   1  27
TORSDOF 7
ENDMDL
MODEL 8
REMARK VINA RESULT:      -8.1     14.675     16.981
REMARK  7 active torsions:
REMARK  status: ('A' for Active; 'I' for Inactive)
REMARK    1  A    between atoms: C_2  and  O_3 
REMARK    2  A    between atoms: O_3  and  C_4 
REMARK    3  A    between atoms: C_7  and  N_8 
REMARK    4  A    between atoms: C_9  and  C_11 
REMARK    5  A    between atoms: C_9  and  O_10 
REMARK       I    between atoms: C_11  and  N_12 
REMARK    6  A    between atoms: N_12  and  C_13 
REMARK    7  A    between atoms: C_13  and  C_14 
ROOT
HETATM    1  N   UNL     1      40.708  43.738  65.106  1.00  0.00    -0.254 N 
HETATM    2  C   UNL     1      40.164  43.183  63.850  1.00  0.00     0.256 C 
HETATM    3  C   UNL     1      40.127  41.666  63.833  1.00  0.00     0.034 A 
HETATM    4  C   UNL     1      40.995  40.981  64.677  1.00  0.00     0.048 A 
HETATM    5  N   UNL     1      41.804  41.706  65.543  1.00  0.00    -0.308 N 
HETATM    6  C   UNL     1      41.699  43.043  65.786  1.00  0.00     0.330 C 
HETATM    7  O   UNL     1      42.442  43.525  66.642  1.00  0.00    -0.246 OA
HETATM    8  C   UNL     1      39.335  40.916  62.946  1.00  0.00     0.015 A 
HETATM    9  C   UNL     1      39.393  39.519  62.943  1.00  0.00     0.001 A 
HETATM   10  C   UNL     1      40.262  38.855  63.803  1.00  0.00     0.002 A 
HETATM   11  C   UNL     1      41.074  39.587  64.667  1.00  0.00     0.030 A 
HETATM   12  H   UNL     1      42.472  41.226  66.131  1.00  0.00     0.170 HD
ENDROOT
BRANCH   2  13
HETATM   13  C   UNL     1      38.738  43.758  63.450  1.00  0.00     0.279 C 
HETATM   14  N   UNL     1      37.766  43.550  64.417  1.00  0.00    -0.352 N 
HETATM   15  H   UNL     1      38.100  43.323  65.349  1.00  0.00     0.162 HD
HETATM   16  O   UNL     1      38.487  44.317  62.384  1.00  0.00    -0.268 OA
BRANCH  14  17
HETATM   17  C   UNL     1      36.428  44.061  64.256  1.00  0.00     0.161 C 
BRANCH  17  18
HETATM   18  C   UNL     1      36.250  45.335  65.037  1.00  0.00    -0.040 A 
HETATM   19  C   UNL     1      36.519  46.580  64.447  1.00  0.00     0.012 A 
HETATM   20  C   UNL     1      36.374  47.757  65.185  1.00  0.00     0.043 A 
HETATM   21  C   UNL     1      35.968  47.688  66.512  1.00  0.00     0.116 A 
HETATM   22  F   UNL     1      35.830  48.817  67.218  1.00  0.00    -0.206 F 
HETATM   23  C   UNL     1      35.708  46.465  67.119  1.00  0.00     0.043 A 
HETATM   24  C   UNL     1      35.853  45.287  66.385  1.00  0.00     0.012 A 
ENDBRANCH  17  18
ENDBRANCH  14  17
ENDBRANCH   2  13
BRANCH   2  25
HETATM   25  O   UNL     1      41.095  43.549  62.812  1.00  0.00    -0.359 OA
HETATM   26  H   UNL     1      40.581  43.457  61.993  1.00  0.00     0.213 HD
ENDBRANCH   2  25
BRANCH   1  27
HETATM   27  C   UNL     1      40.553  45.136  65.370  1.00  0.00     0.043 A 
HETATM   28  C   UNL     1      39.758  45.588  66.431  1.00  0.00     0.032 A 
HETATM   29  C   UNL     1      39.596  46.959  66.676  1.00  0.00     0.039 A 
HETATM   30  C   UNL     1      40.210  47.895  65.847  1.00  0.00     0.068 A 
HETATM   31  C   UNL     1      40.990  47.449  64.780  1.00  0.00     0.039 A 
HETATM   32  C   UNL     1      41.150  46.083  64.534  1.00  0.00     0.032 A 
BRANCH  30  33
HETATM   33  O   UNL     1      40.126  49.254  65.963  1.00  0.00    -0.352 OA
BRANCH  33  34
HETATM   34  C   UNL     1      39.115  49.770  66.825  1.00  0.00     0.171 C 
HETATM   35  C   UNL     1      38.330  50.813  66.051  1.00  0.00     0.034 C 
ENDBRANCH  33  34
ENDBRANCH  30  33
ENDBRANCH   1  27
TORSDOF 7
ENDMDL
MODEL 9
REMARK VINA RESULT:      -7.9      5.699      9.235
REMARK  7 active torsions:
REMARK  status: ('A' for Active; 'I' for Inactive)
REMARK    1  A    between atoms: C_2  and  O_3 
REMARK    2  A    between atoms: O_3  and  C_4 
REMARK    3  A    between atoms: C_7  and  N_8 
REMARK    4  A    between atoms: C_9  and  C_11 
REMARK    5  A    between atoms: C_9  and  O_10 
REMARK       I    between atoms: C_11  and  N_12 
REMARK    6  A    between atoms: N_12  and  C_13 
REMARK    7  A    between atoms: C_13  and  C_14 
ROOT
HETATM    1  N   UNL     1      21.089  46.185  48.573  1.00  0.00    -0.254 N 
HETATM    2  C   UNL     1      21.539  47.579  48.389  1.00  0.00     0.256 C 
HETATM    3  C   UNL     1      20.654  48.591  49.094  1.00  0.00     0.034 A 
HETATM    4  C   UNL     1      19.342  48.226  49.380  1.00  0.00     0.048 A 
HETATM    5  N   UNL     1      18.921  46.939  49.076  1.00  0.00    -0.308 N 
HETATM    6  C   UNL     1      19.732  45.915  48.685  1.00  0.00     0.330 C 
HETATM    7  O   UNL     1      19.214  44.808  48.527  1.00  0.00    -0.246 OA
HETATM    8  C   UNL     1      21.055  49.907  49.386  1.00  0.00     0.015 A 
HETATM    9  C   UNL     1      20.169  50.808  49.983  1.00  0.00     0.001 A 
HETATM   10  C   UNL     1      18.864  50.417  50.270  1.00  0.00     0.002 A 
HETATM   11  C   UNL     1      18.445  49.126  49.959  1.00  0.00     0.030 A 
HETATM   12  H   UNL     1      17.959  46.670  49.237  1.00  0.00     0.170 HD
ENDROOT
BRANCH   2  13
HETATM   13  C   UNL     1      23.057  47.829  48.784  1.00  0.00     0.279 C 
HETATM   14  N   UNL     1      23.407  47.288  50.012  1.00  0.00    -0.352 N 
HETATM   15  H   UNL     1      22.780  46.582  50.387  1.00  0.00     0.162 HD
HETATM   16  O   UNL     1      23.860  48.457  48.096  1.00  0.00    -0.268 OA
BRANCH  14  17
HETATM   17  C   UNL     1      24.759  47.360  50.504  1.00  0.00     0.161 C 
BRANCH  17  18
HETATM   18  C   UNL     1      25.325  45.980  50.701  1.00  0.00    -0.040 A 
HETATM   19  C   UNL     1      26.226  45.436  49.772  1.00  0.00     0.012 A 
HETATM   20  C   UNL     1      26.729  44.145  49.949  1.00  0.00     0.043 A 
HETATM   21  C   UNL     1      26.325  43.397  51.048  1.00  0.00     0.116 A 
HETATM   22  F   UNL     1      26.809  42.159  51.216  1.00  0.00    -0.206 F 
HETATM   23  C   UNL     1      25.425  43.912  51.973  1.00  0.00     0.043 A 
HETATM   24  C   UNL     1      24.920  45.201  51.800  1.00  0.00     0.012 A 
ENDBRANCH  17  18
ENDBRANCH  14  17
ENDBRANCH   2  13
BRANCH   2  25
HETATM   25  O   UNL     1      21.394  47.866  46.983  1.00  0.00    -0.359 OA
HETATM   26  H   UNL     1      22.062  48.551  46.815  1.00  0.00     0.213 HD
ENDBRANCH   2  25
BRANCH   1  27
HETATM   27  C   UNL     1      21.967  45.118  48.199  1.00  0.00     0.043 A 
HETATM   28  C   UNL     1      22.354  44.933  46.866  1.00  0.00     0.032 A 
HETATM   29  C   UNL     1      23.201  43.877  46.503  1.00  0.00     0.039 A 
HETATM   30  C   UNL     1      23.653  42.979  47.467  1.00  0.00     0.068 A 
HETATM   31  C   UNL     1      23.257  43.151  48.793  1.00  0.00     0.039 A 
HETATM   32  C   UNL     1      22.411  44.202  49.156  1.00  0.00     0.032 A 
BRANCH  30  33
HETATM   33  O   UNL     1      24.468  41.903  47.249  1.00  0.00    -0.352 OA
BRANCH  33  34
HETATM   34  C   UNL     1      24.847  41.137  48.390  1.00  0.00     0.171 C 
HETATM   35  C   UNL     1      26.315  40.781  48.244  1.00  0.00     0.034 C 
ENDBRANCH  33  34
ENDBRANCH  30  33
ENDBRANCH   1  27
TORSDOF 7
ENDMDL
MODEL 10
REMARK VINA RESULT:      -7.7      3.651      8.266
REMARK  7 active torsions:
REMARK  status: ('A' for Active; 'I' for Inactive)
REMARK    1  A    between atoms: C_2  and  O_3 
REMARK    2  A    between atoms: O_3  and  C_4 
REMARK    3  A    between atoms: C_7  and  N_8 
REMARK    4  A    between atoms: C_9  and  C_11 
REMARK    5  A    between atoms: C_9  and  O_10 
REMARK       I    between atoms: C_11  and  N_12 
REMARK    6  A    between atoms: N_12  and  C_13 
REMARK    7  A    between atoms: C_13  and  C_14 
ROOT
HETATM    1  N   UNL     1      27.316  42.547  52.045  1.00  0.00    -0.254 N 
HETATM    2  C   UNL     1      26.339  43.645  51.906  1.00  0.00     0.256 C 
HETATM    3  C   UNL     1      26.662  44.846  52.775  1.00  0.00     0.034 A 
HETATM    4  C   UNL     1      27.455  44.646  53.900  1.00  0.00     0.048 A 
HETATM    5  N   UNL     1      27.972  43.380  54.141  1.00  0.00    -0.308 N 
HETATM    6  C   UNL     1      27.932  42.332  53.270  1.00  0.00     0.330 C 
HETATM    7  O   UNL     1      28.505  41.294  53.603  1.00  0.00    -0.246 OA
HETATM    8  C   UNL     1      26.127  46.129  52.561  1.00  0.00     0.015 A 
HETATM    9  C   UNL     1      26.418  47.180  53.435  1.00  0.00     0.001 A 
HETATM   10  C   UNL     1      27.223  46.958  54.549  1.00  0.00     0.002 A 
HETATM   11  C   UNL     1      27.736  45.685  54.789  1.00  0.00     0.030 A 
HETATM   12  H   UNL     1      28.514  43.207  54.977  1.00  0.00     0.170 HD
ENDROOT
BRANCH   2  13
HETATM   13  C   UNL     1      26.100  44.116  50.408  1.00  0.00     0.279 C 
HETATM   14  N   UNL     1      24.767  44.100  50.027  1.00  0.00    -0.352 N 
HETATM   15  H   UNL     1      24.085  44.067  50.780  1.00  0.00     0.162 HD
HETATM   16  O   UNL     1      26.995  44.448  49.632  1.00  0.00    -0.268 OA
BRANCH  14  17
HETATM   17  C   UNL     1      24.354  44.558  48.725  1.00  0.00     0.161 C 
BRANCH  17  18
HETATM   18  C   UNL     1      23.628  45.871  48.831  1.00  0.00    -0.040 A 
HETATM   19  C   UNL     1      24.209  46.959  49.502  1.00  0.00     0.012 A 
HETATM   20  C   UNL     1      23.519  48.167  49.618  1.00  0.00     0.043 A 
HETATM   21  C   UNL     1      22.248  48.286  49.069  1.00  0.00     0.116 A 
HETATM   22  F   UNL     1      21.588  49.446  49.180  1.00  0.00    -0.206 F 
HETATM   23  C   UNL     1      21.650  47.219  48.411  1.00  0.00     0.043 A 
HETATM   24  C   UNL     1      22.335  46.009  48.294  1.00  0.00     0.012 A 
ENDBRANCH  17  18
ENDBRANCH  14  17
ENDBRANCH   2  13
BRANCH   2  25
HETATM   25  O   UNL     1      25.089  43.137  52.415  1.00  0.00    -0.359 OA
HETATM   26  H   UNL     1      24.528  43.063  51.625  1.00  0.00     0.213 HD
ENDBRANCH   2  25
BRANCH   1  27
HETATM   27  C   UNL     1      27.292  41.474  51.098  1.00  0.00     0.043 A 
HETATM   28  C   UNL     1      28.337  41.294  50.181  1.00  0.00     0.032 A 
HETATM   29  C   UNL     1      28.301  40.252  49.245  1.00  0.00     0.039 A 
HETATM   30  C   UNL     1      27.208  39.389  49.199  1.00  0.00     0.068 A 
HETATM   31  C   UNL     1      26.159  39.575  50.100  1.00  0.00     0.039 A 
HETATM   32  C   UNL     1      26.192  40.615  51.032  1.00  0.00     0.032 A 
BRANCH  30  33
HETATM   33  O   UNL     1      27.038  38.345  48.333  1.00  0.00    -0.352 OA
BRANCH  33  34
HETATM   34  C   UNL     1      26.714  37.079  48.901  1.00  0.00     0.171 C 
HETATM   35  C   UNL     1      25.961  36.279  47.854  1.00  0.00     0.034 C 
ENDBRANCH  33  34
ENDBRANCH  30  33
ENDBRANCH   1  27
TORSDOF 7
ENDMDL
