MODEL 1
REMARK VINA RESULT:      -8.3      0.000      0.000
REMARK  11 active torsions:
REMARK  status: ('A' for Active; 'I' for Inactive)
REMARK    1  A    between atoms: O_2  and  C_3 
REMARK    2  A    between atoms: C_6  and  C_7 
REMARK    3  A    between atoms: C_7  and  N_8 
REMARK    4  A    between atoms: C_7  and  C_29 
REMARK       I    between atoms: N_8  and  C_9 
REMARK    5  A    between atoms: N_8  and  C_20 
REMARK    6  A    between atoms: C_9  and  C_10 
REMARK    7  A    between atoms: C_13  and  C_14 
REMARK       I    between atoms: C_14  and  N_15 
REMARK    8  A    between atoms: C_17  and  N_18 
REMARK    9  A    between atoms: C_20  and  C_21 
REMARK   10  A    between atoms: C_21  and  N_22 
REMARK       I    between atoms: C_29  and  N_30 
REMARK   11  A    between atoms: N_30  and  C_31 
ROOT
HETATM    1  N   UNL     1      25.273  43.547  50.722  1.00  0.00    -0.328 N 
HETATM    2  C   UNL     1      26.641  43.266  50.893  1.00  0.00     0.265 C 
HETATM    3  O   UNL     1      27.371  44.043  51.504  1.00  0.00    -0.267 OA
ENDROOT
BRANCH   1   4
HETATM    4  C   UNL     1      24.767  44.829  51.253  1.00  0.00     0.213 C 
BRANCH   4   5
HETATM    5  C   UNL     1      25.001  46.084  50.428  1.00  0.00    -0.026 A 
HETATM    6  C   UNL     1      23.955  46.861  49.913  1.00  0.00     0.012 A 
HETATM    7  C   UNL     1      24.213  48.082  49.281  1.00  0.00     0.037 A 
HETATM    8  C   UNL     1      25.515  48.570  49.175  1.00  0.00     0.068 A 
HETATM    9  C   UNL     1      26.569  47.804  49.663  1.00  0.00     0.037 A 
HETATM   10  C   UNL     1      26.314  46.577  50.287  1.00  0.00     0.012 A 
BRANCH   8  11
HETATM   11  O   UNL     1      25.627  49.793  48.578  1.00  0.00    -0.356 OA
HETATM   12  C   UNL     1      24.452  50.303  47.956  1.00  0.00     0.210 C 
ENDBRANCH   8  11
ENDBRANCH   4   5
BRANCH   4  13
HETATM   13  C   UNL     1      25.072  44.885  52.767  1.00  0.00     0.245 C 
HETATM   14  N   UNL     1      25.879  45.899  53.208  1.00  0.00    -0.354 N 
HETATM   15  H   UNL     1      26.442  46.345  52.484  1.00  0.00     0.162 HD
HETATM   16  O   UNL     1      24.672  43.953  53.475  1.00  0.00    -0.271 OA
BRANCH  14  17
HETATM   17  C   UNL     1      26.332  46.127  54.576  1.00  0.00     0.084 C 
HETATM   18  C   UNL     1      27.636  45.405  54.924  1.00  0.00     0.025 C 
HETATM   19  C   UNL     1      28.677  46.485  55.217  1.00  0.00     0.002 C 
HETATM   20  C   UNL     1      28.058  47.814  54.812  1.00  0.00     0.002 C 
HETATM   21  C   UNL     1      26.559  47.596  54.924  1.00  0.00     0.025 C 
ENDBRANCH  14  17
ENDBRANCH   4  13
ENDBRANCH   1   4
BRANCH   1  22
HETATM   22  C   UNL     1      24.316  42.664  50.027  1.00  0.00     0.155 C 
BRANCH  22  23
HETATM   23  C   UNL     1      22.853  43.165  49.982  1.00  0.00     0.255 C 
BRANCH  23  24
HETATM   24  N   UNL     1      22.370  43.554  48.603  1.00  0.00    -0.066 N 
HETATM   25  H   UNL     1      21.879  42.746  48.169  1.00  0.00     0.280 HD
HETATM   26  C   UNL     1      21.418  44.741  48.582  1.00  0.00     0.261 C 
HETATM   27  C   UNL     1      21.007  45.061  47.140  1.00  0.00     0.195 C 
HETATM   28  O   UNL     1      22.159  45.333  46.334  1.00  0.00    -0.388 OA
HETATM   29  C   UNL     1      23.025  44.195  46.267  1.00  0.00     0.195 C 
HETATM   30  C   UNL     1      23.546  43.822  47.660  1.00  0.00     0.261 C 
ENDBRANCH  23  24
ENDBRANCH  22  23
ENDBRANCH   1  22
BRANCH   2  31
HETATM   31  C   UNL     1      27.145  42.034  50.350  1.00  0.00     0.115 A 
HETATM   32  S   UNL     1      27.153  41.793  48.663  1.00  0.00     0.019 SA
HETATM   33  N   UNL     1      27.730  40.241  48.710  1.00  0.00    -0.203 NA
HETATM   34  C   UNL     1      28.023  39.916  49.980  1.00  0.00     0.155 A 
HETATM   35  C   UNL     1      27.718  40.940  50.958  1.00  0.00     0.065 A 
BRANCH  34  36
HETATM   36  C   UNL     1      28.612  38.601  50.285  1.00  0.00     0.270 C 
HETATM   37  N   UNL     1      29.683  38.619  51.134  1.00  0.00    -0.365 N 
HETATM   38  H   UNL     1      29.976  39.491  51.562  1.00  0.00     0.159 HD
HETATM   39  H   UNL     1      30.094  37.748  51.436  1.00  0.00     0.159 HD
HETATM   40  O   UNL     1      28.183  37.551  49.814  1.00  0.00    -0.266 OA
ENDBRANCH  34  36
BRANCH  35  41
HETATM   41  N   UNL     1      27.942  40.837  52.300  1.00  0.00    -0.299 NA
HETATM   42  H   UNL     1      28.475  40.006  52.599  1.00  0.00     0.124 HD
HETATM   43  H   UNL     1      28.322  41.655  52.783  1.00  0.00     0.124 HD
ENDBRANCH  35  41
ENDBRANCH   2  31
TORSDOF 11
ENDMDL
MODEL 2
REMARK VINA RESULT:      -8.3      2.275      7.227
REMARK  11 active torsions:
REMARK  status: ('A' for Active; 'I' for Inactive)
REMARK    1  A    between atoms: O_2  and  C_3 
REMARK    2  A    between atoms: C_6  and  C_7 
REMARK    3  A    between atoms: C_7  and  N_8 
REMARK    4  A    between atoms: C_7  and  C_29 
REMARK       I    between atoms: N_8  and  C_9 
REMARK    5  A    between atoms: N_8  and  C_20 
REMARK    6  A    between atoms: C_9  and  C_10 
REMARK    7  A    between atoms: C_13  and  C_14 
REMARK       I    between atoms: C_14  and  N_15 
REMARK    8  A    between atoms: C_17  and  N_18 
REMARK    9  A    between atoms: C_20  and  C_21 
REMARK   10  A    between atoms: C_21  and  N_22 
REMARK       I    between atoms: C_29  and  N_30 
REMARK   11  A    between atoms: N_30  and  C_31 
ROOT
HETATM    1  N   UNL     1      25.250  43.453  50.543  1.00  0.00    -0.328 N 
HETATM    2  C   UNL     1      24.342  42.781  49.703  1.00  0.00     0.265 C 
HETATM    3  O   UNL     1      24.409  41.563  49.553  1.00  0.00    -0.267 OA
ENDROOT
BRANCH   1   4
HETATM    4  C   UNL     1      26.310  42.650  51.186  1.00  0.00     0.213 C 
BRANCH   4   5
HETATM    5  C   UNL     1      27.107  43.293  52.309  1.00  0.00    -0.026 A 
HETATM    6  C   UNL     1      26.521  43.725  53.506  1.00  0.00     0.012 A 
HETATM    7  C   UNL     1      27.310  44.180  54.567  1.00  0.00     0.037 A 
HETATM    8  C   UNL     1      28.702  44.185  54.471  1.00  0.00     0.068 A 
HETATM    9  C   UNL     1      29.301  43.778  53.284  1.00  0.00     0.037 A 
HETATM   10  C   UNL     1      28.513  43.331  52.217  1.00  0.00     0.012 A 
BRANCH   8  11
HETATM   11  O   UNL     1      29.357  44.610  55.592  1.00  0.00    -0.356 OA
HETATM   12  C   UNL     1      30.682  44.121  55.772  1.00  0.00     0.210 C 
ENDBRANCH   8  11
ENDBRANCH   4   5
BRANCH   4  13
HETATM   13  C   UNL     1      27.083  41.891  50.085  1.00  0.00     0.245 C 
HETATM   14  N   UNL     1      27.368  40.571  50.313  1.00  0.00    -0.354 N 
HETATM   15  H   UNL     1      27.315  40.284  51.291  1.00  0.00     0.162 HD
HETATM   16  O   UNL     1      27.500  42.537  49.117  1.00  0.00    -0.271 OA
BRANCH  14  17
HETATM   17  C   UNL     1      28.115  39.672  49.441  1.00  0.00     0.084 C 
HETATM   18  C   UNL     1      29.068  38.736  50.189  1.00  0.00     0.025 C 
HETATM   19  C   UNL     1      28.571  37.312  49.949  1.00  0.00     0.002 C 
HETATM   20  C   UNL     1      27.212  37.427  49.275  1.00  0.00     0.002 C 
HETATM   21  C   UNL     1      27.239  38.772  48.571  1.00  0.00     0.025 C 
ENDBRANCH  14  17
ENDBRANCH   4  13
ENDBRANCH   1   4
BRANCH   1  22
HETATM   22  C   UNL     1      25.232  44.906  50.805  1.00  0.00     0.155 C 
BRANCH  22  23
HETATM   23  C   UNL     1      26.139  45.763  49.891  1.00  0.00     0.255 C 
BRANCH  23  24
HETATM   24  N   UNL     1      25.450  46.959  49.274  1.00  0.00    -0.066 N 
HETATM   25  H   UNL     1      25.386  46.828  48.244  1.00  0.00     0.280 HD
HETATM   26  C   UNL     1      24.044  47.213  49.797  1.00  0.00     0.261 C 
HETATM   27  C   UNL     1      23.447  48.454  49.123  1.00  0.00     0.195 C 
HETATM   28  O   UNL     1      24.276  49.600  49.349  1.00  0.00    -0.388 OA
HETATM   29  C   UNL     1      25.579  49.416  48.785  1.00  0.00     0.195 C 
HETATM   30  C   UNL     1      26.294  48.226  49.434  1.00  0.00     0.261 C 
ENDBRANCH  23  24
ENDBRANCH  22  23
ENDBRANCH   1  22
BRANCH   2  31
HETATM   31  C   UNL     1      23.328  43.562  49.051  1.00  0.00     0.115 A 
HETATM   32  S   UNL     1      23.520  44.001  47.415  1.00  0.00     0.019 SA
HETATM   33  N   UNL     1      22.140  44.911  47.314  1.00  0.00    -0.203 NA
HETATM   34  C   UNL     1      21.461  44.817  48.470  1.00  0.00     0.155 A 
HETATM   35  C   UNL     1      22.110  44.024  49.495  1.00  0.00     0.065 A 
BRANCH  34  36
HETATM   36  C   UNL     1      20.160  45.491  48.616  1.00  0.00     0.270 C 
HETATM   37  N   UNL     1      20.217  46.806  48.985  1.00  0.00    -0.365 N 
HETATM   38  H   UNL     1      21.114  47.270  49.069  1.00  0.00     0.159 HD
HETATM   39  H   UNL     1      19.365  47.344  49.040  1.00  0.00     0.159 HD
HETATM   40  O   UNL     1      19.088  44.922  48.427  1.00  0.00    -0.266 OA
ENDBRANCH  34  36
BRANCH  35  41
HETATM   41  N   UNL     1      21.602  43.779  50.737  1.00  0.00    -0.299 NA
HETATM   42  H   UNL     1      22.247  43.953  51.523  1.00  0.00     0.124 HD
HETATM   43  H   UNL     1      20.694  44.189  50.968  1.00  0.00     0.124 HD
ENDBRANCH  35  41
ENDBRANCH   2  31
TORSDOF 11
ENDMDL
MODEL 3
REMARK VINA RESULT:      -7.9      5.066      8.412
REMARK  11 active torsions:
REMARK  status: ('A' for Active; 'I' for Inactive)
REMARK    1  A    between atoms: O_2  and  C_3 
REMARK    2  A    between atoms: C_6  and  C_7 
REMARK    3  A    between atoms: C_7  and  N_8 
REMARK    4  A    between atoms: C_7  and  C_29 
REMARK       I    between atoms: N_8  and  C_9 
REMARK    5  A    between atoms: N_8  and  C_20 
REMARK    6  A    between atoms: C_9  and  C_10 
REMARK    7  A    between atoms: C_13  and  C_14 
REMARK       I    between atoms: C_14  and  N_15 
REMARK    8  A    between atoms: C_17  and  N_18 
REMARK    9  A    between atoms: C_20  and  C_21 
REMARK   10  A    between atoms: C_21  and  N_22 
REMARK       I    between atoms: C_29  and  N_30 
REMARK   11  A    between atoms: N_30  and  C_31 
ROOT
HETATM    1  N   UNL     1      20.353  46.833  47.626  1.00  0.00    -0.328 N 
HETATM    2  C   UNL     1      20.159  45.443  47.734  1.00  0.00     0.265 C 
HETATM    3  O   UNL     1      20.419  44.852  48.780  1.00  0.00    -0.267 OA
ENDROOT
BRANCH   1   4
HETATM    4  C   UNL     1      20.930  47.535  48.791  1.00  0.00     0.213 C 
BRANCH   4   5
HETATM    5  C   UNL     1      20.308  48.859  49.203  1.00  0.00    -0.026 A 
HETATM    6  C   UNL     1      20.800  50.097  48.769  1.00  0.00     0.012 A 
HETATM    7  C   UNL     1      20.114  51.281  49.056  1.00  0.00     0.037 A 
HETATM    8  C   UNL     1      18.908  51.257  49.755  1.00  0.00     0.068 A 
HETATM    9  C   UNL     1      18.413  50.039  50.211  1.00  0.00     0.037 A 
HETATM   10  C   UNL     1      19.103  48.853  49.933  1.00  0.00     0.012 A 
BRANCH   8  11
HETATM   11  O   UNL     1      18.316  52.475  49.931  1.00  0.00    -0.356 OA
HETATM   12  C   UNL     1      16.893  52.501  49.872  1.00  0.00     0.210 C 
ENDBRANCH   8  11
ENDBRANCH   4   5
BRANCH   4  13
HETATM   13  C   UNL     1      22.470  47.449  48.699  1.00  0.00     0.245 C 
HETATM   14  N   UNL     1      23.106  46.607  49.571  1.00  0.00    -0.354 N 
HETATM   15  H   UNL     1      22.555  46.340  50.388  1.00  0.00     0.162 HD
HETATM   16  O   UNL     1      23.050  48.225  47.930  1.00  0.00    -0.271 OA
BRANCH  14  17
HETATM   17  C   UNL     1      24.544  46.395  49.694  1.00  0.00     0.084 C 
HETATM   18  C   UNL     1      25.278  47.532  50.409  1.00  0.00     0.025 C 
HETATM   19  C   UNL     1      25.858  46.946  51.695  1.00  0.00     0.002 C 
HETATM   20  C   UNL     1      25.270  45.552  51.849  1.00  0.00     0.002 C 
HETATM   21  C   UNL     1      24.927  45.115  50.436  1.00  0.00     0.025 C 
ENDBRANCH  14  17
ENDBRANCH   4  13
ENDBRANCH   1   4
BRANCH   1  22
HETATM   22  C   UNL     1      20.046  47.632  46.424  1.00  0.00     0.155 C 
BRANCH  22  23
HETATM   23  C   UNL     1      18.591  48.147  46.316  1.00  0.00     0.255 C 
BRANCH  23  24
HETATM   24  N   UNL     1      18.469  49.567  45.811  1.00  0.00    -0.066 N 
HETATM   25  H   UNL     1      19.357  50.077  45.995  1.00  0.00     0.280 HD
HETATM   26  C   UNL     1      18.169  49.681  44.324  1.00  0.00     0.261 C 
HETATM   27  C   UNL     1      18.048  51.156  43.923  1.00  0.00     0.195 C 
HETATM   28  O   UNL     1      17.026  51.805  44.687  1.00  0.00    -0.388 OA
HETATM   29  C   UNL     1      17.333  51.787  46.085  1.00  0.00     0.195 C 
HETATM   30  C   UNL     1      17.421  50.349  46.608  1.00  0.00     0.261 C 
ENDBRANCH  23  24
ENDBRANCH  22  23
ENDBRANCH   1  22
BRANCH   2  31
HETATM   31  C   UNL     1      19.627  44.751  46.593  1.00  0.00     0.115 A 
HETATM   32  S   UNL     1      20.688  44.029  45.471  1.00  0.00     0.019 SA
HETATM   33  N   UNL     1      19.513  43.518  44.422  1.00  0.00    -0.203 NA
HETATM   34  C   UNL     1      18.305  43.786  44.944  1.00  0.00     0.155 A 
HETATM   35  C   UNL     1      18.331  44.482  46.215  1.00  0.00     0.065 A 
BRANCH  34  36
HETATM   36  C   UNL     1      17.085  43.374  44.229  1.00  0.00     0.270 C 
HETATM   37  N   UNL     1      17.195  42.227  43.493  1.00  0.00    -0.365 N 
HETATM   38  H   UNL     1      18.052  41.686  43.522  1.00  0.00     0.159 HD
HETATM   39  H   UNL     1      16.379  41.853  43.031  1.00  0.00     0.159 HD
HETATM   40  O   UNL     1      16.035  44.008  44.278  1.00  0.00    -0.266 OA
ENDBRANCH  34  36
BRANCH  35  41
HETATM   41  N   UNL     1      17.230  44.845  46.935  1.00  0.00    -0.299 NA
HETATM   42  H   UNL     1      17.408  45.105  47.917  1.00  0.00     0.124 HD
HETATM   43  H   UNL     1      16.603  45.541  46.525  1.00  0.00     0.124 HD
ENDBRANCH  35  41
ENDBRANCH   2  31
TORSDOF 11
ENDMDL
MODEL 4
REMARK VINA RESULT:      -7.7      9.945     13.279
REMARK  11 active torsions:
REMARK  status: ('A' for Active; 'I' for Inactive)
REMARK    1  A    between atoms: O_2  and  C_3 
REMARK    2  A    between atoms: C_6  and  C_7 
REMARK    3  A    between atoms: C_7  and  N_8 
REMARK    4  A    between atoms: C_7  and  C_29 
REMARK       I    between atoms: N_8  and  C_9 
REMARK    5  A    between atoms: N_8  and  C_20 
REMARK    6  A    between atoms: C_9  and  C_10 
REMARK    7  A    between atoms: C_13  and  C_14 
REMARK       I    between atoms: C_14  and  N_15 
REMARK    8  A    between atoms: C_17  and  N_18 
REMARK    9  A    between atoms: C_20  and  C_21 
REMARK   10  A    between atoms: C_21  and  N_22 
REMARK       I    between atoms: C_29  and  N_30 
REMARK   11  A    between atoms: N_30  and  C_31 
ROOT
HETATM    1  N   UNL     1      29.118  48.202  40.050  1.00  0.00    -0.328 N 
HETATM    2  C   UNL     1      30.327  48.366  39.350  1.00  0.00     0.265 C 
HETATM    3  O   UNL     1      30.469  47.896  38.223  1.00  0.00    -0.267 OA
ENDROOT
BRANCH   1   4
HETATM    4  C   UNL     1      28.057  47.402  39.404  1.00  0.00     0.213 C 
BRANCH   4   5
HETATM    5  C   UNL     1      26.772  48.111  39.009  1.00  0.00    -0.026 A 
HETATM    6  C   UNL     1      25.557  47.909  39.677  1.00  0.00     0.012 A 
HETATM    7  C   UNL     1      24.434  48.686  39.372  1.00  0.00     0.037 A 
HETATM    8  C   UNL     1      24.505  49.701  38.420  1.00  0.00     0.068 A 
HETATM    9  C   UNL     1      25.698  49.905  37.733  1.00  0.00     0.037 A 
HETATM   10  C   UNL     1      26.820  49.122  38.029  1.00  0.00     0.012 A 
BRANCH   8  11
HETATM   11  O   UNL     1      23.354  50.416  38.249  1.00  0.00    -0.356 OA
HETATM   12  C   UNL     1      22.441  50.414  39.342  1.00  0.00     0.210 C 
ENDBRANCH   8  11
ENDBRANCH   4   5
BRANCH   4  13
HETATM   13  C   UNL     1      27.946  46.050  40.144  1.00  0.00     0.245 C 
HETATM   14  N   UNL     1      26.836  45.847  40.919  1.00  0.00    -0.354 N 
HETATM   15  H   UNL     1      26.334  46.696  41.179  1.00  0.00     0.162 HD
HETATM   16  O   UNL     1      28.911  45.278  40.090  1.00  0.00    -0.271 OA
BRANCH  14  17
HETATM   17  C   UNL     1      26.538  44.674  41.733  1.00  0.00     0.084 C 
HETATM   18  C   UNL     1      25.469  44.918  42.801  1.00  0.00     0.025 C 
HETATM   19  C   UNL     1      24.280  44.024  42.451  1.00  0.00     0.002 C 
HETATM   20  C   UNL     1      24.553  43.449  41.070  1.00  0.00     0.002 C 
HETATM   21  C   UNL     1      26.066  43.461  40.935  1.00  0.00     0.025 C 
ENDBRANCH  14  17
ENDBRANCH   4  13
ENDBRANCH   1   4
BRANCH   1  22
HETATM   22  C   UNL     1      28.845  48.751  41.393  1.00  0.00     0.155 C 
BRANCH  22  23
HETATM   23  C   UNL     1      27.792  49.882  41.453  1.00  0.00     0.255 C 
BRANCH  23  24
HETATM   24  N   UNL     1      28.372  51.277  41.392  1.00  0.00    -0.066 N 
HETATM   25  H   UNL     1      27.710  51.946  41.836  1.00  0.00     0.280 HD
HETATM   26  C   UNL     1      29.718  51.429  42.085  1.00  0.00     0.261 C 
HETATM   27  C   UNL     1      30.221  52.871  41.947  1.00  0.00     0.195 C 
HETATM   28  O   UNL     1      30.328  53.240  40.568  1.00  0.00    -0.388 OA
HETATM   29  C   UNL     1      29.053  53.189  39.918  1.00  0.00     0.195 C 
HETATM   30  C   UNL     1      28.480  51.768  39.946  1.00  0.00     0.261 C 
ENDBRANCH  23  24
ENDBRANCH  22  23
ENDBRANCH   1  22
BRANCH   2  31
HETATM   31  C   UNL     1      31.374  49.117  39.986  1.00  0.00     0.115 A 
HETATM   32  S   UNL     1      32.130  48.498  41.382  1.00  0.00     0.019 SA
HETATM   33  N   UNL     1      33.108  49.808  41.648  1.00  0.00    -0.203 NA
HETATM   34  C   UNL     1      32.960  50.683  40.640  1.00  0.00     0.155 A 
HETATM   35  C   UNL     1      31.977  50.306  39.644  1.00  0.00     0.065 A 
BRANCH  34  36
HETATM   36  C   UNL     1      33.769  51.914  40.608  1.00  0.00     0.270 C 
HETATM   37  N   UNL     1      33.187  52.984  39.988  1.00  0.00    -0.365 N 
HETATM   38  H   UNL     1      32.233  52.918  39.652  1.00  0.00     0.159 HD
HETATM   39  H   UNL     1      33.660  53.876  39.988  1.00  0.00     0.159 HD
HETATM   40  O   UNL     1      34.893  51.987  41.098  1.00  0.00    -0.266 OA
ENDBRANCH  34  36
BRANCH  35  41
HETATM   41  N   UNL     1      31.669  51.031  38.530  1.00  0.00    -0.299 NA
HETATM   42  H   UNL     1      30.724  51.445  38.517  1.00  0.00     0.124 HD
HETATM   43  H   UNL     1      32.337  51.743  38.227  1.00  0.00     0.124 HD
ENDBRANCH  35  41
ENDBRANCH   2  31
TORSDOF 11
ENDMDL
MODEL 5
REMARK VINA RESULT:      -7.6      4.194      9.382
REMARK  11 active torsions:
REMARK  status: ('A' for Active; 'I' for Inactive)
REMARK    1  A    between atoms: O_2  and  C_3 
REMARK    2  A    between atoms: C_6  and  C_7 
REMARK    3  A    between atoms: C_7  and  N_8 
REMARK    4  A    between atoms: C_7  and  C_29 
REMARK       I    between atoms: N_8  and  C_9 
REMARK    5  A    between atoms: N_8  and  C_20 
REMARK    6  A    between atoms: C_9  and  C_10 
REMARK    7  A    between atoms: C_13  and  C_14 
REMARK       I    between atoms: C_14  and  N_15 
REMARK    8  A    between atoms: C_17  and  N_18 
REMARK    9  A    between atoms: C_20  and  C_21 
REMARK   10  A    between atoms: C_21  and  N_22 
REMARK       I    between atoms: C_29  and  N_30 
REMARK   11  A    between atoms: N_30  and  C_31 
ROOT
HETATM    1  N   UNL     1      21.160  45.704  48.168  1.00  0.00    -0.328 N 
HETATM    2  C   UNL     1      19.774  45.738  48.405  1.00  0.00     0.265 C 
HETATM    3  O   UNL     1      19.165  44.717  48.717  1.00  0.00    -0.267 OA
ENDROOT
BRANCH   1   4
HETATM    4  C   UNL     1      21.837  44.394  48.252  1.00  0.00     0.213 C 
BRANCH   4   5
HETATM    5  C   UNL     1      23.114  44.304  49.070  1.00  0.00    -0.026 A 
HETATM    6  C   UNL     1      23.115  44.208  50.468  1.00  0.00     0.012 A 
HETATM    7  C   UNL     1      24.304  43.985  51.170  1.00  0.00     0.037 A 
HETATM    8  C   UNL     1      25.512  43.821  50.494  1.00  0.00     0.068 A 
HETATM    9  C   UNL     1      25.534  43.931  49.108  1.00  0.00     0.037 A 
HETATM   10  C   UNL     1      24.347  44.164  48.404  1.00  0.00     0.012 A 
BRANCH   8  11
HETATM   11  O   UNL     1      26.591  43.563  51.292  1.00  0.00    -0.356 OA
HETATM   12  C   UNL     1      26.955  44.587  52.212  1.00  0.00     0.210 C 
ENDBRANCH   8  11
ENDBRANCH   4   5
BRANCH   4  13
HETATM   13  C   UNL     1      21.822  43.746  46.849  1.00  0.00     0.245 C 
HETATM   14  N   UNL     1      22.313  44.489  45.809  1.00  0.00    -0.354 N 
HETATM   15  H   UNL     1      22.367  45.492  45.987  1.00  0.00     0.162 HD
HETATM   16  O   UNL     1      21.267  42.648  46.722  1.00  0.00    -0.271 OA
BRANCH  14  17
HETATM   17  C   UNL     1      22.363  44.102  44.403  1.00  0.00     0.084 C 
HETATM   18  C   UNL     1      22.188  45.274  43.434  1.00  0.00     0.025 C 
HETATM   19  C   UNL     1      23.494  45.401  42.650  1.00  0.00     0.002 C 
HETATM   20  C   UNL     1      24.500  44.476  43.318  1.00  0.00     0.002 C 
HETATM   21  C   UNL     1      23.658  43.406  43.991  1.00  0.00     0.025 C 
ENDBRANCH  14  17
ENDBRANCH   4  13
ENDBRANCH   1   4
BRANCH   1  22
HETATM   22  C   UNL     1      21.979  46.881  47.815  1.00  0.00     0.155 C 
BRANCH  22  23
HETATM   23  C   UNL     1      22.587  47.655  49.008  1.00  0.00     0.255 C 
BRANCH  23  24
HETATM   24  N   UNL     1      24.067  47.937  48.880  1.00  0.00    -0.066 N 
HETATM   25  H   UNL     1      24.466  47.347  48.121  1.00  0.00     0.280 HD
HETATM   26  C   UNL     1      24.406  49.387  48.566  1.00  0.00     0.261 C 
HETATM   27  C   UNL     1      25.926  49.565  48.476  1.00  0.00     0.195 C 
HETATM   28  O   UNL     1      26.556  49.160  49.697  1.00  0.00    -0.388 OA
HETATM   29  C   UNL     1      26.323  47.773  49.965  1.00  0.00     0.195 C 
HETATM   30  C   UNL     1      24.825  47.491  50.133  1.00  0.00     0.261 C 
ENDBRANCH  23  24
ENDBRANCH  22  23
ENDBRANCH   1  22
BRANCH   2  31
HETATM   31  C   UNL     1      19.105  47.006  48.295  1.00  0.00     0.115 A 
HETATM   32  S   UNL     1      18.467  47.497  46.793  1.00  0.00     0.019 SA
HETATM   33  N   UNL     1      17.952  48.987  47.299  1.00  0.00    -0.203 NA
HETATM   34  C   UNL     1      18.156  49.100  48.622  1.00  0.00     0.155 A 
HETATM   35  C   UNL     1      18.804  47.961  49.239  1.00  0.00     0.065 A 
BRANCH  34  36
HETATM   36  C   UNL     1      17.726  50.317  49.332  1.00  0.00     0.270 C 
HETATM   37  N   UNL     1      16.759  51.052  48.705  1.00  0.00    -0.365 N 
HETATM   38  H   UNL     1      16.339  50.711  47.848  1.00  0.00     0.159 HD
HETATM   39  H   UNL     1      16.373  51.863  49.167  1.00  0.00     0.159 HD
HETATM   40  O   UNL     1      18.197  50.662  50.412  1.00  0.00    -0.266 OA
ENDBRANCH  34  36
BRANCH  35  41
HETATM   41  N   UNL     1      19.098  47.847  50.567  1.00  0.00    -0.299 NA
HETATM   42  H   UNL     1      18.765  48.620  51.163  1.00  0.00     0.124 HD
HETATM   43  H   UNL     1      18.873  46.963  51.029  1.00  0.00     0.124 HD
ENDBRANCH  35  41
ENDBRANCH   2  31
TORSDOF 11
ENDMDL
MODEL 6
REMARK VINA RESULT:      -7.6      7.123     11.178
REMARK  11 active torsions:
REMARK  status: ('A' for Active; 'I' for Inactive)
REMARK    1  A    between atoms: O_2  and  C_3 
REMARK    2  A    between atoms: C_6  and  C_7 
REMARK    3  A    between atoms: C_7  and  N_8 
REMARK    4  A    between atoms: C_7  and  C_29 
REMARK       I    between atoms: N_8  and  C_9 
REMARK    5  A    between atoms: N_8  and  C_20 
REMARK    6  A    between atoms: C_9  and  C_10 
REMARK    7  A    between atoms: C_13  and  C_14 
REMARK       I    between atoms: C_14  and  N_15 
REMARK    8  A    between atoms: C_17  and  N_18 
REMARK    9  A    between atoms: C_20  and  C_21 
REMARK   10  A    between atoms: C_21  and  N_22 
REMARK       I    between atoms: C_29  and  N_30 
REMARK   11  A    between atoms: N_30  and  C_31 
ROOT
HETATM    1  N   UNL     1      17.575  50.077  47.696  1.00  0.00    -0.328 N 
HETATM    2  C   UNL     1      17.258  50.183  46.328  1.00  0.00     0.265 C 
HETATM    3  O   UNL     1      17.617  51.160  45.675  1.00  0.00    -0.267 OA
ENDROOT
BRANCH   1   4
HETATM    4  C   UNL     1      18.300  51.202  48.319  1.00  0.00     0.213 C 
BRANCH   4   5
HETATM    5  C   UNL     1      19.796  51.051  48.538  1.00  0.00    -0.026 A 
HETATM    6  C   UNL     1      20.399  51.206  49.793  1.00  0.00     0.012 A 
HETATM    7  C   UNL     1      21.756  50.919  49.977  1.00  0.00     0.037 A 
HETATM    8  C   UNL     1      22.533  50.441  48.923  1.00  0.00     0.068 A 
HETATM    9  C   UNL     1      21.957  50.298  47.665  1.00  0.00     0.037 A 
HETATM   10  C   UNL     1      20.602  50.594  47.477  1.00  0.00     0.012 A 
BRANCH   8  11
HETATM   11  O   UNL     1      23.830  50.156  49.244  1.00  0.00    -0.356 OA
HETATM   12  C   UNL     1      24.275  48.833  48.961  1.00  0.00     0.210 C 
ENDBRANCH   8  11
ENDBRANCH   4   5
BRANCH   4  13
HETATM   13  C   UNL     1      17.443  51.750  49.483  1.00  0.00     0.245 C 
HETATM   14  N   UNL     1      16.694  52.869  49.239  1.00  0.00    -0.354 N 
HETATM   15  H   UNL     1      16.986  53.412  48.425  1.00  0.00     0.162 HD
HETATM   16  O   UNL     1      17.568  51.222  50.594  1.00  0.00    -0.271 OA
BRANCH  14  17
HETATM   17  C   UNL     1      15.847  53.582  50.190  1.00  0.00     0.084 C 
HETATM   18  C   UNL     1      15.684  55.071  49.877  1.00  0.00     0.025 C 
HETATM   19  C   UNL     1      14.207  55.301  49.564  1.00  0.00     0.002 C 
HETATM   20  C   UNL     1      13.561  53.928  49.458  1.00  0.00     0.002 C 
HETATM   21  C   UNL     1      14.432  53.020  50.309  1.00  0.00     0.025 C 
ENDBRANCH  14  17
ENDBRANCH   4  13
ENDBRANCH   1   4
BRANCH   1  22
HETATM   22  C   UNL     1      17.211  48.932  48.554  1.00  0.00     0.155 C 
BRANCH  22  23
HETATM   23  C   UNL     1      18.396  48.115  49.119  1.00  0.00     0.255 C 
BRANCH  23  24
HETATM   24  N   UNL     1      19.005  47.139  48.138  1.00  0.00    -0.066 N 
HETATM   25  H   UNL     1      18.788  47.445  47.167  1.00  0.00     0.280 HD
HETATM   26  C   UNL     1      20.516  46.995  48.251  1.00  0.00     0.261 C 
HETATM   27  C   UNL     1      21.025  45.973  47.228  1.00  0.00     0.195 C 
HETATM   28  O   UNL     1      20.389  44.704  47.421  1.00  0.00    -0.388 OA
HETATM   29  C   UNL     1      18.973  44.801  47.231  1.00  0.00     0.195 C 
HETATM   30  C   UNL     1      18.348  45.761  48.249  1.00  0.00     0.261 C 
ENDBRANCH  23  24
ENDBRANCH  22  23
ENDBRANCH   1  22
BRANCH   2  31
HETATM   31  C   UNL     1      16.526  49.104  45.724  1.00  0.00     0.115 A 
HETATM   32  S   UNL     1      14.835  49.223  45.549  1.00  0.00     0.019 SA
HETATM   33  N   UNL     1      14.616  47.710  44.913  1.00  0.00    -0.203 NA
HETATM   34  C   UNL     1      15.814  47.131  44.726  1.00  0.00     0.155 A 
HETATM   35  C   UNL     1      16.948  47.919  45.165  1.00  0.00     0.065 A 
BRANCH  34  36
HETATM   36  C   UNL     1      15.898  45.795  44.112  1.00  0.00     0.270 C 
HETATM   37  N   UNL     1      16.332  44.795  44.937  1.00  0.00    -0.365 N 
HETATM   38  H   UNL     1      16.504  44.986  45.918  1.00  0.00     0.159 HD
HETATM   39  H   UNL     1      16.351  43.844  44.599  1.00  0.00     0.159 HD
HETATM   40  O   UNL     1      15.604  45.578  42.940  1.00  0.00    -0.266 OA
ENDBRANCH  34  36
BRANCH  35  41
HETATM   41  N   UNL     1      18.255  47.542  45.062  1.00  0.00    -0.299 NA
HETATM   42  H   UNL     1      18.603  47.404  44.101  1.00  0.00     0.124 HD
HETATM   43  H   UNL     1      18.948  48.084  45.583  1.00  0.00     0.124 HD
ENDBRANCH  35  41
ENDBRANCH   2  31
TORSDOF 11
ENDMDL
MODEL 7
REMARK VINA RESULT:      -7.5      3.910      9.125
REMARK  11 active torsions:
REMARK  status: ('A' for Active; 'I' for Inactive)
REMARK    1  A    between atoms: O_2  and  C_3 
REMARK    2  A    between atoms: C_6  and  C_7 
REMARK    3  A    between atoms: C_7  and  N_8 
REMARK    4  A    between atoms: C_7  and  C_29 
REMARK       I    between atoms: N_8  and  C_9 
REMARK    5  A    between atoms: N_8  and  C_20 
REMARK    6  A    between atoms: C_9  and  C_10 
REMARK    7  A    between atoms: C_13  and  C_14 
REMARK       I    between atoms: C_14  and  N_15 
REMARK    8  A    between atoms: C_17  and  N_18 
REMARK    9  A    between atoms: C_20  and  C_21 
REMARK   10  A    between atoms: C_21  and  N_22 
REMARK       I    between atoms: C_29  and  N_30 
REMARK   11  A    between atoms: N_30  and  C_31 
ROOT
HETATM    1  N   UNL     1      21.952  45.874  48.524  1.00  0.00    -0.328 N 
HETATM    2  C   UNL     1      20.547  45.892  48.606  1.00  0.00     0.265 C 
HETATM    3  O   UNL     1      19.922  44.873  48.895  1.00  0.00    -0.267 OA
ENDROOT
BRANCH   1   4
HETATM    4  C   UNL     1      22.633  44.582  48.741  1.00  0.00     0.213 C 
BRANCH   4   5
HETATM    5  C   UNL     1      23.906  44.579  49.571  1.00  0.00    -0.026 A 
HETATM    6  C   UNL     1      23.904  44.739  50.963  1.00  0.00     0.012 A 
HETATM    7  C   UNL     1      25.082  44.588  51.703  1.00  0.00     0.037 A 
HETATM    8  C   UNL     1      26.280  44.245  51.077  1.00  0.00     0.068 A 
HETATM    9  C   UNL     1      26.305  44.101  49.693  1.00  0.00     0.037 A 
HETATM   10  C   UNL     1      25.129  44.260  48.950  1.00  0.00     0.012 A 
BRANCH   8  11
HETATM   11  O   UNL     1      27.345  44.084  51.916  1.00  0.00    -0.356 OA
HETATM   12  C   UNL     1      27.146  43.224  53.033  1.00  0.00     0.210 C 
ENDBRANCH   8  11
ENDBRANCH   4   5
BRANCH   4  13
HETATM   13  C   UNL     1      22.630  43.799  47.408  1.00  0.00     0.245 C 
HETATM   14  N   UNL     1      22.361  42.458  47.468  1.00  0.00    -0.354 N 
HETATM   15  H   UNL     1      22.480  42.038  48.391  1.00  0.00     0.162 HD
HETATM   16  O   UNL     1      22.980  44.395  46.384  1.00  0.00    -0.271 OA
BRANCH  14  17
HETATM   17  C   UNL     1      22.343  41.517  46.354  1.00  0.00     0.084 C 
HETATM   18  C   UNL     1      23.598  40.645  46.260  1.00  0.00     0.025 C 
HETATM   19  C   UNL     1      23.153  39.201  46.484  1.00  0.00     0.002 C 
HETATM   20  C   UNL     1      21.704  39.252  46.942  1.00  0.00     0.002 C 
HETATM   21  C   UNL     1      21.160  40.550  46.370  1.00  0.00     0.025 C 
ENDBRANCH  14  17
ENDBRANCH   4  13
ENDBRANCH   1   4
BRANCH   1  22
HETATM   22  C   UNL     1      22.788  47.050  48.211  1.00  0.00     0.155 C 
BRANCH  22  23
HETATM   23  C   UNL     1      22.979  48.061  49.366  1.00  0.00     0.255 C 
BRANCH  23  24
HETATM   24  N   UNL     1      24.335  48.730  49.390  1.00  0.00    -0.066 N 
HETATM   25  H   UNL     1      24.357  49.438  50.152  1.00  0.00     0.280 HD
HETATM   26  C   UNL     1      25.502  47.778  49.608  1.00  0.00     0.261 C 
HETATM   27  C   UNL     1      26.824  48.553  49.596  1.00  0.00     0.195 C 
HETATM   28  O   UNL     1      26.984  49.262  48.362  1.00  0.00    -0.388 OA
HETATM   29  C   UNL     1      25.943  50.228  48.180  1.00  0.00     0.195 C 
HETATM   30  C   UNL     1      24.571  49.549  48.118  1.00  0.00     0.261 C 
ENDBRANCH  23  24
ENDBRANCH  22  23
ENDBRANCH   1  22
BRANCH   2  31
HETATM   31  C   UNL     1      19.877  47.140  48.366  1.00  0.00     0.115 A 
HETATM   32  S   UNL     1      19.614  47.665  46.766  1.00  0.00     0.019 SA
HETATM   33  N   UNL     1      18.929  49.118  47.168  1.00  0.00    -0.203 NA
HETATM   34  C   UNL     1      18.792  49.190  48.502  1.00  0.00     0.155 A 
HETATM   35  C   UNL     1      19.311  48.050  49.231  1.00  0.00     0.065 A 
BRANCH  34  36
HETATM   36  C   UNL     1      18.150  50.366  49.114  1.00  0.00     0.270 C 
HETATM   37  N   UNL     1      17.737  51.331  48.240  1.00  0.00    -0.365 N 
HETATM   38  H   UNL     1      17.816  51.178  47.241  1.00  0.00     0.159 HD
HETATM   39  H   UNL     1      17.231  52.133  48.587  1.00  0.00     0.159 HD
HETATM   40  O   UNL     1      17.993  50.486  50.326  1.00  0.00    -0.266 OA
ENDBRANCH  34  36
BRANCH  35  41
HETATM   41  N   UNL     1      19.269  47.898  50.586  1.00  0.00    -0.299 NA
HETATM   42  H   UNL     1      18.470  48.345  51.059  1.00  0.00     0.124 HD
HETATM   43  H   UNL     1      19.378  46.953  50.961  1.00  0.00     0.124 HD
ENDBRANCH  35  41
ENDBRANCH   2  31
TORSDOF 11
ENDMDL
MODEL 8
REMARK VINA RESULT:      -7.5      2.105      6.691
REMARK  11 active torsions:
REMARK  status: ('A' for Active; 'I' for Inactive)
REMARK    1  A    between atoms: O_2  and  C_3 
REMARK    2  A    between atoms: C_6  and  C_7 
REMARK    3  A    between atoms: C_7  and  N_8 
REMARK    4  A    between atoms: C_7  and  C_29 
REMARK       I    between atoms: N_8  and  C_9 
REMARK    5  A    between atoms: N_8  and  C_20 
REMARK    6  A    between atoms: C_9  and  C_10 
REMARK    7  A    between atoms: C_13  and  C_14 
REMARK       I    between atoms: C_14  and  N_15 
REMARK    8  A    between atoms: C_17  and  N_18 
REMARK    9  A    between atoms: C_20  and  C_21 
REMARK   10  A    between atoms: C_21  and  N_22 
REMARK       I    between atoms: C_29  and  N_30 
REMARK   11  A    between atoms: N_30  and  C_31 
ROOT
HETATM    1  N   UNL     1      26.191  43.003  49.610  1.00  0.00    -0.328 N 
HETATM    2  C   UNL     1      24.986  42.286  49.484  1.00  0.00     0.265 C 
HETATM    3  O   UNL     1      24.899  41.128  49.888  1.00  0.00    -0.267 OA
ENDROOT
BRANCH   1   4
HETATM    4  C   UNL     1      27.350  42.296  50.191  1.00  0.00     0.213 C 
BRANCH   4   5
HETATM    5  C   UNL     1      27.855  41.052  49.479  1.00  0.00    -0.026 A 
HETATM    6  C   UNL     1      28.188  39.871  50.155  1.00  0.00     0.012 A 
HETATM    7  C   UNL     1      28.512  38.708  49.449  1.00  0.00     0.037 A 
HETATM    8  C   UNL     1      28.481  38.686  48.056  1.00  0.00     0.068 A 
HETATM    9  C   UNL     1      28.170  39.854  47.366  1.00  0.00     0.037 A 
HETATM   10  C   UNL     1      27.856  41.022  48.070  1.00  0.00     0.012 A 
BRANCH   8  11
HETATM   11  O   UNL     1      28.772  37.478  47.489  1.00  0.00    -0.356 OA
HETATM   12  C   UNL     1      27.672  36.745  46.961  1.00  0.00     0.210 C 
ENDBRANCH   8  11
ENDBRANCH   4   5
BRANCH   4  13
HETATM   13  C   UNL     1      27.166  42.234  51.724  1.00  0.00     0.245 C 
HETATM   14  N   UNL     1      27.793  43.194  52.471  1.00  0.00    -0.354 N 
HETATM   15  H   UNL     1      28.555  43.679  51.995  1.00  0.00     0.162 HD
HETATM   16  O   UNL     1      26.564  41.263  52.198  1.00  0.00    -0.271 OA
BRANCH  14  17
HETATM   17  C   UNL     1      27.795  43.312  53.925  1.00  0.00     0.084 C 
HETATM   18  C   UNL     1      29.135  43.771  54.507  1.00  0.00     0.025 C 
HETATM   19  C   UNL     1      28.891  45.127  55.166  1.00  0.00     0.002 C 
HETATM   20  C   UNL     1      27.491  45.566  54.767  1.00  0.00     0.002 C 
HETATM   21  C   UNL     1      26.746  44.275  54.477  1.00  0.00     0.025 C 
ENDBRANCH  14  17
ENDBRANCH   4  13
ENDBRANCH   1   4
BRANCH   1  22
HETATM   22  C   UNL     1      26.382  44.402  49.180  1.00  0.00     0.155 C 
BRANCH  22  23
HETATM   23  C   UNL     1      25.865  45.481  50.160  1.00  0.00     0.255 C 
BRANCH  23  24
HETATM   24  N   UNL     1      25.438  46.771  49.497  1.00  0.00    -0.066 N 
HETATM   25  H   UNL     1      25.297  46.606  48.480  1.00  0.00     0.280 HD
HETATM   26  C   UNL     1      24.153  47.367  50.053  1.00  0.00     0.261 C 
HETATM   27  C   UNL     1      23.823  48.677  49.327  1.00  0.00     0.195 C 
HETATM   28  O   UNL     1      24.901  49.611  49.454  1.00  0.00    -0.388 OA
HETATM   29  C   UNL     1      26.099  49.105  48.857  1.00  0.00     0.195 C 
HETATM   30  C   UNL     1      26.555  47.817  49.551  1.00  0.00     0.261 C 
ENDBRANCH  23  24
ENDBRANCH  22  23
ENDBRANCH   1  22
BRANCH   2  31
HETATM   31  C   UNL     1      23.864  42.959  48.891  1.00  0.00     0.115 A 
HETATM   32  S   UNL     1      23.605  42.853  47.210  1.00  0.00     0.019 SA
HETATM   33  N   UNL     1      22.293  43.863  47.170  1.00  0.00    -0.203 NA
HETATM   34  C   UNL     1      21.965  44.214  48.424  1.00  0.00     0.155 A 
HETATM   35  C   UNL     1      22.842  43.690  49.453  1.00  0.00     0.065 A 
BRANCH  34  36
HETATM   36  C   UNL     1      20.789  45.066  48.667  1.00  0.00     0.270 C 
HETATM   37  N   UNL     1      21.062  46.348  49.055  1.00  0.00    -0.365 N 
HETATM   38  H   UNL     1      22.021  46.674  49.090  1.00  0.00     0.159 HD
HETATM   39  H   UNL     1      20.303  47.003  49.174  1.00  0.00     0.159 HD
HETATM   40  O   UNL     1      19.635  44.666  48.537  1.00  0.00    -0.266 OA
ENDBRANCH  34  36
BRANCH  35  41
HETATM   41  N   UNL     1      22.696  43.903  50.793  1.00  0.00    -0.299 NA
HETATM   42  H   UNL     1      22.014  44.630  51.055  1.00  0.00     0.124 HD
HETATM   43  H   UNL     1      22.544  43.087  51.389  1.00  0.00     0.124 HD
ENDBRANCH  35  41
ENDBRANCH   2  31
TORSDOF 11
ENDMDL
MODEL 9
REMARK VINA RESULT:      -7.4     14.759     17.482
REMARK  11 active torsions:
REMARK  status: ('A' for Active; 'I' for Inactive)
REMARK    1  A    between atoms: O_2  and  C_3 
REMARK    2  A    between atoms: C_6  and  C_7 
REMARK    3  A    between atoms: C_7  and  N_8 
REMARK    4  A    between atoms: C_7  and  C_29 
REMARK       I    between atoms: N_8  and  C_9 
REMARK    5  A    between atoms: N_8  and  C_20 
REMARK    6  A    between atoms: C_9  and  C_10 
REMARK    7  A    between atoms: C_13  and  C_14 
REMARK       I    between atoms: C_14  and  N_15 
REMARK    8  A    between atoms: C_17  and  N_18 
REMARK    9  A    between atoms: C_20  and  C_21 
REMARK   10  A    between atoms: C_21  and  N_22 
REMARK       I    between atoms: C_29  and  N_30 
REMARK   11  A    between atoms: N_30  and  C_31 
ROOT
HETATM    1  N   UNL     1      36.741  52.784  40.429  1.00  0.00    -0.328 N 
HETATM    2  C   UNL     1      37.580  51.681  40.183  1.00  0.00     0.265 C 
HETATM    3  O   UNL     1      37.576  51.120  39.089  1.00  0.00    -0.267 OA
ENDROOT
BRANCH   1   4
HETATM    4  C   UNL     1      35.824  53.199  39.348  1.00  0.00     0.213 C 
BRANCH   4   5
HETATM    5  C   UNL     1      35.814  54.665  38.947  1.00  0.00    -0.026 A 
HETATM    6  C   UNL     1      34.820  55.560  39.365  1.00  0.00     0.012 A 
HETATM    7  C   UNL     1      34.927  56.928  39.090  1.00  0.00     0.037 A 
HETATM    8  C   UNL     1      36.039  57.438  38.423  1.00  0.00     0.068 A 
HETATM    9  C   UNL     1      37.028  56.562  37.984  1.00  0.00     0.037 A 
HETATM   10  C   UNL     1      36.918  55.192  38.248  1.00  0.00     0.012 A 
BRANCH   8  11
HETATM   11  O   UNL     1      36.044  58.793  38.258  1.00  0.00    -0.356 OA
HETATM   12  C   UNL     1      34.770  59.427  38.201  1.00  0.00     0.210 C 
ENDBRANCH   8  11
ENDBRANCH   4   5
BRANCH   4  13
HETATM   13  C   UNL     1      34.466  52.492  39.561  1.00  0.00     0.245 C 
HETATM   14  N   UNL     1      34.230  51.943  40.793  1.00  0.00    -0.354 N 
HETATM   15  H   UNL     1      35.065  51.785  41.359  1.00  0.00     0.162 HD
HETATM   16  O   UNL     1      33.721  52.360  38.584  1.00  0.00    -0.271 OA
BRANCH  14  17
HETATM   17  C   UNL     1      33.046  51.199  41.209  1.00  0.00     0.084 C 
HETATM   18  C   UNL     1      33.253  50.368  42.478  1.00  0.00     0.025 C 
HETATM   19  C   UNL     1      32.321  50.944  43.543  1.00  0.00     0.002 C 
HETATM   20  C   UNL     1      31.757  52.240  42.980  1.00  0.00     0.002 C 
HETATM   21  C   UNL     1      31.820  52.070  41.472  1.00  0.00     0.025 C 
ENDBRANCH  14  17
ENDBRANCH   4  13
ENDBRANCH   1   4
BRANCH   1  22
HETATM   22  C   UNL     1      36.695  53.536  41.698  1.00  0.00     0.155 C 
BRANCH  22  23
HETATM   23  C   UNL     1      37.837  54.557  41.914  1.00  0.00     0.255 C 
BRANCH  23  24
HETATM   24  N   UNL     1      38.296  54.685  43.348  1.00  0.00    -0.066 N 
HETATM   25  H   UNL     1      39.250  54.279  43.443  1.00  0.00     0.280 HD
HETATM   26  C   UNL     1      38.348  56.115  43.866  1.00  0.00     0.261 C 
HETATM   27  C   UNL     1      38.806  56.128  45.329  1.00  0.00     0.195 C 
HETATM   28  O   UNL     1      37.931  55.337  46.141  1.00  0.00    -0.388 OA
HETATM   29  C   UNL     1      37.936  53.967  45.725  1.00  0.00     0.195 C 
HETATM   30  C   UNL     1      37.435  53.831  44.283  1.00  0.00     0.261 C 
ENDBRANCH  23  24
ENDBRANCH  22  23
ENDBRANCH   1  22
BRANCH   2  31
HETATM   31  C   UNL     1      38.452  51.254  41.242  1.00  0.00     0.115 A 
HETATM   32  S   UNL     1      40.110  51.645  41.183  1.00  0.00     0.019 SA
HETATM   33  N   UNL     1      40.533  50.828  42.560  1.00  0.00    -0.203 NA
HETATM   34  C   UNL     1      39.426  50.336  43.141  1.00  0.00     0.155 A 
HETATM   35  C   UNL     1      38.196  50.582  42.416  1.00  0.00     0.065 A 
BRANCH  34  36
HETATM   36  C   UNL     1      39.526  49.613  44.421  1.00  0.00     0.270 C 
HETATM   37  N   UNL     1      39.077  48.323  44.403  1.00  0.00    -0.365 N 
HETATM   38  H   UNL     1      38.773  47.903  43.532  1.00  0.00     0.159 HD
HETATM   39  H   UNL     1      39.177  47.750  45.229  1.00  0.00     0.159 HD
HETATM   40  O   UNL     1      39.976  50.124  45.443  1.00  0.00    -0.266 OA
ENDBRANCH  34  36
BRANCH  35  41
HETATM   41  N   UNL     1      36.953  50.189  42.821  1.00  0.00    -0.299 NA
HETATM   42  H   UNL     1      36.865  49.196  43.083  1.00  0.00     0.124 HD
HETATM   43  H   UNL     1      36.485  50.754  43.533  1.00  0.00     0.124 HD
ENDBRANCH  35  41
ENDBRANCH   2  31
TORSDOF 11
ENDMDL
MODEL 10
REMARK VINA RESULT:      -7.4      7.376     11.042
REMARK  11 active torsions:
REMARK  status: ('A' for Active; 'I' for Inactive)
REMARK    1  A    between atoms: O_2  and  C_3 
REMARK    2  A    between atoms: C_6  and  C_7 
REMARK    3  A    between atoms: C_7  and  N_8 
REMARK    4  A    between atoms: C_7  and  C_29 
REMARK       I    between atoms: N_8  and  C_9 
REMARK    5  A    between atoms: N_8  and  C_20 
REMARK    6  A    between atoms: C_9  and  C_10 
REMARK    7  A    between atoms: C_13  and  C_14 
REMARK       I    between atoms: C_14  and  N_15 
REMARK    8  A    between atoms: C_17  and  N_18 
REMARK    9  A    between atoms: C_20  and  C_21 
REMARK   10  A    between atoms: C_21  and  N_22 
REMARK       I    between atoms: C_29  and  N_30 
REMARK   11  A    between atoms: N_30  and  C_31 
ROOT
HETATM    1  N   UNL     1      17.279  48.964  47.343  1.00  0.00    -0.328 N 
HETATM    2  C   UNL     1      17.063  47.753  48.028  1.00  0.00     0.265 C 
HETATM    3  O   UNL     1      16.009  47.548  48.626  1.00  0.00    -0.267 OA
ENDROOT
BRANCH   1   4
HETATM    4  C   UNL     1      16.219  49.990  47.420  1.00  0.00     0.213 C 
BRANCH   4   5
HETATM    5  C   UNL     1      15.927  50.806  46.172  1.00  0.00    -0.026 A 
HETATM    6  C   UNL     1      15.009  50.398  45.195  1.00  0.00     0.012 A 
HETATM    7  C   UNL     1      14.666  51.244  44.136  1.00  0.00     0.037 A 
HETATM    8  C   UNL     1      15.206  52.526  44.042  1.00  0.00     0.068 A 
HETATM    9  C   UNL     1      16.134  52.942  44.992  1.00  0.00     0.037 A 
HETATM   10  C   UNL     1      16.486  52.094  46.048  1.00  0.00     0.012 A 
BRANCH   8  11
HETATM   11  O   UNL     1      14.756  53.267  42.987  1.00  0.00    -0.356 OA
HETATM   12  C   UNL     1      15.347  54.552  42.820  1.00  0.00     0.210 C 
ENDBRANCH   8  11
ENDBRANCH   4   5
BRANCH   4  13
HETATM   13  C   UNL     1      16.363  50.739  48.764  1.00  0.00     0.245 C 
HETATM   14  N   UNL     1      15.464  51.738  49.026  1.00  0.00    -0.354 N 
HETATM   15  H   UNL     1      14.974  52.100  48.206  1.00  0.00     0.162 HD
HETATM   16  O   UNL     1      17.342  50.478  49.473  1.00  0.00    -0.271 OA
BRANCH  14  17
HETATM   17  C   UNL     1      15.429  52.601  50.202  1.00  0.00     0.084 C 
HETATM   18  C   UNL     1      16.216  53.903  50.036  1.00  0.00     0.025 C 
HETATM   19  C   UNL     1      15.204  55.046  50.119  1.00  0.00     0.002 C 
HETATM   20  C   UNL     1      13.822  54.414  50.090  1.00  0.00     0.002 C 
HETATM   21  C   UNL     1      14.023  53.011  50.636  1.00  0.00     0.025 C 
ENDBRANCH  14  17
ENDBRANCH   4  13
ENDBRANCH   1   4
BRANCH   1  22
HETATM   22  C   UNL     1      18.498  49.288  46.577  1.00  0.00     0.155 C 
BRANCH  22  23
HETATM   23  C   UNL     1      19.316  50.492  47.099  1.00  0.00     0.255 C 
BRANCH  23  24
HETATM   24  N   UNL     1      20.297  50.149  48.197  1.00  0.00    -0.066 N 
HETATM   25  H   UNL     1      19.934  49.343  48.746  1.00  0.00     0.280 HD
HETATM   26  C   UNL     1      21.690  49.785  47.705  1.00  0.00     0.261 C 
HETATM   27  C   UNL     1      22.605  49.475  48.895  1.00  0.00     0.195 C 
HETATM   28  O   UNL     1      22.671  50.593  49.787  1.00  0.00    -0.388 OA
HETATM   29  C   UNL     1      21.382  50.897  50.332  1.00  0.00     0.195 C 
HETATM   30  C   UNL     1      20.395  51.281  49.224  1.00  0.00     0.261 C 
ENDBRANCH  23  24
ENDBRANCH  22  23
ENDBRANCH   1  22
BRANCH   2  31
HETATM   31  C   UNL     1      18.103  46.763  47.982  1.00  0.00     0.115 A 
HETATM   32  S   UNL     1      18.023  45.504  46.836  1.00  0.00     0.019 SA
HETATM   33  N   UNL     1      19.383  44.711  47.349  1.00  0.00    -0.203 NA
HETATM   34  C   UNL     1      19.976  45.430  48.317  1.00  0.00     0.155 A 
HETATM   35  C   UNL     1      19.273  46.639  48.697  1.00  0.00     0.065 A 
BRANCH  34  36
HETATM   36  C   UNL     1      21.246  44.968  48.904  1.00  0.00     0.270 C 
HETATM   37  N   UNL     1      22.147  45.951  49.203  1.00  0.00    -0.365 N 
HETATM   38  H   UNL     1      21.893  46.925  49.083  1.00  0.00     0.159 HD
HETATM   39  H   UNL     1      23.010  45.710  49.667  1.00  0.00     0.159 HD
HETATM   40  O   UNL     1      21.493  43.783  49.114  1.00  0.00    -0.266 OA
ENDBRANCH  34  36
BRANCH  35  41
HETATM   41  N   UNL     1      19.693  47.527  49.644  1.00  0.00    -0.299 NA
HETATM   42  H   UNL     1      19.947  47.118  50.555  1.00  0.00     0.124 HD
HETATM   43  H   UNL     1      20.417  48.199  49.377  1.00  0.00     0.124 HD
ENDBRANCH  35  41
ENDBRANCH   2  31
TORSDOF 11
ENDMDL
