MODEL 1
REMARK VINA RESULT:      -9.7      0.000      0.000
REMARK  5 active torsions:
REMARK  status: ('A' for Active; 'I' for Inactive)
REMARK    1  A    between atoms: C_6  and  O_7 
REMARK    2  A    between atoms: O_7  and  C_8 
REMARK    3  A    between atoms: C_8  and  C_9 
REMARK       I    between atoms: C_9  and  N_10 
REMARK    4  A    between atoms: N_10  and  N_11 
REMARK    5  A    between atoms: C_12  and  C_13 
ROOT
HETATM    1  C   UNL     1      26.379  46.586  53.431  1.00  0.00     0.261 C 
HETATM    2  N   UNL     1      25.771  46.321  52.211  1.00  0.00    -0.246 N 
HETATM    3  O   UNL     1      26.608  47.705  53.884  1.00  0.00    -0.269 OA
HETATM    4  H   UNL     1      25.659  45.357  51.909  1.00  0.00     0.192 HD
ENDROOT
BRANCH   2   5
HETATM    5  N   UNL     1      25.394  47.354  51.406  1.00  0.00    -0.184 NA
HETATM    6  C   UNL     1      25.938  47.399  50.234  1.00  0.00     0.152 C 
BRANCH   6   7
HETATM    7  C   UNL     1      25.571  48.472  49.330  1.00  0.00     0.011 A 
HETATM    8  C   UNL     1      24.256  48.912  48.973  1.00  0.00     0.005 A 
HETATM    9  C   UNL     1      24.400  49.981  48.083  1.00  0.00     0.043 A 
HETATM   10  C   UNL     1      22.950  48.515  49.334  1.00  0.00     0.033 A 
HETATM   11  C   UNL     1      23.313  50.669  47.533  1.00  0.00     0.031 A 
HETATM   12  N   UNL     1      25.749  50.177  47.901  1.00  0.00    -0.364 N 
HETATM   13  C   UNL     1      22.029  50.258  47.907  1.00  0.00     0.021 A 
HETATM   14  C   UNL     1      21.855  49.199  48.793  1.00  0.00     0.012 A 
HETATM   15 BR   UNL     1      20.104  48.676  49.285  1.00  0.00    -0.051 Br
HETATM   16  H   UNL     1      26.154  50.889  47.308  1.00  0.00     0.165 HD
HETATM   17  C   UNL     1      26.460  49.283  48.648  1.00  0.00     0.102 A 
ENDBRANCH   6   7
ENDBRANCH   2   5
BRANCH   1  18
HETATM   18  C   UNL     1      26.647  45.327  54.250  1.00  0.00     0.280 C 
BRANCH  18  19
HETATM   19  O   UNL     1      27.745  44.588  53.715  1.00  0.00    -0.342 OA
BRANCH  19  20
HETATM   20  C   UNL     1      28.774  44.416  54.604  1.00  0.00     0.069 A 
HETATM   21  C   UNL     1      28.998  45.238  55.710  1.00  0.00     0.044 A 
HETATM   22  C   UNL     1      30.068  44.989  56.589  1.00  0.00    -0.053 A 
HETATM   23  C   UNL     1      30.931  43.904  56.337  1.00  0.00    -0.056 A 
HETATM   24  C   UNL     1      30.280  45.907  57.763  1.00  0.00     0.049 C 
HETATM   25  C   UNL     1      32.094  43.597  57.242  1.00  0.00     0.049 C 
HETATM   26  C   UNL     1      30.674  43.066  55.241  1.00  0.00     0.010 A 
HETATM   27  C   UNL     1      29.599  43.317  54.386  1.00  0.00     0.037 A 
ENDBRANCH  19  20
ENDBRANCH  18  19
ENDBRANCH   1  18
TORSDOF 5
ENDMDL
MODEL 2
REMARK VINA RESULT:      -9.5      3.497     10.025
REMARK  5 active torsions:
REMARK  status: ('A' for Active; 'I' for Inactive)
REMARK    1  A    between atoms: C_6  and  O_7 
REMARK    2  A    between atoms: O_7  and  C_8 
REMARK    3  A    between atoms: C_8  and  C_9 
REMARK       I    between atoms: C_9  and  N_10 
REMARK    4  A    between atoms: N_10  and  N_11 
REMARK    5  A    between atoms: C_12  and  C_13 
ROOT
HETATM    1  C   UNL     1      24.232  47.934  49.720  1.00  0.00     0.261 C 
HETATM    2  N   UNL     1      24.268  47.141  50.859  1.00  0.00    -0.246 N 
HETATM    3  O   UNL     1      24.991  48.872  49.482  1.00  0.00    -0.269 OA
HETATM    4  H   UNL     1      23.571  46.411  50.980  1.00  0.00     0.192 HD
ENDROOT
BRANCH   2   5
HETATM    5  N   UNL     1      25.192  47.392  51.829  1.00  0.00    -0.184 NA
HETATM    6  C   UNL     1      25.286  46.517  52.776  1.00  0.00     0.152 C 
BRANCH   6   7
HETATM    7  C   UNL     1      26.257  46.727  53.833  1.00  0.00     0.011 A 
HETATM    8  C   UNL     1      27.368  45.896  54.186  1.00  0.00     0.005 A 
HETATM    9  C   UNL     1      28.024  46.510  55.257  1.00  0.00     0.043 A 
HETATM   10  C   UNL     1      27.893  44.684  53.687  1.00  0.00     0.033 A 
HETATM   11  C   UNL     1      29.171  45.976  55.857  1.00  0.00     0.031 A 
HETATM   12  N   UNL     1      27.335  47.664  55.548  1.00  0.00    -0.364 N 
HETATM   13  C   UNL     1      29.672  44.776  55.344  1.00  0.00     0.021 A 
HETATM   14  C   UNL     1      29.041  44.144  54.276  1.00  0.00     0.012 A 
HETATM   15 BR   UNL     1      29.754  42.526  53.601  1.00  0.00    -0.051 Br
HETATM   16  H   UNL     1      27.583  48.316  56.280  1.00  0.00     0.165 HD
HETATM   17  C   UNL     1      26.277  47.808  54.696  1.00  0.00     0.102 A 
ENDBRANCH   6   7
ENDBRANCH   2   5
BRANCH   1  18
HETATM   18  C   UNL     1      23.209  47.460  48.694  1.00  0.00     0.280 C 
BRANCH  18  19
HETATM   19  O   UNL     1      22.801  48.529  47.840  1.00  0.00    -0.342 OA
BRANCH  19  20
HETATM   20  C   UNL     1      21.781  49.284  48.357  1.00  0.00     0.069 A 
HETATM   21  C   UNL     1      20.804  48.791  49.225  1.00  0.00     0.044 A 
HETATM   22  C   UNL     1      19.796  49.633  49.729  1.00  0.00    -0.053 A 
HETATM   23  C   UNL     1      19.766  50.986  49.339  1.00  0.00    -0.056 A 
HETATM   24  C   UNL     1      18.757  49.057  50.654  1.00  0.00     0.049 C 
HETATM   25  C   UNL     1      18.706  51.928  49.844  1.00  0.00     0.049 C 
HETATM   26  C   UNL     1      20.772  51.476  48.493  1.00  0.00     0.010 A 
HETATM   27  C   UNL     1      21.776  50.632  48.012  1.00  0.00     0.037 A 
ENDBRANCH  19  20
ENDBRANCH  18  19
ENDBRANCH   1  18
TORSDOF 5
ENDMDL
MODEL 3
REMARK VINA RESULT:      -9.4      1.874      2.739
REMARK  5 active torsions:
REMARK  status: ('A' for Active; 'I' for Inactive)
REMARK    1  A    between atoms: C_6  and  O_7 
REMARK    2  A    between atoms: O_7  and  C_8 
REMARK    3  A    between atoms: C_8  and  C_9 
REMARK       I    between atoms: C_9  and  N_10 
REMARK    4  A    between atoms: N_10  and  N_11 
REMARK    5  A    between atoms: C_12  and  C_13 
ROOT
HETATM    1  C   UNL     1      26.492  47.095  54.182  1.00  0.00     0.261 C 
HETATM    2  N   UNL     1      26.493  47.444  52.838  1.00  0.00    -0.246 N 
HETATM    3  O   UNL     1      25.600  46.474  54.756  1.00  0.00    -0.269 OA
HETATM    4  H   UNL     1      27.263  47.992  52.466  1.00  0.00     0.192 HD
ENDROOT
BRANCH   2   5
HETATM    5  N   UNL     1      25.432  47.106  52.052  1.00  0.00    -0.184 NA
HETATM    6  C   UNL     1      25.698  46.804  50.824  1.00  0.00     0.152 C 
BRANCH   6   7
HETATM    7  C   UNL     1      24.610  46.429  49.940  1.00  0.00     0.011 A 
HETATM    8  C   UNL     1      23.622  47.282  49.350  1.00  0.00     0.005 A 
HETATM    9  C   UNL     1      22.791  46.476  48.566  1.00  0.00     0.043 A 
HETATM   10  C   UNL     1      23.361  48.668  49.394  1.00  0.00     0.033 A 
HETATM   11  C   UNL     1      21.713  46.980  47.829  1.00  0.00     0.031 A 
HETATM   12  N   UNL     1      23.252  45.185  48.681  1.00  0.00    -0.364 N 
HETATM   13  C   UNL     1      21.476  48.357  47.886  1.00  0.00     0.021 A 
HETATM   14  C   UNL     1      22.289  49.184  48.657  1.00  0.00     0.012 A 
HETATM   15 BR   UNL     1      21.944  51.044  48.703  1.00  0.00    -0.051 Br
HETATM   16  H   UNL     1      22.844  44.383  48.218  1.00  0.00     0.165 HD
HETATM   17  C   UNL     1      24.346  45.147  49.497  1.00  0.00     0.102 A 
ENDBRANCH   6   7
ENDBRANCH   2   5
BRANCH   1  18
HETATM   18  C   UNL     1      27.790  47.460  54.894  1.00  0.00     0.280 C 
BRANCH  18  19
HETATM   19  O   UNL     1      27.837  46.894  56.204  1.00  0.00    -0.342 OA
BRANCH  19  20
HETATM   20  C   UNL     1      28.840  45.975  56.368  1.00  0.00     0.069 A 
HETATM   21  C   UNL     1      29.191  45.021  55.411  1.00  0.00     0.044 A 
HETATM   22  C   UNL     1      30.246  44.119  55.643  1.00  0.00    -0.053 A 
HETATM   23  C   UNL     1      30.944  44.174  56.866  1.00  0.00    -0.056 A 
HETATM   24  C   UNL     1      30.584  43.099  54.589  1.00  0.00     0.049 C 
HETATM   25  C   UNL     1      32.076  43.228  57.169  1.00  0.00     0.049 C 
HETATM   26  C   UNL     1      30.603  45.158  57.805  1.00  0.00     0.010 A 
HETATM   27  C   UNL     1      29.564  46.057  57.554  1.00  0.00     0.037 A 
ENDBRANCH  19  20
ENDBRANCH  18  19
ENDBRANCH   1  18
TORSDOF 5
ENDMDL
MODEL 4
REMARK VINA RESULT:      -9.0      1.676      2.308
REMARK  5 active torsions:
REMARK  status: ('A' for Active; 'I' for Inactive)
REMARK    1  A    between atoms: C_6  and  O_7 
REMARK    2  A    between atoms: O_7  and  C_8 
REMARK    3  A    between atoms: C_8  and  C_9 
REMARK       I    between atoms: C_9  and  N_10 
REMARK    4  A    between atoms: N_10  and  N_11 
REMARK    5  A    between atoms: C_12  and  C_13 
ROOT
HETATM    1  C   UNL     1      25.781  46.711  51.790  1.00  0.00     0.261 C 
HETATM    2  N   UNL     1      25.327  46.949  50.501  1.00  0.00    -0.246 N 
HETATM    3  O   UNL     1      25.680  47.490  52.736  1.00  0.00    -0.269 OA
HETATM    4  H   UNL     1      25.492  46.254  49.777  1.00  0.00     0.192 HD
ENDROOT
BRANCH   2   5
HETATM    5  N   UNL     1      24.727  48.136  50.204  1.00  0.00    -0.184 NA
HETATM    6  C   UNL     1      23.694  48.083  49.428  1.00  0.00     0.152 C 
BRANCH   6   7
HETATM    7  C   UNL     1      23.010  49.314  49.082  1.00  0.00     0.011 A 
HETATM    8  C   UNL     1      21.600  49.532  48.956  1.00  0.00     0.005 A 
HETATM    9  C   UNL     1      21.415  50.877  48.620  1.00  0.00     0.043 A 
HETATM   10  C   UNL     1      20.457  48.719  49.112  1.00  0.00     0.033 A 
HETATM   11  C   UNL     1      20.152  51.448  48.428  1.00  0.00     0.031 A 
HETATM   12  N   UNL     1      22.663  51.450  48.538  1.00  0.00    -0.364 N 
HETATM   13  C   UNL     1      19.035  50.623  48.590  1.00  0.00     0.021 A 
HETATM   14  C   UNL     1      19.190  49.281  48.927  1.00  0.00     0.012 A 
HETATM   15 BR   UNL     1      17.655  48.196  49.147  1.00  0.00    -0.051 Br
HETATM   16  H   UNL     1      22.838  52.420  48.312  1.00  0.00     0.165 HD
HETATM   17  C   UNL     1      23.626  50.524  48.819  1.00  0.00     0.102 A 
ENDBRANCH   6   7
ENDBRANCH   2   5
BRANCH   1  18
HETATM   18  C   UNL     1      26.336  45.302  51.978  1.00  0.00     0.280 C 
BRANCH  18  19
HETATM   19  O   UNL     1      26.172  44.857  53.324  1.00  0.00    -0.342 OA
BRANCH  19  20
HETATM   20  C   UNL     1      27.354  44.563  53.952  1.00  0.00     0.069 A 
HETATM   21  C   UNL     1      28.011  45.427  54.829  1.00  0.00     0.044 A 
HETATM   22  C   UNL     1      29.215  45.048  55.449  1.00  0.00    -0.053 A 
HETATM   23  C   UNL     1      29.769  43.783  55.167  1.00  0.00    -0.056 A 
HETATM   24  C   UNL     1      29.896  46.015  56.380  1.00  0.00     0.049 C 
HETATM   25  C   UNL     1      31.058  43.330  55.798  1.00  0.00     0.049 C 
HETATM   26  C   UNL     1      29.082  42.911  54.310  1.00  0.00     0.010 A 
HETATM   27  C   UNL     1      27.879  43.296  53.713  1.00  0.00     0.037 A 
ENDBRANCH  19  20
ENDBRANCH  18  19
ENDBRANCH   1  18
TORSDOF 5
ENDMDL
MODEL 5
REMARK VINA RESULT:      -8.8      5.460      7.106
REMARK  5 active torsions:
REMARK  status: ('A' for Active; 'I' for Inactive)
REMARK    1  A    between atoms: C_6  and  O_7 
REMARK    2  A    between atoms: O_7  and  C_8 
REMARK    3  A    between atoms: C_8  and  C_9 
REMARK       I    between atoms: C_9  and  N_10 
REMARK    4  A    between atoms: N_10  and  N_11 
REMARK    5  A    between atoms: C_12  and  C_13 
ROOT
HETATM    1  C   UNL     1      25.766  44.739  53.622  1.00  0.00     0.261 C 
HETATM    2  N   UNL     1      26.394  44.676  52.386  1.00  0.00    -0.246 N 
HETATM    3  O   UNL     1      24.822  44.036  53.978  1.00  0.00    -0.269 OA
HETATM    4  H   UNL     1      27.144  45.329  52.174  1.00  0.00     0.192 HD
ENDROOT
BRANCH   2   5
HETATM    5  N   UNL     1      25.954  43.789  51.449  1.00  0.00    -0.184 NA
HETATM    6  C   UNL     1      26.607  42.677  51.358  1.00  0.00     0.152 C 
BRANCH   6   7
HETATM    7  C   UNL     1      26.181  41.690  50.383  1.00  0.00     0.011 A 
HETATM    8  C   UNL     1      26.867  40.500  49.978  1.00  0.00     0.005 A 
HETATM    9  C   UNL     1      26.066  39.860  49.027  1.00  0.00     0.043 A 
HETATM   10  C   UNL     1      28.088  39.892  50.341  1.00  0.00     0.033 A 
HETATM   11  C   UNL     1      26.422  38.652  48.418  1.00  0.00     0.031 A 
HETATM   12  N   UNL     1      24.942  40.635  48.856  1.00  0.00    -0.364 N 
HETATM   13  C   UNL     1      27.635  38.068  48.795  1.00  0.00     0.021 A 
HETATM   14  C   UNL     1      28.451  38.681  49.742  1.00  0.00     0.012 A 
HETATM   15 BR   UNL     1      30.082  37.857  50.235  1.00  0.00    -0.051 Br
HETATM   16  H   UNL     1      24.182  40.417  48.226  1.00  0.00     0.165 HD
HETATM   17  C   UNL     1      24.998  41.731  49.669  1.00  0.00     0.102 A 
ENDBRANCH   6   7
ENDBRANCH   2   5
BRANCH   1  18
HETATM   18  C   UNL     1      26.440  45.711  54.586  1.00  0.00     0.280 C 
BRANCH  18  19
HETATM   19  O   UNL     1      27.766  46.025  54.159  1.00  0.00    -0.342 OA
BRANCH  19  20
HETATM   20  C   UNL     1      28.740  45.447  54.931  1.00  0.00     0.069 A 
HETATM   21  C   UNL     1      29.162  45.950  56.163  1.00  0.00     0.044 A 
HETATM   22  C   UNL     1      30.158  45.292  56.908  1.00  0.00    -0.053 A 
HETATM   23  C   UNL     1      30.744  44.119  56.392  1.00  0.00    -0.056 A 
HETATM   24  C   UNL     1      30.591  45.874  58.226  1.00  0.00     0.049 C 
HETATM   25  C   UNL     1      31.818  43.379  57.144  1.00  0.00     0.049 C 
HETATM   26  C   UNL     1      30.288  43.607  55.168  1.00  0.00     0.010 A 
HETATM   27  C   UNL     1      29.287  44.263  54.447  1.00  0.00     0.037 A 
ENDBRANCH  19  20
ENDBRANCH  18  19
ENDBRANCH   1  18
TORSDOF 5
ENDMDL
MODEL 6
REMARK VINA RESULT:      -8.4      3.346      9.951
REMARK  5 active torsions:
REMARK  status: ('A' for Active; 'I' for Inactive)
REMARK    1  A    between atoms: C_6  and  O_7 
REMARK    2  A    between atoms: O_7  and  C_8 
REMARK    3  A    between atoms: C_8  and  C_9 
REMARK       I    between atoms: C_9  and  N_10 
REMARK    4  A    between atoms: N_10  and  N_11 
REMARK    5  A    between atoms: C_12  and  C_13 
ROOT
HETATM    1  C   UNL     1      25.012  46.421  50.581  1.00  0.00     0.261 C 
HETATM    2  N   UNL     1      24.862  45.083  50.920  1.00  0.00    -0.246 N 
HETATM    3  O   UNL     1      25.969  47.130  50.885  1.00  0.00    -0.269 OA
HETATM    4  H   UNL     1      24.014  44.592  50.651  1.00  0.00     0.192 HD
ENDROOT
BRANCH   2   5
HETATM    5  N   UNL     1      25.821  44.463  51.664  1.00  0.00    -0.184 NA
HETATM    6  C   UNL     1      26.742  43.834  51.010  1.00  0.00     0.152 C 
BRANCH   6   7
HETATM    7  C   UNL     1      27.793  43.161  51.749  1.00  0.00     0.011 A 
HETATM    8  C   UNL     1      28.419  43.578  52.967  1.00  0.00     0.005 A 
HETATM    9  C   UNL     1      29.364  42.604  53.305  1.00  0.00     0.043 A 
HETATM   10  C   UNL     1      28.264  44.686  53.829  1.00  0.00     0.033 A 
HETATM   11  C   UNL     1      30.162  42.681  54.453  1.00  0.00     0.031 A 
HETATM   12  N   UNL     1      29.318  41.638  52.328  1.00  0.00    -0.364 N 
HETATM   13  C   UNL     1      29.988  43.786  55.291  1.00  0.00     0.021 A 
HETATM   14  C   UNL     1      29.053  44.770  54.981  1.00  0.00     0.012 A 
HETATM   15 BR   UNL     1      28.838  46.248  56.144  1.00  0.00    -0.051 Br
HETATM   16  H   UNL     1      29.893  40.806  52.312  1.00  0.00     0.165 HD
HETATM   17  C   UNL     1      28.375  41.958  51.393  1.00  0.00     0.102 A 
ENDBRANCH   6   7
ENDBRANCH   2   5
BRANCH   1  18
HETATM   18  C   UNL     1      23.903  46.932  49.666  1.00  0.00     0.280 C 
BRANCH  18  19
HETATM   19  O   UNL     1      24.226  48.217  49.133  1.00  0.00    -0.342 OA
BRANCH  19  20
HETATM   20  C   UNL     1      23.140  49.043  49.000  1.00  0.00     0.069 A 
HETATM   21  C   UNL     1      21.822  48.647  49.237  1.00  0.00     0.044 A 
HETATM   22  C   UNL     1      20.759  49.557  49.096  1.00  0.00    -0.053 A 
HETATM   23  C   UNL     1      21.031  50.881  48.696  1.00  0.00    -0.056 A 
HETATM   24  C   UNL     1      19.353  49.086  49.351  1.00  0.00     0.049 C 
HETATM   25  C   UNL     1      19.931  51.893  48.524  1.00  0.00     0.049 C 
HETATM   26  C   UNL     1      22.363  51.274  48.494  1.00  0.00     0.010 A 
HETATM   27  C   UNL     1      23.410  50.363  48.652  1.00  0.00     0.037 A 
ENDBRANCH  19  20
ENDBRANCH  18  19
ENDBRANCH   1  18
TORSDOF 5
ENDMDL
MODEL 7
REMARK VINA RESULT:      -8.4      3.596     10.353
REMARK  5 active torsions:
REMARK  status: ('A' for Active; 'I' for Inactive)
REMARK    1  A    between atoms: C_6  and  O_7 
REMARK    2  A    between atoms: O_7  and  C_8 
REMARK    3  A    between atoms: C_8  and  C_9 
REMARK       I    between atoms: C_9  and  N_10 
REMARK    4  A    between atoms: N_10  and  N_11 
REMARK    5  A    between atoms: C_12  and  C_13 
ROOT
HETATM    1  C   UNL     1      24.008  47.395  49.877  1.00  0.00     0.261 C 
HETATM    2  N   UNL     1      23.733  46.035  49.818  1.00  0.00    -0.246 N 
HETATM    3  O   UNL     1      24.791  47.930  50.660  1.00  0.00    -0.269 OA
HETATM    4  H   UNL     1      23.040  45.695  49.157  1.00  0.00     0.192 HD
ENDROOT
BRANCH   2   5
HETATM    5  N   UNL     1      24.344  45.184  50.690  1.00  0.00    -0.184 NA
HETATM    6  C   UNL     1      25.391  44.565  50.252  1.00  0.00     0.152 C 
BRANCH   6   7
HETATM    7  C   UNL     1      26.088  43.651  51.136  1.00  0.00     0.011 A 
HETATM    8  C   UNL     1      26.827  43.964  52.323  1.00  0.00     0.005 A 
HETATM    9  C   UNL     1      27.307  42.759  52.845  1.00  0.00     0.043 A 
HETATM   10  C   UNL     1      27.121  45.158  53.016  1.00  0.00     0.033 A 
HETATM   11  C   UNL     1      28.068  42.686  54.018  1.00  0.00     0.031 A 
HETATM   12  N   UNL     1      26.883  41.755  52.006  1.00  0.00    -0.364 N 
HETATM   13  C   UNL     1      28.345  43.881  54.687  1.00  0.00     0.021 A 
HETATM   14  C   UNL     1      27.877  45.095  54.192  1.00  0.00     0.012 A 
HETATM   15 BR   UNL     1      28.264  46.693  55.130  1.00  0.00    -0.051 Br
HETATM   16  H   UNL     1      27.081  40.772  52.136  1.00  0.00     0.165 HD
HETATM   17  C   UNL     1      26.146  42.278  50.982  1.00  0.00     0.102 A 
ENDBRANCH   6   7
ENDBRANCH   2   5
BRANCH   1  18
HETATM   18  C   UNL     1      23.320  48.192  48.774  1.00  0.00     0.280 C 
BRANCH  18  19
HETATM   19  O   UNL     1      21.917  47.927  48.744  1.00  0.00    -0.342 OA
BRANCH  19  20
HETATM   20  C   UNL     1      21.153  49.049  48.552  1.00  0.00     0.069 A 
HETATM   21  C   UNL     1      20.263  49.217  47.489  1.00  0.00     0.044 A 
HETATM   22  C   UNL     1      19.499  50.392  47.367  1.00  0.00    -0.053 A 
HETATM   23  C   UNL     1      19.647  51.415  48.325  1.00  0.00    -0.056 A 
HETATM   24  C   UNL     1      18.560  50.537  46.200  1.00  0.00     0.049 C 
HETATM   25  C   UNL     1      18.858  52.694  48.239  1.00  0.00     0.049 C 
HETATM   26  C   UNL     1      20.519  51.218  49.406  1.00  0.00     0.010 A 
HETATM   27  C   UNL     1      21.261  50.040  49.522  1.00  0.00     0.037 A 
ENDBRANCH  19  20
ENDBRANCH  18  19
ENDBRANCH   1  18
TORSDOF 5
ENDMDL
MODEL 8
REMARK VINA RESULT:      -8.3      2.705      3.502
REMARK  5 active torsions:
REMARK  status: ('A' for Active; 'I' for Inactive)
REMARK    1  A    between atoms: C_6  and  O_7 
REMARK    2  A    between atoms: O_7  and  C_8 
REMARK    3  A    between atoms: C_8  and  C_9 
REMARK       I    between atoms: C_9  and  N_10 
REMARK    4  A    between atoms: N_10  and  N_11 
REMARK    5  A    between atoms: C_12  and  C_13 
ROOT
HETATM    1  C   UNL     1      25.751  44.279  52.737  1.00  0.00     0.261 C 
HETATM    2  N   UNL     1      25.103  43.384  51.896  1.00  0.00    -0.246 N 
HETATM    3  O   UNL     1      25.457  45.465  52.876  1.00  0.00    -0.269 OA
HETATM    4  H   UNL     1      25.446  42.430  51.824  1.00  0.00     0.192 HD
ENDROOT
BRANCH   2   5
HETATM    5  N   UNL     1      24.059  43.811  51.130  1.00  0.00    -0.184 NA
HETATM    6  C   UNL     1      24.288  43.938  49.864  1.00  0.00     0.152 C 
BRANCH   6   7
HETATM    7  C   UNL     1      23.214  44.382  48.997  1.00  0.00     0.011 A 
HETATM    8  C   UNL     1      22.836  45.728  48.681  1.00  0.00     0.005 A 
HETATM    9  C   UNL     1      21.755  45.661  47.797  1.00  0.00     0.043 A 
HETATM   10  C   UNL     1      23.321  47.001  49.050  1.00  0.00     0.033 A 
HETATM   11  C   UNL     1      21.132  46.796  47.267  1.00  0.00     0.031 A 
HETATM   12  N   UNL     1      21.483  44.329  47.590  1.00  0.00    -0.364 N 
HETATM   13  C   UNL     1      21.631  48.046  47.645  1.00  0.00     0.021 A 
HETATM   14  C   UNL     1      22.708  48.143  48.522  1.00  0.00     0.012 A 
HETATM   15 BR   UNL     1      23.363  49.852  49.005  1.00  0.00    -0.051 Br
HETATM   16  H   UNL     1      20.749  43.977  46.990  1.00  0.00     0.165 HD
HETATM   17  C   UNL     1      22.355  43.554  48.299  1.00  0.00     0.102 A 
ENDBRANCH   6   7
ENDBRANCH   2   5
BRANCH   1  18
HETATM   18  C   UNL     1      26.827  43.621  53.594  1.00  0.00     0.280 C 
BRANCH  18  19
HETATM   19  O   UNL     1      28.106  44.213  53.361  1.00  0.00    -0.342 OA
BRANCH  19  20
HETATM   20  C   UNL     1      28.756  44.580  54.510  1.00  0.00     0.069 A 
HETATM   21  C   UNL     1      29.839  43.885  55.053  1.00  0.00     0.044 A 
HETATM   22  C   UNL     1      30.467  44.332  56.229  1.00  0.00    -0.053 A 
HETATM   23  C   UNL     1      29.985  45.489  56.873  1.00  0.00    -0.056 A 
HETATM   24  C   UNL     1      31.624  43.546  56.785  1.00  0.00     0.049 C 
HETATM   25  C   UNL     1      30.617  46.007  58.137  1.00  0.00     0.049 C 
HETATM   26  C   UNL     1      28.919  46.197  56.299  1.00  0.00     0.010 A 
HETATM   27  C   UNL     1      28.314  45.749  55.122  1.00  0.00     0.037 A 
ENDBRANCH  19  20
ENDBRANCH  18  19
ENDBRANCH   1  18
TORSDOF 5
ENDMDL
MODEL 9
REMARK VINA RESULT:      -8.3      6.350      8.338
REMARK  5 active torsions:
REMARK  status: ('A' for Active; 'I' for Inactive)
REMARK    1  A    between atoms: C_6  and  O_7 
REMARK    2  A    between atoms: O_7  and  C_8 
REMARK    3  A    between atoms: C_8  and  C_9 
REMARK       I    between atoms: C_9  and  N_10 
REMARK    4  A    between atoms: N_10  and  N_11 
REMARK    5  A    between atoms: C_12  and  C_13 
ROOT
HETATM    1  C   UNL     1      27.262  42.755  51.696  1.00  0.00     0.261 C 
HETATM    2  N   UNL     1      28.110  41.683  51.453  1.00  0.00    -0.246 N 
HETATM    3  O   UNL     1      26.158  42.920  51.181  1.00  0.00    -0.269 OA
HETATM    4  H   UNL     1      29.022  41.657  51.902  1.00  0.00     0.192 HD
ENDROOT
BRANCH   2   5
HETATM    5  N   UNL     1      27.740  40.716  50.568  1.00  0.00    -0.184 NA
HETATM    6  C   UNL     1      28.566  39.735  50.406  1.00  0.00     0.152 C 
BRANCH   6   7
HETATM    7  C   UNL     1      28.224  38.672  49.481  1.00  0.00     0.011 A 
HETATM    8  C   UNL     1      28.027  38.765  48.065  1.00  0.00     0.005 A 
HETATM    9  C   UNL     1      27.725  37.482  47.600  1.00  0.00     0.043 A 
HETATM   10  C   UNL     1      28.093  39.818  47.127  1.00  0.00     0.033 A 
HETATM   11  C   UNL     1      27.482  37.196  46.252  1.00  0.00     0.031 A 
HETATM   12  N   UNL     1      27.731  36.643  48.691  1.00  0.00    -0.364 N 
HETATM   13  C   UNL     1      27.554  38.255  45.341  1.00  0.00     0.021 A 
HETATM   14  C   UNL     1      27.856  39.543  45.776  1.00  0.00     0.012 A 
HETATM   15 BR   UNL     1      27.955  40.950  44.514  1.00  0.00    -0.051 Br
HETATM   16  H   UNL     1      27.547  35.650  48.655  1.00  0.00     0.165 HD
HETATM   17  C   UNL     1      28.035  37.345  49.822  1.00  0.00     0.102 A 
ENDBRANCH   6   7
ENDBRANCH   2   5
BRANCH   1  18
HETATM   18  C   UNL     1      27.781  43.693  52.781  1.00  0.00     0.280 C 
BRANCH  18  19
HETATM   19  O   UNL     1      29.124  43.370  53.144  1.00  0.00    -0.342 OA
BRANCH  19  20
HETATM   20  C   UNL     1      29.509  43.904  54.346  1.00  0.00     0.069 A 
HETATM   21  C   UNL     1      30.528  43.381  55.144  1.00  0.00     0.044 A 
HETATM   22  C   UNL     1      30.880  43.995  56.360  1.00  0.00    -0.053 A 
HETATM   23  C   UNL     1      30.182  45.144  56.781  1.00  0.00    -0.056 A 
HETATM   24  C   UNL     1      31.978  43.391  57.194  1.00  0.00     0.049 C 
HETATM   25  C   UNL     1      30.513  45.836  58.076  1.00  0.00     0.049 C 
HETATM   26  C   UNL     1      29.182  45.678  55.954  1.00  0.00     0.010 A 
HETATM   27  C   UNL     1      28.854  45.066  54.742  1.00  0.00     0.037 A 
ENDBRANCH  19  20
ENDBRANCH  18  19
ENDBRANCH   1  18
TORSDOF 5
ENDMDL
MODEL 10
REMARK VINA RESULT:      -8.0      2.921      3.565
REMARK  5 active torsions:
REMARK  status: ('A' for Active; 'I' for Inactive)
REMARK    1  A    between atoms: C_6  and  O_7 
REMARK    2  A    between atoms: O_7  and  C_8 
REMARK    3  A    between atoms: C_8  and  C_9 
REMARK       I    between atoms: C_9  and  N_10 
REMARK    4  A    between atoms: N_10  and  N_11 
REMARK    5  A    between atoms: C_12  and  C_13 
ROOT
HETATM    1  C   UNL     1      25.283  43.166  51.045  1.00  0.00     0.261 C 
HETATM    2  N   UNL     1      25.193  43.454  49.690  1.00  0.00    -0.246 N 
HETATM    3  O   UNL     1      24.356  43.234  51.850  1.00  0.00    -0.269 OA
HETATM    4  H   UNL     1      26.029  43.403  49.113  1.00  0.00     0.192 HD
ENDROOT
BRANCH   2   5
HETATM    5  N   UNL     1      24.005  43.867  49.164  1.00  0.00    -0.184 NA
HETATM    6  C   UNL     1      23.874  45.137  48.963  1.00  0.00     0.152 C 
BRANCH   6   7
HETATM    7  C   UNL     1      22.635  45.635  48.399  1.00  0.00     0.011 A 
HETATM    8  C   UNL     1      22.227  46.999  48.234  1.00  0.00     0.005 A 
HETATM    9  C   UNL     1      20.963  46.987  47.636  1.00  0.00     0.043 A 
HETATM   10  C   UNL     1      22.819  48.248  48.522  1.00  0.00     0.033 A 
HETATM   11  C   UNL     1      20.260  48.153  47.315  1.00  0.00     0.031 A 
HETATM   12  N   UNL     1      20.614  45.669  47.452  1.00  0.00    -0.364 N 
HETATM   13  C   UNL     1      20.867  49.378  47.608  1.00  0.00     0.021 A 
HETATM   14  C   UNL     1      22.126  49.420  48.201  1.00  0.00     0.012 A 
HETATM   15 BR   UNL     1      22.922  51.096  48.573  1.00  0.00    -0.051 Br
HETATM   16  H   UNL     1      19.748  45.355  47.035  1.00  0.00     0.165 HD
HETATM   17  C   UNL     1      21.612  44.851  47.900  1.00  0.00     0.102 A 
ENDBRANCH   6   7
ENDBRANCH   2   5
BRANCH   1  18
HETATM   18  C   UNL     1      26.650  42.625  51.452  1.00  0.00     0.280 C 
BRANCH  18  19
HETATM   19  O   UNL     1      27.641  43.652  51.421  1.00  0.00    -0.342 OA
BRANCH  19  20
HETATM   20  C   UNL     1      28.405  43.710  52.557  1.00  0.00     0.069 A 
HETATM   21  C   UNL     1      28.156  44.576  53.624  1.00  0.00     0.044 A 
HETATM   22  C   UNL     1      28.977  44.566  54.767  1.00  0.00    -0.053 A 
HETATM   23  C   UNL     1      30.071  43.680  54.824  1.00  0.00    -0.056 A 
HETATM   24  C   UNL     1      28.679  45.523  55.889  1.00  0.00     0.049 C 
HETATM   25  C   UNL     1      30.984  43.633  56.020  1.00  0.00     0.049 C 
HETATM   26  C   UNL     1      30.289  42.793  53.760  1.00  0.00     0.010 A 
HETATM   27  C   UNL     1      29.457  42.804  52.638  1.00  0.00     0.037 A 
ENDBRANCH  19  20
ENDBRANCH  18  19
ENDBRANCH   1  18
TORSDOF 5
ENDMDL
