MODEL 1
REMARK VINA RESULT:      -7.0      0.000      0.000
REMARK  4 active torsions:
REMARK  status: ('A' for Active; 'I' for Inactive)
REMARK    1  A    between atoms: C_11  and  N_12 
REMARK    2  A    between atoms: N_12  and  C_13 
REMARK    3  A    between atoms: C_13  and  C_14 
REMARK    4  A    between atoms: C_15  and  C_16 
ROOT
HETATM    1  N   UNL     1      32.599  49.750  40.049  1.00  0.00     0.092 N 
HETATM    2  H   UNL     1      33.052  49.309  39.252  1.00  0.00     0.316 HD
ENDROOT
BRANCH   1   3
HETATM    3  C   UNL     1      33.157  49.339  41.332  1.00  0.00     0.225 C 
HETATM    4  C   UNL     1      32.390  49.970  42.504  1.00  0.00     0.073 C 
HETATM    5  C   UNL     1      32.664  51.455  42.773  1.00  0.00     0.121 C 
HETATM    6  N   UNL     1      34.161  51.704  42.787  1.00  0.00    -0.059 N 
HETATM    7  C   UNL     1      31.970  52.412  41.799  1.00  0.00     0.046 C 
HETATM    8  C   UNL     1      32.171  51.815  44.192  1.00  0.00     0.046 C 
HETATM    9  C   UNL     1      35.048  51.100  41.723  1.00  0.00     0.121 C 
HETATM   10  H   UNL     1      34.509  51.368  43.697  1.00  0.00     0.279 HD
HETATM   11  H   UNL     1      34.323  52.721  42.817  1.00  0.00     0.279 HD
HETATM   12  C   UNL     1      35.049  51.991  40.475  1.00  0.00     0.046 C 
HETATM   13  C   UNL     1      36.482  51.124  42.296  1.00  0.00     0.046 C 
HETATM   14  C   UNL     1      34.654  49.636  41.463  1.00  0.00     0.073 C 
ENDBRANCH   1   3
BRANCH   1  15
HETATM   15  C   UNL     1      31.169  49.422  39.921  1.00  0.00     0.312 C 
BRANCH  15  16
HETATM   16  C   UNL     1      30.598  50.347  38.900  1.00  0.00     0.014 A 
HETATM   17  C   UNL     1      29.239  50.634  38.525  1.00  0.00     0.071 A 
HETATM   18  N   UNL     1      29.211  51.551  37.546  1.00  0.00    -0.178 NA
HETATM   19  N   UNL     1      30.487  51.856  37.306  1.00  0.00    -0.288 N 
HETATM   20  H   UNL     1      30.688  52.557  36.598  1.00  0.00     0.188 HD
HETATM   21  C   UNL     1      31.356  51.159  38.075  1.00  0.00     0.120 A 
BRANCH  17  22
HETATM   22  C   UNL     1      27.895  50.131  39.063  1.00  0.00    -0.004 C 
HETATM   23  C   UNL     1      27.649  50.738  40.458  1.00  0.00     0.021 C 
HETATM   24  C   UNL     1      26.728  50.569  38.138  1.00  0.00     0.021 C 
HETATM   25  C   UNL     1      27.814  48.596  39.161  1.00  0.00     0.021 C 
ENDBRANCH  17  22
ENDBRANCH  15  16
ENDBRANCH   1  15
TORSDOF 4
ENDMDL
MODEL 2
REMARK VINA RESULT:      -6.9      1.492      2.292
REMARK  4 active torsions:
REMARK  status: ('A' for Active; 'I' for Inactive)
REMARK    1  A    between atoms: C_11  and  N_12 
REMARK    2  A    between atoms: N_12  and  C_13 
REMARK    3  A    between atoms: C_13  and  C_14 
REMARK    4  A    between atoms: C_15  and  C_16 
ROOT
HETATM    1  N   UNL     1      31.176  49.569  40.800  1.00  0.00     0.092 N 
HETATM    2  H   UNL     1      31.231  49.014  39.949  1.00  0.00     0.316 HD
ENDROOT
BRANCH   1   3
HETATM    3  C   UNL     1      32.058  49.092  41.859  1.00  0.00     0.225 C 
HETATM    4  C   UNL     1      31.855  49.887  43.157  1.00  0.00     0.073 C 
HETATM    5  C   UNL     1      32.454  51.300  43.187  1.00  0.00     0.121 C 
HETATM    6  N   UNL     1      33.886  51.258  42.686  1.00  0.00    -0.059 N 
HETATM    7  C   UNL     1      31.645  52.347  42.416  1.00  0.00     0.046 C 
HETATM    8  C   UNL     1      32.543  51.783  44.652  1.00  0.00     0.046 C 
HETATM    9  C   UNL     1      34.241  50.469  41.447  1.00  0.00     0.121 C 
HETATM   10  H   UNL     1      34.460  50.885  43.457  1.00  0.00     0.279 HD
HETATM   11  H   UNL     1      34.220  52.226  42.571  1.00  0.00     0.279 HD
HETATM   12  C   UNL     1      33.970  51.311  40.195  1.00  0.00     0.046 C 
HETATM   13  C   UNL     1      35.766  50.233  41.511  1.00  0.00     0.046 C 
HETATM   14  C   UNL     1      33.537  49.101  41.463  1.00  0.00     0.073 C 
ENDBRANCH   1   3
BRANCH   1  15
HETATM   15  C   UNL     1      29.756  49.550  41.191  1.00  0.00     0.312 C 
BRANCH  15  16
HETATM   16  C   UNL     1      28.955  49.663  39.939  1.00  0.00     0.014 A 
HETATM   17  C   UNL     1      28.715  50.773  39.056  1.00  0.00     0.071 A 
HETATM   18  N   UNL     1      27.922  50.397  38.041  1.00  0.00    -0.178 NA
HETATM   19  N   UNL     1      27.670  49.103  38.246  1.00  0.00    -0.288 N 
HETATM   20  H   UNL     1      27.091  48.614  37.569  1.00  0.00     0.188 HD
HETATM   21  C   UNL     1      28.250  48.618  39.369  1.00  0.00     0.120 A 
BRANCH  17  22
HETATM   22  C   UNL     1      29.228  52.218  39.056  1.00  0.00    -0.004 C 
HETATM   23  C   UNL     1      30.756  52.212  38.859  1.00  0.00     0.021 C 
HETATM   24  C   UNL     1      28.598  53.030  37.893  1.00  0.00     0.021 C 
HETATM   25  C   UNL     1      28.890  52.984  40.349  1.00  0.00     0.021 C 
ENDBRANCH  17  22
ENDBRANCH  15  16
ENDBRANCH   1  15
TORSDOF 4
ENDMDL
MODEL 3
REMARK VINA RESULT:      -6.8      2.009      2.574
REMARK  4 active torsions:
REMARK  status: ('A' for Active; 'I' for Inactive)
REMARK    1  A    between atoms: C_11  and  N_12 
REMARK    2  A    between atoms: N_12  and  C_13 
REMARK    3  A    between atoms: C_13  and  C_14 
REMARK    4  A    between atoms: C_15  and  C_16 
ROOT
HETATM    1  N   UNL     1      30.770  49.652  41.109  1.00  0.00     0.092 N 
HETATM    2  H   UNL     1      30.738  49.199  40.199  1.00  0.00     0.316 HD
ENDROOT
BRANCH   1   3
HETATM    3  C   UNL     1      31.990  49.364  41.856  1.00  0.00     0.225 C 
HETATM    4  C   UNL     1      31.979  50.048  43.230  1.00  0.00     0.073 C 
HETATM    5  C   UNL     1      32.241  51.561  43.236  1.00  0.00     0.121 C 
HETATM    6  N   UNL     1      33.456  51.872  42.381  1.00  0.00    -0.059 N 
HETATM    7  C   UNL     1      31.044  52.411  42.800  1.00  0.00     0.046 C 
HETATM    8  C   UNL     1      32.618  52.006  44.667  1.00  0.00     0.046 C 
HETATM    9  C   UNL     1      33.623  51.227  41.024  1.00  0.00     0.121 C 
HETATM   10  H   UNL     1      34.284  51.621  42.939  1.00  0.00     0.279 HD
HETATM   11  H   UNL     1      33.526  52.894  42.274  1.00  0.00     0.279 HD
HETATM   12  C   UNL     1      32.844  52.019  39.968  1.00  0.00     0.046 C 
HETATM   13  C   UNL     1      35.120  51.355  40.671  1.00  0.00     0.046 C 
HETATM   14  C   UNL     1      33.266  49.732  41.094  1.00  0.00     0.073 C 
ENDBRANCH   1   3
BRANCH   1  15
HETATM   15  C   UNL     1      29.555  49.208  41.813  1.00  0.00     0.312 C 
BRANCH  15  16
HETATM   16  C   UNL     1      28.390  49.754  41.061  1.00  0.00     0.014 A 
HETATM   17  C   UNL     1      27.638  49.230  39.952  1.00  0.00     0.071 A 
HETATM   18  N   UNL     1      26.661  50.084  39.608  1.00  0.00    -0.178 NA
HETATM   19  N   UNL     1      26.763  51.105  40.460  1.00  0.00    -0.288 N 
HETATM   20  H   UNL     1      26.094  51.866  40.381  1.00  0.00     0.188 HD
HETATM   21  C   UNL     1      27.784  50.968  41.338  1.00  0.00     0.120 A 
BRANCH  17  22
HETATM   22  C   UNL     1      27.731  47.912  39.176  1.00  0.00    -0.004 C 
HETATM   23  C   UNL     1      27.394  46.744  40.123  1.00  0.00     0.021 C 
HETATM   24  C   UNL     1      26.716  47.885  38.003  1.00  0.00     0.021 C 
HETATM   25  C   UNL     1      29.118  47.669  38.552  1.00  0.00     0.021 C 
ENDBRANCH  17  22
ENDBRANCH  15  16
ENDBRANCH   1  15
TORSDOF 4
ENDMDL
MODEL 4
REMARK VINA RESULT:      -6.7      1.746      6.405
REMARK  4 active torsions:
REMARK  status: ('A' for Active; 'I' for Inactive)
REMARK    1  A    between atoms: C_11  and  N_12 
REMARK    2  A    between atoms: N_12  and  C_13 
REMARK    3  A    between atoms: C_13  and  C_14 
REMARK    4  A    between atoms: C_15  and  C_16 
ROOT
HETATM    1  N   UNL     1      29.537  49.420  38.681  1.00  0.00     0.092 N 
HETATM    2  H   UNL     1      29.512  48.619  38.054  1.00  0.00     0.316 HD
ENDROOT
BRANCH   1   3
HETATM    3  C   UNL     1      28.589  50.468  38.320  1.00  0.00     0.225 C 
HETATM    4  C   UNL     1      28.595  51.607  39.350  1.00  0.00     0.073 C 
HETATM    5  C   UNL     1      27.889  51.320  40.682  1.00  0.00     0.121 C 
HETATM    6  N   UNL     1      26.524  50.712  40.416  1.00  0.00    -0.059 N 
HETATM    7  C   UNL     1      28.691  50.441  41.646  1.00  0.00     0.046 C 
HETATM    8  C   UNL     1      27.612  52.656  41.408  1.00  0.00     0.046 C 
HETATM    9  C   UNL     1      26.361  49.616  39.388  1.00  0.00     0.121 C 
HETATM   10  H   UNL     1      25.904  51.485  40.134  1.00  0.00     0.279 HD
HETATM   11  H   UNL     1      26.131  50.389  41.312  1.00  0.00     0.279 HD
HETATM   12  C   UNL     1      26.695  48.257  40.015  1.00  0.00     0.046 C 
HETATM   13  C   UNL     1      24.861  49.589  39.025  1.00  0.00     0.046 C 
HETATM   14  C   UNL     1      27.162  49.948  38.118  1.00  0.00     0.073 C 
ENDBRANCH   1   3
BRANCH   1  15
HETATM   15  C   UNL     1      30.933  49.888  38.666  1.00  0.00     0.312 C 
BRANCH  15  16
HETATM   16  C   UNL     1      31.622  49.246  39.823  1.00  0.00     0.014 A 
HETATM   17  C   UNL     1      32.485  49.785  40.839  1.00  0.00     0.071 A 
HETATM   18  N   UNL     1      32.869  48.816  41.685  1.00  0.00    -0.178 NA
HETATM   19  N   UNL     1      32.273  47.706  41.249  1.00  0.00    -0.288 N 
HETATM   20  H   UNL     1      32.421  46.845  41.770  1.00  0.00     0.188 HD
HETATM   21  C   UNL     1      31.529  47.901  40.135  1.00  0.00     0.120 A 
BRANCH  17  22
HETATM   22  C   UNL     1      32.971  51.210  41.128  1.00  0.00    -0.004 C 
HETATM   23  C   UNL     1      33.740  51.221  42.463  1.00  0.00     0.021 C 
HETATM   24  C   UNL     1      33.934  51.704  40.016  1.00  0.00     0.021 C 
HETATM   25  C   UNL     1      31.828  52.241  41.197  1.00  0.00     0.021 C 
ENDBRANCH  17  22
ENDBRANCH  15  16
ENDBRANCH   1  15
TORSDOF 4
ENDMDL
MODEL 5
REMARK VINA RESULT:      -6.5     13.453     15.053
REMARK  4 active torsions:
REMARK  status: ('A' for Active; 'I' for Inactive)
REMARK    1  A    between atoms: C_11  and  N_12 
REMARK    2  A    between atoms: N_12  and  C_13 
REMARK    3  A    between atoms: C_13  and  C_14 
REMARK    4  A    between atoms: C_15  and  C_16 
ROOT
HETATM    1  N   UNL     1      27.082  42.502  51.893  1.00  0.00     0.092 N 
HETATM    2  H   UNL     1      26.117  42.684  52.158  1.00  0.00     0.316 HD
ENDROOT
BRANCH   1   3
HETATM    3  C   UNL     1      27.906  43.705  51.848  1.00  0.00     0.225 C 
HETATM    4  C   UNL     1      28.407  44.094  53.247  1.00  0.00     0.073 C 
HETATM    5  C   UNL     1      27.376  44.742  54.180  1.00  0.00     0.121 C 
HETATM    6  N   UNL     1      26.640  45.844  53.442  1.00  0.00    -0.059 N 
HETATM    7  C   UNL     1      26.384  43.758  54.806  1.00  0.00     0.046 C 
HETATM    8  C   UNL     1      28.113  45.445  55.343  1.00  0.00     0.046 C 
HETATM    9  C   UNL     1      26.135  45.619  52.035  1.00  0.00     0.121 C 
HETATM   10  H   UNL     1      27.274  46.655  53.408  1.00  0.00     0.279 HD
HETATM   11  H   UNL     1      25.855  46.163  54.029  1.00  0.00     0.279 HD
HETATM   12  C   UNL     1      24.771  44.918  52.074  1.00  0.00     0.046 C 
HETATM   13  C   UNL     1      25.905  47.021  51.432  1.00  0.00     0.046 C 
HETATM   14  C   UNL     1      27.201  44.896  51.192  1.00  0.00     0.073 C 
ENDBRANCH   1   3
BRANCH   1  15
HETATM   15  C   UNL     1      27.012  41.813  50.594  1.00  0.00     0.312 C 
BRANCH  15  16
HETATM   16  C   UNL     1      27.929  40.640  50.671  1.00  0.00     0.014 A 
HETATM   17  C   UNL     1      28.264  39.625  49.709  1.00  0.00     0.071 A 
HETATM   18  N   UNL     1      29.150  38.762  50.232  1.00  0.00    -0.178 NA
HETATM   19  N   UNL     1      29.389  39.203  51.468  1.00  0.00    -0.288 N 
HETATM   20  H   UNL     1      30.057  38.692  52.039  1.00  0.00     0.188 HD
HETATM   21  C   UNL     1      28.678  40.311  51.787  1.00  0.00     0.120 A 
BRANCH  17  22
HETATM   22  C   UNL     1      27.840  39.408  48.252  1.00  0.00    -0.004 C 
HETATM   23  C   UNL     1      28.253  40.635  47.417  1.00  0.00     0.021 C 
HETATM   24  C   UNL     1      28.542  38.161  47.650  1.00  0.00     0.021 C 
HETATM   25  C   UNL     1      26.327  39.172  48.087  1.00  0.00     0.021 C 
ENDBRANCH  17  22
ENDBRANCH  15  16
ENDBRANCH   1  15
TORSDOF 4
ENDMDL
MODEL 6
REMARK VINA RESULT:      -6.5      1.695      5.969
REMARK  4 active torsions:
REMARK  status: ('A' for Active; 'I' for Inactive)
REMARK    1  A    between atoms: C_11  and  N_12 
REMARK    2  A    between atoms: N_12  and  C_13 
REMARK    3  A    between atoms: C_13  and  C_14 
REMARK    4  A    between atoms: C_15  and  C_16 
ROOT
HETATM    1  N   UNL     1      31.708  50.215  39.899  1.00  0.00     0.092 N 
HETATM    2  H   UNL     1      32.501  49.654  40.199  1.00  0.00     0.316 HD
ENDROOT
BRANCH   1   3
HETATM    3  C   UNL     1      31.059  49.704  38.697  1.00  0.00     0.225 C 
HETATM    4  C   UNL     1      29.868  50.583  38.287  1.00  0.00     0.073 C 
HETATM    5  C   UNL     1      28.594  50.435  39.131  1.00  0.00     0.121 C 
HETATM    6  N   UNL     1      28.266  48.964  39.308  1.00  0.00    -0.059 N 
HETATM    7  C   UNL     1      28.651  51.141  40.489  1.00  0.00     0.046 C 
HETATM    8  C   UNL     1      27.399  51.036  38.357  1.00  0.00     0.046 C 
HETATM    9  C   UNL     1      29.353  47.974  39.661  1.00  0.00     0.121 C 
HETATM   10  H   UNL     1      27.843  48.646  38.424  1.00  0.00     0.279 HD
HETATM   11  H   UNL     1      27.504  48.880  39.996  1.00  0.00     0.279 HD
HETATM   12  C   UNL     1      29.582  47.967  41.177  1.00  0.00     0.046 C 
HETATM   13  C   UNL     1      28.803  46.582  39.280  1.00  0.00     0.046 C 
HETATM   14  C   UNL     1      30.616  48.243  38.824  1.00  0.00     0.073 C 
ENDBRANCH   1   3
BRANCH   1  15
HETATM   15  C   UNL     1      32.235  51.579  39.724  1.00  0.00     0.312 C 
BRANCH  15  16
HETATM   16  C   UNL     1      33.362  51.740  40.687  1.00  0.00     0.014 A 
HETATM   17  C   UNL     1      33.397  51.738  42.124  1.00  0.00     0.071 A 
HETATM   18  N   UNL     1      34.654  51.918  42.559  1.00  0.00    -0.178 NA
HETATM   19  N   UNL     1      35.401  52.017  41.458  1.00  0.00    -0.288 N 
HETATM   20  H   UNL     1      36.404  52.142  41.568  1.00  0.00     0.188 HD
HETATM   21  C   UNL     1      34.681  51.932  40.315  1.00  0.00     0.120 A 
BRANCH  17  22
HETATM   22  C   UNL     1      32.307  51.527  43.181  1.00  0.00    -0.004 C 
HETATM   23  C   UNL     1      31.904  50.039  43.200  1.00  0.00     0.021 C 
HETATM   24  C   UNL     1      32.824  51.901  44.595  1.00  0.00     0.021 C 
HETATM   25  C   UNL     1      31.051  52.385  42.940  1.00  0.00     0.021 C 
ENDBRANCH  17  22
ENDBRANCH  15  16
ENDBRANCH   1  15
TORSDOF 4
ENDMDL
MODEL 7
REMARK VINA RESULT:      -6.5      2.222      6.061
REMARK  4 active torsions:
REMARK  status: ('A' for Active; 'I' for Inactive)
REMARK    1  A    between atoms: C_11  and  N_12 
REMARK    2  A    between atoms: N_12  and  C_13 
REMARK    3  A    between atoms: C_13  and  C_14 
REMARK    4  A    between atoms: C_15  and  C_16 
ROOT
HETATM    1  N   UNL     1      29.760  49.184  39.046  1.00  0.00     0.092 N 
HETATM    2  H   UNL     1      30.071  50.123  38.812  1.00  0.00     0.316 HD
ENDROOT
BRANCH   1   3
HETATM    3  C   UNL     1      28.988  49.121  40.283  1.00  0.00     0.225 C 
HETATM    4  C   UNL     1      27.606  48.495  40.049  1.00  0.00     0.073 C 
HETATM    5  C   UNL     1      26.566  49.386  39.356  1.00  0.00     0.121 C 
HETATM    6  N   UNL     1      26.541  50.751  40.017  1.00  0.00    -0.059 N 
HETATM    7  C   UNL     1      26.762  49.525  37.843  1.00  0.00     0.046 C 
HETATM    8  C   UNL     1      25.157  48.792  39.578  1.00  0.00     0.046 C 
HETATM    9  C   UNL     1      27.831  51.463  40.354  1.00  0.00     0.121 C 
HETATM   10  H   UNL     1      26.016  50.645  40.897  1.00  0.00     0.279 HD
HETATM   11  H   UNL     1      25.953  51.378  39.449  1.00  0.00     0.279 HD
HETATM   12  C   UNL     1      28.348  52.219  39.124  1.00  0.00     0.046 C 
HETATM   13  C   UNL     1      27.470  52.524  41.416  1.00  0.00     0.046 C 
HETATM   14  C   UNL     1      28.840  50.481  40.972  1.00  0.00     0.073 C 
ENDBRANCH   1   3
BRANCH   1  15
HETATM   15  C   UNL     1      30.982  48.365  39.098  1.00  0.00     0.312 C 
BRANCH  15  16
HETATM   16  C   UNL     1      31.812  48.887  40.222  1.00  0.00     0.014 A 
HETATM   17  C   UNL     1      32.520  50.127  40.389  1.00  0.00     0.071 A 
HETATM   18  N   UNL     1      33.133  50.155  41.583  1.00  0.00    -0.178 NA
HETATM   19  N   UNL     1      32.825  48.997  42.169  1.00  0.00    -0.288 N 
HETATM   20  H   UNL     1      33.182  48.823  43.105  1.00  0.00     0.188 HD
HETATM   21  C   UNL     1      32.052  48.197  41.397  1.00  0.00     0.120 A 
BRANCH  17  22
HETATM   22  C   UNL     1      32.643  51.371  39.502  1.00  0.00    -0.004 C 
HETATM   23  C   UNL     1      31.805  52.512  40.111  1.00  0.00     0.021 C 
HETATM   24  C   UNL     1      34.117  51.850  39.419  1.00  0.00     0.021 C 
HETATM   25  C   UNL     1      32.186  51.131  38.050  1.00  0.00     0.021 C 
ENDBRANCH  17  22
ENDBRANCH  15  16
ENDBRANCH   1  15
TORSDOF 4
ENDMDL
MODEL 8
REMARK VINA RESULT:      -6.5     24.722     26.472
REMARK  4 active torsions:
REMARK  status: ('A' for Active; 'I' for Inactive)
REMARK    1  A    between atoms: C_11  and  N_12 
REMARK    2  A    between atoms: N_12  and  C_13 
REMARK    3  A    between atoms: C_13  and  C_14 
REMARK    4  A    between atoms: C_15  and  C_16 
ROOT
HETATM    1  N   UNL     1      37.501  43.376  63.413  1.00  0.00     0.092 N 
HETATM    2  H   UNL     1      37.426  43.073  64.381  1.00  0.00     0.316 HD
ENDROOT
BRANCH   1   3
HETATM    3  C   UNL     1      38.793  43.072  62.809  1.00  0.00     0.225 C 
HETATM    4  C   UNL     1      39.000  41.558  62.661  1.00  0.00     0.073 C 
HETATM    5  C   UNL     1      39.334  40.790  63.947  1.00  0.00     0.121 C 
HETATM    6  N   UNL     1      40.437  41.510  64.700  1.00  0.00    -0.059 N 
HETATM    7  C   UNL     1      38.132  40.539  64.863  1.00  0.00     0.046 C 
HETATM    8  C   UNL     1      39.919  39.408  63.578  1.00  0.00     0.046 C 
HETATM    9  C   UNL     1      40.390  43.010  64.878  1.00  0.00     0.121 C 
HETATM   10  H   UNL     1      41.319  41.290  64.216  1.00  0.00     0.279 HD
HETATM   11  H   UNL     1      40.541  41.069  65.626  1.00  0.00     0.279 HD
HETATM   12  C   UNL     1      39.516  43.368  66.086  1.00  0.00     0.046 C 
HETATM   13  C   UNL     1      41.831  43.446  65.218  1.00  0.00     0.046 C 
HETATM   14  C   UNL     1      39.973  43.693  63.563  1.00  0.00     0.073 C 
ENDBRANCH   1   3
BRANCH   1  15
HETATM   15  C   UNL     1      37.207  44.819  63.428  1.00  0.00     0.312 C 
BRANCH  15  16
HETATM   16  C   UNL     1      36.530  45.114  64.723  1.00  0.00     0.014 A 
HETATM   17  C   UNL     1      36.572  46.268  65.582  1.00  0.00     0.071 A 
HETATM   18  N   UNL     1      35.786  46.079  66.653  1.00  0.00    -0.178 NA
HETATM   19  N   UNL     1      35.248  44.869  66.492  1.00  0.00    -0.288 N 
HETATM   20  H   UNL     1      34.598  44.535  67.198  1.00  0.00     0.188 HD
HETATM   21  C   UNL     1      35.667  44.244  65.366  1.00  0.00     0.120 A 
BRANCH  17  22
HETATM   22  C   UNL     1      37.286  47.618  65.456  1.00  0.00    -0.004 C 
HETATM   23  C   UNL     1      36.867  48.291  64.135  1.00  0.00     0.021 C 
HETATM   24  C   UNL     1      36.891  48.565  66.621  1.00  0.00     0.021 C 
HETATM   25  C   UNL     1      38.821  47.503  65.497  1.00  0.00     0.021 C 
ENDBRANCH  17  22
ENDBRANCH  15  16
ENDBRANCH   1  15
TORSDOF 4
ENDMDL
MODEL 9
REMARK VINA RESULT:      -6.5      2.154      3.035
REMARK  4 active torsions:
REMARK  status: ('A' for Active; 'I' for Inactive)
REMARK    1  A    between atoms: C_11  and  N_12 
REMARK    2  A    between atoms: N_12  and  C_13 
REMARK    3  A    between atoms: C_13  and  C_14 
REMARK    4  A    between atoms: C_15  and  C_16 
ROOT
HETATM    1  N   UNL     1      30.735  49.310  41.017  1.00  0.00     0.092 N 
HETATM    2  H   UNL     1      31.691  48.964  40.993  1.00  0.00     0.316 HD
ENDROOT
BRANCH   1   3
HETATM    3  C   UNL     1      30.503  50.298  42.065  1.00  0.00     0.225 C 
HETATM    4  C   UNL     1      30.145  51.669  41.473  1.00  0.00     0.073 C 
HETATM    5  C   UNL     1      31.306  52.470  40.868  1.00  0.00     0.121 C 
HETATM    6  N   UNL     1      32.476  52.482  41.833  1.00  0.00    -0.059 N 
HETATM    7  C   UNL     1      31.753  51.986  39.485  1.00  0.00     0.046 C 
HETATM    8  C   UNL     1      30.880  53.947  40.716  1.00  0.00     0.046 C 
HETATM    9  C   UNL     1      32.907  51.211  42.531  1.00  0.00     0.121 C 
HETATM   10  H   UNL     1      32.249  53.167  42.568  1.00  0.00     0.279 HD
HETATM   11  H   UNL     1      33.291  52.889  41.353  1.00  0.00     0.279 HD
HETATM   12  C   UNL     1      33.840  50.405  41.620  1.00  0.00     0.046 C 
HETATM   13  C   UNL     1      33.741  51.655  43.752  1.00  0.00     0.046 C 
HETATM   14  C   UNL     1      31.679  50.435  43.037  1.00  0.00     0.073 C 
ENDBRANCH   1   3
BRANCH   1  15
HETATM   15  C   UNL     1      29.887  48.115  41.167  1.00  0.00     0.312 C 
BRANCH  15  16
HETATM   16  C   UNL     1      29.562  47.634  39.793  1.00  0.00     0.014 A 
HETATM   17  C   UNL     1      28.659  48.139  38.794  1.00  0.00     0.071 A 
HETATM   18  N   UNL     1      28.704  47.369  37.695  1.00  0.00    -0.178 NA
HETATM   19  N   UNL     1      29.602  46.420  37.961  1.00  0.00    -0.288 N 
HETATM   20  H   UNL     1      29.802  45.732  37.240  1.00  0.00     0.188 HD
HETATM   21  C   UNL     1      30.135  46.522  39.202  1.00  0.00     0.120 A 
BRANCH  17  22
HETATM   22  C   UNL     1      27.744  49.368  38.760  1.00  0.00    -0.004 C 
HETATM   23  C   UNL     1      28.573  50.605  38.363  1.00  0.00     0.021 C 
HETATM   24  C   UNL     1      26.615  49.191  37.709  1.00  0.00     0.021 C 
HETATM   25  C   UNL     1      27.042  49.643  40.103  1.00  0.00     0.021 C 
ENDBRANCH  17  22
ENDBRANCH  15  16
ENDBRANCH   1  15
TORSDOF 4
ENDMDL
MODEL 10
REMARK VINA RESULT:      -6.4      1.654      6.343
REMARK  4 active torsions:
REMARK  status: ('A' for Active; 'I' for Inactive)
REMARK    1  A    between atoms: C_11  and  N_12 
REMARK    2  A    between atoms: N_12  and  C_13 
REMARK    3  A    between atoms: C_13  and  C_14 
REMARK    4  A    between atoms: C_15  and  C_16 
ROOT
HETATM    1  N   UNL     1      29.201  49.282  40.950  1.00  0.00     0.092 N 
HETATM    2  H   UNL     1      29.881  49.411  40.204  1.00  0.00     0.316 HD
ENDROOT
BRANCH   1   3
HETATM    3  C   UNL     1      28.208  50.348  41.019  1.00  0.00     0.225 C 
HETATM    4  C   UNL     1      26.865  49.903  40.420  1.00  0.00     0.073 C 
HETATM    5  C   UNL     1      26.797  49.834  38.888  1.00  0.00     0.121 C 
HETATM    6  N   UNL     1      27.366  51.108  38.293  1.00  0.00    -0.059 N 
HETATM    7  C   UNL     1      27.479  48.604  38.281  1.00  0.00     0.046 C 
HETATM    8  C   UNL     1      25.316  49.796  38.447  1.00  0.00     0.046 C 
HETATM    9  C   UNL     1      28.656  51.691  38.821  1.00  0.00     0.121 C 
HETATM   10  H   UNL     1      26.642  51.834  38.396  1.00  0.00     0.279 HD
HETATM   11  H   UNL     1      27.451  50.982  37.274  1.00  0.00     0.279 HD
HETATM   12  C   UNL     1      29.853  51.004  38.154  1.00  0.00     0.046 C 
HETATM   13  C   UNL     1      28.675  53.168  38.372  1.00  0.00     0.046 C 
HETATM   14  C   UNL     1      28.673  51.651  40.360  1.00  0.00     0.073 C 
ENDBRANCH   1   3
BRANCH   1  15
HETATM   15  C   UNL     1      29.990  49.161  42.187  1.00  0.00     0.312 C 
BRANCH  15  16
HETATM   16  C   UNL     1      31.409  48.943  41.781  1.00  0.00     0.014 A 
HETATM   17  C   UNL     1      32.573  49.781  41.891  1.00  0.00     0.071 A 
HETATM   18  N   UNL     1      33.646  49.153  41.386  1.00  0.00    -0.178 NA
HETATM   19  N   UNL     1      33.205  47.962  40.980  1.00  0.00    -0.288 N 
HETATM   20  H   UNL     1      33.875  47.314  40.576  1.00  0.00     0.188 HD
HETATM   21  C   UNL     1      31.877  47.788  41.179  1.00  0.00     0.120 A 
BRANCH  17  22
HETATM   22  C   UNL     1      32.787  51.171  42.500  1.00  0.00    -0.004 C 
HETATM   23  C   UNL     1      34.285  51.527  42.431  1.00  0.00     0.021 C 
HETATM   24  C   UNL     1      32.001  52.250  41.710  1.00  0.00     0.021 C 
HETATM   25  C   UNL     1      32.313  51.275  43.962  1.00  0.00     0.021 C 
ENDBRANCH  17  22
ENDBRANCH  15  16
ENDBRANCH   1  15
TORSDOF 4
ENDMDL
