MODEL 1
REMARK VINA RESULT:      -8.5      0.000      0.000
REMARK  7 active torsions:
REMARK  status: ('A' for Active; 'I' for Inactive)
REMARK    1  A    between atoms: C_2  and  O_3 
REMARK    2  A    between atoms: O_3  and  C_4 
REMARK    3  A    between atoms: C_7  and  N_8 
REMARK       I    between atoms: N_8  and  C_9 
REMARK    4  A    between atoms: C_9  and  C_10 
REMARK    5  A    between atoms: C_10  and  S_11 
REMARK    6  A    between atoms: S_11  and  C_12 
REMARK    7  A    between atoms: N_13  and  C_14 
ROOT
HETATM    1  C   UNL     1      25.316  43.121  49.149  1.00  0.00     0.177 A 
HETATM    2  N   UNL     1      24.541  44.200  49.632  1.00  0.00    -0.276 N 
HETATM    3  C   UNL     1      23.261  44.438  49.012  1.00  0.00     0.124 A 
HETATM    4  N   UNL     1      22.429  45.385  49.405  1.00  0.00    -0.384 N 
HETATM    5  H   UNL     1      21.531  45.505  48.963  1.00  0.00     0.157 HD
HETATM    6  H   UNL     1      22.673  45.988  50.180  1.00  0.00     0.157 HD
HETATM    7  C   UNL     1      22.898  43.555  47.950  1.00  0.00     0.081 A 
HETATM    8  C   UNL     1      23.756  42.506  47.635  1.00  0.00     0.187 A 
HETATM    9  N   UNL     1      23.302  41.761  46.637  1.00  0.00    -0.153 NA
HETATM   10  N   UNL     1      22.137  42.349  46.311  1.00  0.00    -0.280 N 
HETATM   11  H   UNL     1      21.598  41.946  45.550  1.00  0.00     0.189 HD
HETATM   12  C   UNL     1      21.842  43.462  47.073  1.00  0.00     0.042 A 
HETATM   13  C   UNL     1      20.620  44.260  46.839  1.00  0.00     0.071 C 
HETATM   14  N   UNL     1      24.984  42.261  48.230  1.00  0.00    -0.202 NA
ENDROOT
BRANCH   1  15
HETATM   15  S   UNL     1      26.953  42.877  49.812  1.00  0.00    -0.082 SA
BRANCH  15  16
HETATM   16  C   UNL     1      26.713  41.307  50.701  1.00  0.00     0.185 C 
BRANCH  16  17
HETATM   17  C   UNL     1      28.047  40.634  50.922  1.00  0.00     0.231 C 
HETATM   18  N   UNL     1      28.850  40.906  51.989  1.00  0.00    -0.327 N 
HETATM   19  H   UNL     1      29.596  40.220  52.046  1.00  0.00     0.169 HD
HETATM   20  O   UNL     1      28.420  39.740  50.151  1.00  0.00    -0.272 OA
BRANCH  18  21
HETATM   21  C   UNL     1      28.885  41.921  52.960  1.00  0.00     0.034 A 
HETATM   22  C   UNL     1      27.772  42.497  53.564  1.00  0.00     0.032 A 
HETATM   23  C   UNL     1      27.927  43.544  54.482  1.00  0.00     0.039 A 
HETATM   24  C   UNL     1      29.190  44.037  54.809  1.00  0.00     0.068 A 
HETATM   25  C   UNL     1      30.307  43.468  54.207  1.00  0.00     0.039 A 
HETATM   26  C   UNL     1      30.152  42.427  53.283  1.00  0.00     0.032 A 
BRANCH  24  27
HETATM   27  O   UNL     1      29.191  45.069  55.704  1.00  0.00    -0.352 OA
BRANCH  27  28
HETATM   28  C   UNL     1      30.418  45.342  56.380  1.00  0.00     0.171 C 
HETATM   29  C   UNL     1      30.083  45.915  57.745  1.00  0.00     0.034 C 
ENDBRANCH  27  28
ENDBRANCH  24  27
ENDBRANCH  18  21
ENDBRANCH  16  17
ENDBRANCH  15  16
ENDBRANCH   1  15
BRANCH   2  30
HETATM   30  C   UNL     1      24.962  44.989  50.743  1.00  0.00     0.043 A 
HETATM   31  C   UNL     1      24.743  44.537  52.054  1.00  0.00     0.031 A 
HETATM   32  C   UNL     1      25.206  45.277  53.144  1.00  0.00     0.021 A 
HETATM   33  C   UNL     1      25.893  46.470  52.928  1.00  0.00     0.011 A 
HETATM   34 BR   UNL     1      26.524  47.469  54.403  1.00  0.00    -0.051 Br
HETATM   35  C   UNL     1      26.122  46.931  51.633  1.00  0.00     0.021 A 
HETATM   36  C   UNL     1      25.661  46.190  50.543  1.00  0.00     0.031 A 
ENDBRANCH   2  30
TORSDOF 7
ENDMDL
MODEL 2
REMARK VINA RESULT:      -8.4      4.866      9.046
REMARK  7 active torsions:
REMARK  status: ('A' for Active; 'I' for Inactive)
REMARK    1  A    between atoms: C_2  and  O_3 
REMARK    2  A    between atoms: O_3  and  C_4 
REMARK    3  A    between atoms: C_7  and  N_8 
REMARK       I    between atoms: N_8  and  C_9 
REMARK    4  A    between atoms: C_9  and  C_10 
REMARK    5  A    between atoms: C_10  and  S_11 
REMARK    6  A    between atoms: S_11  and  C_12 
REMARK    7  A    between atoms: N_13  and  C_14 
ROOT
HETATM    1  C   UNL     1      26.339  44.864  52.620  1.00  0.00     0.177 A 
HETATM    2  N   UNL     1      27.132  43.744  52.283  1.00  0.00    -0.276 N 
HETATM    3  C   UNL     1      28.279  43.460  53.111  1.00  0.00     0.124 A 
HETATM    4  N   UNL     1      29.067  42.417  52.924  1.00  0.00    -0.384 N 
HETATM    5  H   UNL     1      29.846  42.237  53.540  1.00  0.00     0.157 HD
HETATM    6  H   UNL     1      28.881  41.765  52.174  1.00  0.00     0.157 HD
HETATM    7  C   UNL     1      28.511  44.355  54.199  1.00  0.00     0.081 A 
HETATM    8  C   UNL     1      27.598  45.380  54.424  1.00  0.00     0.187 A 
HETATM    9  N   UNL     1      27.926  46.134  55.463  1.00  0.00    -0.153 NA
HETATM   10  N   UNL     1      29.070  45.579  55.904  1.00  0.00    -0.280 N 
HETATM   11  H   UNL     1      29.522  46.000  56.710  1.00  0.00     0.189 HD
HETATM   12  C   UNL     1      29.485  44.492  55.161  1.00  0.00     0.042 A 
HETATM   13  C   UNL     1      30.737  43.772  55.474  1.00  0.00     0.071 C 
HETATM   14  N   UNL     1      26.487  45.657  53.641  1.00  0.00    -0.202 NA
ENDROOT
BRANCH   1  15
HETATM   15  S   UNL     1      24.987  45.312  51.547  1.00  0.00    -0.082 SA
BRANCH  15  16
HETATM   16  C   UNL     1      25.359  47.072  51.272  1.00  0.00     0.185 C 
BRANCH  16  17
HETATM   17  C   UNL     1      25.836  47.279  49.853  1.00  0.00     0.231 C 
HETATM   18  N   UNL     1      25.255  48.164  48.995  1.00  0.00    -0.327 N 
HETATM   19  H   UNL     1      25.837  48.283  48.172  1.00  0.00     0.169 HD
HETATM   20  O   UNL     1      26.842  46.681  49.449  1.00  0.00    -0.272 OA
BRANCH  18  21
HETATM   21  C   UNL     1      24.050  48.884  48.993  1.00  0.00     0.034 A 
HETATM   22  C   UNL     1      22.784  48.338  49.176  1.00  0.00     0.032 A 
HETATM   23  C   UNL     1      21.643  49.149  49.098  1.00  0.00     0.039 A 
HETATM   24  C   UNL     1      21.745  50.514  48.830  1.00  0.00     0.068 A 
HETATM   25  C   UNL     1      23.007  51.068  48.644  1.00  0.00     0.039 A 
HETATM   26  C   UNL     1      24.146  50.256  48.715  1.00  0.00     0.032 A 
BRANCH  24  27
HETATM   27  O   UNL     1      20.553  51.177  48.766  1.00  0.00    -0.352 OA
BRANCH  27  28
HETATM   28  C   UNL     1      19.801  51.281  49.975  1.00  0.00     0.171 C 
HETATM   29  C   UNL     1      18.541  52.073  49.676  1.00  0.00     0.034 C 
ENDBRANCH  27  28
ENDBRANCH  24  27
ENDBRANCH  18  21
ENDBRANCH  16  17
ENDBRANCH  15  16
ENDBRANCH   1  15
BRANCH   2  30
HETATM   30  C   UNL     1      26.781  42.871  51.212  1.00  0.00     0.043 A 
HETATM   31  C   UNL     1      27.131  43.198  49.892  1.00  0.00     0.031 A 
HETATM   32  C   UNL     1      26.843  42.319  48.845  1.00  0.00     0.021 A 
HETATM   33  C   UNL     1      26.208  41.108  49.114  1.00  0.00     0.011 A 
HETATM   34 BR   UNL     1      25.823  39.916  47.699  1.00  0.00    -0.051 Br
HETATM   35  C   UNL     1      25.858  40.767  50.419  1.00  0.00     0.021 A 
HETATM   36  C   UNL     1      26.148  41.645  51.466  1.00  0.00     0.031 A 
ENDBRANCH   2  30
TORSDOF 7
ENDMDL
MODEL 3
REMARK VINA RESULT:      -8.1     11.667     13.418
REMARK  7 active torsions:
REMARK  status: ('A' for Active; 'I' for Inactive)
REMARK    1  A    between atoms: C_2  and  O_3 
REMARK    2  A    between atoms: O_3  and  C_4 
REMARK    3  A    between atoms: C_7  and  N_8 
REMARK       I    between atoms: N_8  and  C_9 
REMARK    4  A    between atoms: C_9  and  C_10 
REMARK    5  A    between atoms: C_10  and  S_11 
REMARK    6  A    between atoms: S_11  and  C_12 
REMARK    7  A    between atoms: N_13  and  C_14 
ROOT
HETATM    1  C   UNL     1      27.457  48.972  38.158  1.00  0.00     0.177 A 
HETATM    2  N   UNL     1      26.738  49.537  39.235  1.00  0.00    -0.276 N 
HETATM    3  C   UNL     1      27.326  50.663  39.918  1.00  0.00     0.124 A 
HETATM    4  N   UNL     1      26.730  51.303  40.907  1.00  0.00    -0.384 N 
HETATM    5  H   UNL     1      27.162  52.103  41.343  1.00  0.00     0.157 HD
HETATM    6  H   UNL     1      25.813  51.015  41.222  1.00  0.00     0.157 HD
HETATM    7  C   UNL     1      28.599  51.098  39.440  1.00  0.00     0.081 A 
HETATM    8  C   UNL     1      29.145  50.464  38.329  1.00  0.00     0.187 A 
HETATM    9  N   UNL     1      30.323  50.964  37.985  1.00  0.00    -0.153 NA
HETATM   10  N   UNL     1      30.530  51.932  38.897  1.00  0.00    -0.280 N 
HETATM   11  H   UNL     1      31.393  52.465  38.836  1.00  0.00     0.189 HD
HETATM   12  C   UNL     1      29.512  52.054  39.822  1.00  0.00     0.042 A 
HETATM   13  C   UNL     1      29.577  53.041  40.920  1.00  0.00     0.071 C 
HETATM   14  N   UNL     1      28.585  49.387  37.658  1.00  0.00    -0.202 NA
ENDROOT
BRANCH   1  15
HETATM   15  S   UNL     1      26.815  47.505  37.373  1.00  0.00    -0.082 SA
BRANCH  15  16
HETATM   16  C   UNL     1      28.202  46.358  37.641  1.00  0.00     0.185 C 
BRANCH  16  17
HETATM   17  C   UNL     1      28.018  45.628  38.952  1.00  0.00     0.231 C 
HETATM   18  N   UNL     1      28.469  46.112  40.142  1.00  0.00    -0.327 N 
HETATM   19  H   UNL     1      28.081  45.569  40.907  1.00  0.00     0.169 HD
HETATM   20  O   UNL     1      27.369  44.574  38.982  1.00  0.00    -0.272 OA
BRANCH  18  21
HETATM   21  C   UNL     1      29.356  47.135  40.515  1.00  0.00     0.034 A 
HETATM   22  C   UNL     1      30.608  47.361  39.954  1.00  0.00     0.032 A 
HETATM   23  C   UNL     1      31.432  48.383  40.446  1.00  0.00     0.039 A 
HETATM   24  C   UNL     1      31.025  49.190  41.508  1.00  0.00     0.068 A 
HETATM   25  C   UNL     1      29.775  48.969  42.076  1.00  0.00     0.039 A 
HETATM   26  C   UNL     1      28.955  47.944  41.589  1.00  0.00     0.032 A 
BRANCH  24  27
HETATM   27  O   UNL     1      31.934  50.133  41.894  1.00  0.00    -0.352 OA
BRANCH  27  28
HETATM   28  C   UNL     1      32.086  50.354  43.296  1.00  0.00     0.171 C 
HETATM   29  C   UNL     1      32.365  51.831  43.510  1.00  0.00     0.034 C 
ENDBRANCH  27  28
ENDBRANCH  24  27
ENDBRANCH  18  21
ENDBRANCH  16  17
ENDBRANCH  15  16
ENDBRANCH   1  15
BRANCH   2  30
HETATM   30  C   UNL     1      25.441  49.070  39.599  1.00  0.00     0.043 A 
HETATM   31  C   UNL     1      24.295  49.656  39.037  1.00  0.00     0.031 A 
HETATM   32  C   UNL     1      23.025  49.164  39.344  1.00  0.00     0.021 A 
HETATM   33  C   UNL     1      22.894  48.082  40.212  1.00  0.00     0.011 A 
HETATM   34 BR   UNL     1      21.175  47.413  40.623  1.00  0.00    -0.051 Br
HETATM   35  C   UNL     1      24.020  47.486  40.775  1.00  0.00     0.021 A 
HETATM   36  C   UNL     1      25.291  47.977  40.466  1.00  0.00     0.031 A 
ENDBRANCH   2  30
TORSDOF 7
ENDMDL
MODEL 4
REMARK VINA RESULT:      -8.1     13.195     15.281
REMARK  7 active torsions:
REMARK  status: ('A' for Active; 'I' for Inactive)
REMARK    1  A    between atoms: C_2  and  O_3 
REMARK    2  A    between atoms: O_3  and  C_4 
REMARK    3  A    between atoms: C_7  and  N_8 
REMARK       I    between atoms: N_8  and  C_9 
REMARK    4  A    between atoms: C_9  and  C_10 
REMARK    5  A    between atoms: C_10  and  S_11 
REMARK    6  A    between atoms: S_11  and  C_12 
REMARK    7  A    between atoms: N_13  and  C_14 
ROOT
HETATM    1  C   UNL     1      29.601  50.036  41.474  1.00  0.00     0.177 A 
HETATM    2  N   UNL     1      30.365  48.999  40.891  1.00  0.00    -0.276 N 
HETATM    3  C   UNL     1      31.790  49.008  41.117  1.00  0.00     0.124 A 
HETATM    4  N   UNL     1      32.601  48.070  40.663  1.00  0.00    -0.384 N 
HETATM    5  H   UNL     1      33.590  48.097  40.863  1.00  0.00     0.157 HD
HETATM    6  H   UNL     1      32.234  47.292  40.131  1.00  0.00     0.157 HD
HETATM    7  C   UNL     1      32.298  50.081  41.909  1.00  0.00     0.081 A 
HETATM    8  C   UNL     1      31.398  50.991  42.455  1.00  0.00     0.187 A 
HETATM    9  N   UNL     1      31.996  51.932  43.171  1.00  0.00    -0.153 NA
HETATM   10  N   UNL     1      33.301  51.616  43.075  1.00  0.00    -0.280 N 
HETATM   11  H   UNL     1      33.970  52.213  43.552  1.00  0.00     0.189 HD
HETATM   12  C   UNL     1      33.549  50.498  42.304  1.00  0.00     0.042 A 
HETATM   13  C   UNL     1      34.924  50.016  42.057  1.00  0.00     0.071 C 
HETATM   14  N   UNL     1      30.026  50.987  42.253  1.00  0.00    -0.202 NA
ENDROOT
BRANCH   1  15
HETATM   15  S   UNL     1      27.857  50.121  41.113  1.00  0.00    -0.082 SA
BRANCH  15  16
HETATM   16  C   UNL     1      27.807  51.634  40.102  1.00  0.00     0.185 C 
BRANCH  16  17
HETATM   17  C   UNL     1      28.048  51.288  38.651  1.00  0.00     0.231 C 
HETATM   18  N   UNL     1      29.291  51.244  38.093  1.00  0.00    -0.327 N 
HETATM   19  H   UNL     1      29.245  50.814  37.175  1.00  0.00     0.169 HD
HETATM   20  O   UNL     1      27.097  50.957  37.931  1.00  0.00    -0.272 OA
BRANCH  18  21
HETATM   21  C   UNL     1      30.562  51.690  38.489  1.00  0.00     0.034 A 
HETATM   22  C   UNL     1      31.770  51.092  38.146  1.00  0.00     0.032 A 
HETATM   23  C   UNL     1      32.978  51.595  38.647  1.00  0.00     0.039 A 
HETATM   24  C   UNL     1      33.003  52.697  39.501  1.00  0.00     0.068 A 
HETATM   25  C   UNL     1      31.799  53.301  39.850  1.00  0.00     0.039 A 
HETATM   26  C   UNL     1      30.591  52.793  39.356  1.00  0.00     0.032 A 
BRANCH  24  27
HETATM   27  O   UNL     1      34.247  53.069  39.925  1.00  0.00    -0.352 OA
BRANCH  27  28
HETATM   28  C   UNL     1      35.359  52.365  39.371  1.00  0.00     0.171 C 
HETATM   29  C   UNL     1      36.625  52.932  39.988  1.00  0.00     0.034 C 
ENDBRANCH  27  28
ENDBRANCH  24  27
ENDBRANCH  18  21
ENDBRANCH  16  17
ENDBRANCH  15  16
ENDBRANCH   1  15
BRANCH   2  30
HETATM   30  C   UNL     1      29.756  47.934  40.166  1.00  0.00     0.043 A 
HETATM   31  C   UNL     1      28.964  46.986  40.834  1.00  0.00     0.031 A 
HETATM   32  C   UNL     1      28.317  45.975  40.120  1.00  0.00     0.021 A 
HETATM   33  C   UNL     1      28.456  45.909  38.735  1.00  0.00     0.011 A 
HETATM   34 BR   UNL     1      27.576  44.543  37.770  1.00  0.00    -0.051 Br
HETATM   35  C   UNL     1      29.235  46.843  38.056  1.00  0.00     0.021 A 
HETATM   36  C   UNL     1      29.880  47.856  38.770  1.00  0.00     0.031 A 
ENDBRANCH   2  30
TORSDOF 7
ENDMDL
MODEL 5
REMARK VINA RESULT:      -8.1      4.066      5.814
REMARK  7 active torsions:
REMARK  status: ('A' for Active; 'I' for Inactive)
REMARK    1  A    between atoms: C_2  and  O_3 
REMARK    2  A    between atoms: O_3  and  C_4 
REMARK    3  A    between atoms: C_7  and  N_8 
REMARK       I    between atoms: N_8  and  C_9 
REMARK    4  A    between atoms: C_9  and  C_10 
REMARK    5  A    between atoms: C_10  and  S_11 
REMARK    6  A    between atoms: S_11  and  C_12 
REMARK    7  A    between atoms: N_13  and  C_14 
ROOT
HETATM    1  C   UNL     1      21.179  47.220  48.090  1.00  0.00     0.177 A 
HETATM    2  N   UNL     1      21.711  48.370  48.717  1.00  0.00    -0.276 N 
HETATM    3  C   UNL     1      20.780  49.320  49.276  1.00  0.00     0.124 A 
HETATM    4  N   UNL     1      21.156  50.407  49.925  1.00  0.00    -0.384 N 
HETATM    5  H   UNL     1      20.475  51.035  50.324  1.00  0.00     0.157 HD
HETATM    6  H   UNL     1      22.139  50.609  50.055  1.00  0.00     0.157 HD
HETATM    7  C   UNL     1      19.394  49.008  49.133  1.00  0.00     0.081 A 
HETATM    8  C   UNL     1      19.042  47.802  48.535  1.00  0.00     0.187 A 
HETATM    9  N   UNL     1      17.730  47.632  48.468  1.00  0.00    -0.153 NA
HETATM   10  N   UNL     1      17.240  48.752  49.030  1.00  0.00    -0.280 N 
HETATM   11  H   UNL     1      16.230  48.852  49.088  1.00  0.00     0.189 HD
HETATM   12  C   UNL     1      18.213  49.638  49.446  1.00  0.00     0.042 A 
HETATM   13  C   UNL     1      17.866  50.939  50.058  1.00  0.00     0.071 C 
HETATM   14  N   UNL     1      19.927  46.876  48.002  1.00  0.00    -0.202 NA
ENDROOT
BRANCH   1  15
HETATM   15  S   UNL     1      22.298  46.090  47.283  1.00  0.00    -0.082 SA
BRANCH  15  16
HETATM   16  C   UNL     1      22.198  44.669  48.416  1.00  0.00     0.185 C 
BRANCH  16  17
HETATM   17  C   UNL     1      23.127  43.573  47.947  1.00  0.00     0.231 C 
HETATM   18  N   UNL     1      24.191  43.137  48.678  1.00  0.00    -0.327 N 
HETATM   19  H   UNL     1      24.563  42.283  48.275  1.00  0.00     0.169 HD
HETATM   20  O   UNL     1      22.893  42.980  46.886  1.00  0.00    -0.272 OA
BRANCH  18  21
HETATM   21  C   UNL     1      24.880  43.626  49.801  1.00  0.00     0.034 A 
HETATM   22  C   UNL     1      24.415  43.589  51.111  1.00  0.00     0.032 A 
HETATM   23  C   UNL     1      25.167  44.159  52.147  1.00  0.00     0.039 A 
HETATM   24  C   UNL     1      26.391  44.779  51.893  1.00  0.00     0.068 A 
HETATM   25  C   UNL     1      26.862  44.822  50.586  1.00  0.00     0.039 A 
HETATM   26  C   UNL     1      26.106  44.259  49.549  1.00  0.00     0.032 A 
BRANCH  24  27
HETATM   27  O   UNL     1      27.007  45.305  52.993  1.00  0.00    -0.352 OA
BRANCH  27  28
HETATM   28  C   UNL     1      26.168  45.866  54.002  1.00  0.00     0.171 C 
HETATM   29  C   UNL     1      26.064  47.360  53.747  1.00  0.00     0.034 C 
ENDBRANCH  27  28
ENDBRANCH  24  27
ENDBRANCH  18  21
ENDBRANCH  16  17
ENDBRANCH  15  16
ENDBRANCH   1  15
BRANCH   2  30
HETATM   30  C   UNL     1      23.116  48.563  48.866  1.00  0.00     0.043 A 
HETATM   31  C   UNL     1      23.849  47.758  49.752  1.00  0.00     0.031 A 
HETATM   32  C   UNL     1      25.234  47.903  49.859  1.00  0.00     0.021 A 
HETATM   33  C   UNL     1      25.892  48.849  49.077  1.00  0.00     0.011 A 
HETATM   34 BR   UNL     1      27.767  49.041  49.217  1.00  0.00    -0.051 Br
HETATM   35  C   UNL     1      25.180  49.654  48.189  1.00  0.00     0.021 A 
HETATM   36  C   UNL     1      23.795  49.507  48.081  1.00  0.00     0.031 A 
ENDBRANCH   2  30
TORSDOF 7
ENDMDL
MODEL 6
REMARK VINA RESULT:      -8.1      5.539      9.735
REMARK  7 active torsions:
REMARK  status: ('A' for Active; 'I' for Inactive)
REMARK    1  A    between atoms: C_2  and  O_3 
REMARK    2  A    between atoms: O_3  and  C_4 
REMARK    3  A    between atoms: C_7  and  N_8 
REMARK       I    between atoms: N_8  and  C_9 
REMARK    4  A    between atoms: C_9  and  C_10 
REMARK    5  A    between atoms: C_10  and  S_11 
REMARK    6  A    between atoms: S_11  and  C_12 
REMARK    7  A    between atoms: N_13  and  C_14 
ROOT
HETATM    1  C   UNL     1      25.430  46.248  51.543  1.00  0.00     0.177 A 
HETATM    2  N   UNL     1      26.097  45.039  51.845  1.00  0.00    -0.276 N 
HETATM    3  C   UNL     1      26.808  44.959  53.098  1.00  0.00     0.124 A 
HETATM    4  N   UNL     1      27.430  43.870  53.510  1.00  0.00    -0.384 N 
HETATM    5  H   UNL     1      27.895  43.844  54.405  1.00  0.00     0.157 HD
HETATM    6  H   UNL     1      27.423  43.032  52.942  1.00  0.00     0.157 HD
HETATM    7  C   UNL     1      26.776  46.127  53.919  1.00  0.00     0.081 A 
HETATM    8  C   UNL     1      26.023  47.217  53.496  1.00  0.00     0.187 A 
HETATM    9  N   UNL     1      26.073  48.231  54.348  1.00  0.00    -0.153 NA
HETATM   10  N   UNL     1      26.876  47.777  55.328  1.00  0.00    -0.280 N 
HETATM   11  H   UNL     1      27.069  48.397  56.109  1.00  0.00     0.189 HD
HETATM   12  C   UNL     1      27.347  46.497  55.114  1.00  0.00     0.042 A 
HETATM   13  C   UNL     1      28.268  45.841  56.066  1.00  0.00     0.071 C 
HETATM   14  N   UNL     1      25.328  47.302  52.299  1.00  0.00    -0.202 NA
ENDROOT
BRANCH   1  15
HETATM   15  S   UNL     1      24.646  46.420  49.951  1.00  0.00    -0.082 SA
BRANCH  15  16
HETATM   16  C   UNL     1      23.967  48.102  50.103  1.00  0.00     0.185 C 
BRANCH  16  17
HETATM   17  C   UNL     1      24.449  48.954  48.952  1.00  0.00     0.231 C 
HETATM   18  N   UNL     1      23.637  49.811  48.271  1.00  0.00    -0.327 N 
HETATM   19  H   UNL     1      24.193  50.414  47.673  1.00  0.00     0.169 HD
HETATM   20  O   UNL     1      25.647  48.945  48.638  1.00  0.00    -0.272 OA
BRANCH  18  21
HETATM   21  C   UNL     1      22.247  49.997  48.194  1.00  0.00     0.034 A 
HETATM   22  C   UNL     1      21.346  49.109  47.617  1.00  0.00     0.032 A 
HETATM   23  C   UNL     1      19.983  49.426  47.549  1.00  0.00     0.039 A 
HETATM   24  C   UNL     1      19.497  50.635  48.047  1.00  0.00     0.068 A 
HETATM   25  C   UNL     1      20.393  51.530  48.623  1.00  0.00     0.039 A 
HETATM   26  C   UNL     1      21.756  51.215  48.685  1.00  0.00     0.032 A 
BRANCH  24  27
HETATM   27  O   UNL     1      18.152  50.820  47.898  1.00  0.00    -0.352 OA
BRANCH  27  28
HETATM   28  C   UNL     1      17.364  50.844  49.088  1.00  0.00     0.171 C 
HETATM   29  C   UNL     1      16.828  52.254  49.266  1.00  0.00     0.034 C 
ENDBRANCH  27  28
ENDBRANCH  24  27
ENDBRANCH  18  21
ENDBRANCH  16  17
ENDBRANCH  15  16
ENDBRANCH   1  15
BRANCH   2  30
HETATM   30  C   UNL     1      26.019  43.903  50.986  1.00  0.00     0.043 A 
HETATM   31  C   UNL     1      27.064  43.620  50.093  1.00  0.00     0.031 A 
HETATM   32  C   UNL     1      27.020  42.477  49.292  1.00  0.00     0.021 A 
HETATM   33  C   UNL     1      25.933  41.610  49.383  1.00  0.00     0.011 A 
HETATM   34 BR   UNL     1      25.876  40.061  48.303  1.00  0.00    -0.051 Br
HETATM   35  C   UNL     1      24.889  41.875  50.266  1.00  0.00     0.021 A 
HETATM   36  C   UNL     1      24.934  43.017  51.070  1.00  0.00     0.031 A 
ENDBRANCH   2  30
TORSDOF 7
ENDMDL
MODEL 7
REMARK VINA RESULT:      -8.0      2.826      7.160
REMARK  7 active torsions:
REMARK  status: ('A' for Active; 'I' for Inactive)
REMARK    1  A    between atoms: C_2  and  O_3 
REMARK    2  A    between atoms: O_3  and  C_4 
REMARK    3  A    between atoms: C_7  and  N_8 
REMARK       I    between atoms: N_8  and  C_9 
REMARK    4  A    between atoms: C_9  and  C_10 
REMARK    5  A    between atoms: C_10  and  S_11 
REMARK    6  A    between atoms: S_11  and  C_12 
REMARK    7  A    between atoms: N_13  and  C_14 
ROOT
HETATM    1  C   UNL     1      27.332  43.247  50.638  1.00  0.00     0.177 A 
HETATM    2  N   UNL     1      28.010  42.316  51.457  1.00  0.00    -0.276 N 
HETATM    3  C   UNL     1      28.108  40.955  50.986  1.00  0.00     0.124 A 
HETATM    4  N   UNL     1      28.754  40.007  51.640  1.00  0.00    -0.384 N 
HETATM    5  H   UNL     1      28.823  39.073  51.266  1.00  0.00     0.157 HD
HETATM    6  H   UNL     1      29.216  40.215  52.515  1.00  0.00     0.157 HD
HETATM    7  C   UNL     1      27.497  40.676  49.727  1.00  0.00     0.081 A 
HETATM    8  C   UNL     1      26.917  41.725  49.021  1.00  0.00     0.187 A 
HETATM    9  N   UNL     1      26.391  41.334  47.870  1.00  0.00    -0.153 NA
HETATM   10  N   UNL     1      26.638  40.012  47.845  1.00  0.00    -0.280 N 
HETATM   11  H   UNL     1      26.315  39.483  47.040  1.00  0.00     0.189 HD
HETATM   12  C   UNL     1      27.303  39.549  48.962  1.00  0.00     0.042 A 
HETATM   13  C   UNL     1      27.633  38.118  49.130  1.00  0.00     0.071 C 
HETATM   14  N   UNL     1      26.824  43.038  49.459  1.00  0.00    -0.202 NA
ENDROOT
BRANCH   1  15
HETATM   15  S   UNL     1      27.088  44.905  51.247  1.00  0.00    -0.082 SA
BRANCH  15  16
HETATM   16  C   UNL     1      26.870  45.800  49.678  1.00  0.00     0.185 C 
BRANCH  16  17
HETATM   17  C   UNL     1      25.627  46.656  49.744  1.00  0.00     0.231 C 
HETATM   18  N   UNL     1      24.367  46.138  49.743  1.00  0.00    -0.327 N 
HETATM   19  H   UNL     1      23.694  46.860  49.981  1.00  0.00     0.169 HD
HETATM   20  O   UNL     1      25.731  47.883  49.875  1.00  0.00    -0.272 OA
BRANCH  18  21
HETATM   21  C   UNL     1      23.822  44.877  49.452  1.00  0.00     0.034 A 
HETATM   22  C   UNL     1      23.442  43.926  50.394  1.00  0.00     0.032 A 
HETATM   23  C   UNL     1      22.960  42.675  49.984  1.00  0.00     0.039 A 
HETATM   24  C   UNL     1      22.855  42.350  48.632  1.00  0.00     0.068 A 
HETATM   25  C   UNL     1      23.235  43.294  47.684  1.00  0.00     0.039 A 
HETATM   26  C   UNL     1      23.724  44.542  48.094  1.00  0.00     0.032 A 
BRANCH  24  27
HETATM   27  O   UNL     1      22.387  41.093  48.378  1.00  0.00    -0.352 OA
BRANCH  27  28
HETATM   28  C   UNL     1      22.246  40.715  47.008  1.00  0.00     0.171 C 
HETATM   29  C   UNL     1      23.232  39.595  46.728  1.00  0.00     0.034 C 
ENDBRANCH  27  28
ENDBRANCH  24  27
ENDBRANCH  18  21
ENDBRANCH  16  17
ENDBRANCH  15  16
ENDBRANCH   1  15
BRANCH   2  30
HETATM   30  C   UNL     1      28.643  42.706  52.673  1.00  0.00     0.043 A 
HETATM   31  C   UNL     1      30.042  42.803  52.741  1.00  0.00     0.031 A 
HETATM   32  C   UNL     1      30.665  43.241  53.912  1.00  0.00     0.021 A 
HETATM   33  C   UNL     1      29.892  43.588  55.018  1.00  0.00     0.011 A 
HETATM   34 BR   UNL     1      30.735  44.186  56.600  1.00  0.00    -0.051 Br
HETATM   35  C   UNL     1      28.503  43.500  54.966  1.00  0.00     0.021 A 
HETATM   36  C   UNL     1      27.879  43.064  53.795  1.00  0.00     0.031 A 
ENDBRANCH   2  30
TORSDOF 7
ENDMDL
MODEL 8
REMARK VINA RESULT:      -8.0      3.035      5.143
REMARK  7 active torsions:
REMARK  status: ('A' for Active; 'I' for Inactive)
REMARK    1  A    between atoms: C_2  and  O_3 
REMARK    2  A    between atoms: O_3  and  C_4 
REMARK    3  A    between atoms: C_7  and  N_8 
REMARK       I    between atoms: N_8  and  C_9 
REMARK    4  A    between atoms: C_9  and  C_10 
REMARK    5  A    between atoms: C_10  and  S_11 
REMARK    6  A    between atoms: S_11  and  C_12 
REMARK    7  A    between atoms: N_13  and  C_14 
ROOT
HETATM    1  C   UNL     1      26.062  41.958  50.655  1.00  0.00     0.177 A 
HETATM    2  N   UNL     1      27.309  41.394  51.005  1.00  0.00    -0.276 N 
HETATM    3  C   UNL     1      27.815  40.320  50.184  1.00  0.00     0.124 A 
HETATM    4  N   UNL     1      28.986  39.745  50.384  1.00  0.00    -0.384 N 
HETATM    5  H   UNL     1      29.317  39.014  49.772  1.00  0.00     0.157 HD
HETATM    6  H   UNL     1      29.583  40.052  51.141  1.00  0.00     0.157 HD
HETATM    7  C   UNL     1      26.992  39.921  49.088  1.00  0.00     0.081 A 
HETATM    8  C   UNL     1      25.814  40.622  48.850  1.00  0.00     0.187 A 
HETATM    9  N   UNL     1      25.147  40.156  47.804  1.00  0.00    -0.153 NA
HETATM   10  N   UNL     1      25.914  39.138  47.372  1.00  0.00    -0.280 N 
HETATM   11  H   UNL     1      25.595  38.614  46.562  1.00  0.00     0.189 HD
HETATM   12  C   UNL     1      27.053  38.939  48.127  1.00  0.00     0.042 A 
HETATM   13  C   UNL     1      28.001  37.846  47.825  1.00  0.00     0.071 C 
HETATM   14  N   UNL     1      25.323  41.661  49.626  1.00  0.00    -0.202 NA
ENDROOT
BRANCH   1  15
HETATM   15  S   UNL     1      25.355  43.201  51.719  1.00  0.00    -0.082 SA
BRANCH  15  16
HETATM   16  C   UNL     1      26.077  44.704  50.990  1.00  0.00     0.185 C 
BRANCH  16  17
HETATM   17  C   UNL     1      25.125  45.865  51.159  1.00  0.00     0.231 C 
HETATM   18  N   UNL     1      25.253  46.795  52.147  1.00  0.00    -0.327 N 
HETATM   19  H   UNL     1      24.633  47.579  51.968  1.00  0.00     0.169 HD
HETATM   20  O   UNL     1      24.218  46.042  50.334  1.00  0.00    -0.272 OA
BRANCH  18  21
HETATM   21  C   UNL     1      26.001  46.872  53.333  1.00  0.00     0.034 A 
HETATM   22  C   UNL     1      25.886  47.870  54.295  1.00  0.00     0.032 A 
HETATM   23  C   UNL     1      26.727  47.874  55.416  1.00  0.00     0.039 A 
HETATM   24  C   UNL     1      27.699  46.889  55.593  1.00  0.00     0.068 A 
HETATM   25  C   UNL     1      27.821  45.889  54.635  1.00  0.00     0.039 A 
HETATM   26  C   UNL     1      26.986  45.889  53.511  1.00  0.00     0.032 A 
BRANCH  24  27
HETATM   27  O   UNL     1      28.457  47.027  56.721  1.00  0.00    -0.352 OA
BRANCH  27  28
HETATM   28  C   UNL     1      28.696  45.849  57.491  1.00  0.00     0.171 C 
HETATM   29  C   UNL     1      30.085  45.958  58.095  1.00  0.00     0.034 C 
ENDBRANCH  27  28
ENDBRANCH  24  27
ENDBRANCH  18  21
ENDBRANCH  16  17
ENDBRANCH  15  16
ENDBRANCH   1  15
BRANCH   2  30
HETATM   30  C   UNL     1      28.088  41.904  52.085  1.00  0.00     0.043 A 
HETATM   31  C   UNL     1      27.943  41.370  53.375  1.00  0.00     0.031 A 
HETATM   32  C   UNL     1      28.745  41.825  54.424  1.00  0.00     0.021 A 
HETATM   33  C   UNL     1      29.698  42.813  54.187  1.00  0.00     0.011 A 
HETATM   34 BR   UNL     1      30.787  43.425  55.605  1.00  0.00    -0.051 Br
HETATM   35  C   UNL     1      29.858  43.351  52.912  1.00  0.00     0.021 A 
HETATM   36  C   UNL     1      29.057  42.895  51.862  1.00  0.00     0.031 A 
ENDBRANCH   2  30
TORSDOF 7
ENDMDL
MODEL 9
REMARK VINA RESULT:      -7.9     11.853     13.752
REMARK  7 active torsions:
REMARK  status: ('A' for Active; 'I' for Inactive)
REMARK    1  A    between atoms: C_2  and  O_3 
REMARK    2  A    between atoms: O_3  and  C_4 
REMARK    3  A    between atoms: C_7  and  N_8 
REMARK       I    between atoms: N_8  and  C_9 
REMARK    4  A    between atoms: C_9  and  C_10 
REMARK    5  A    between atoms: C_10  and  S_11 
REMARK    6  A    between atoms: S_11  and  C_12 
REMARK    7  A    between atoms: N_13  and  C_14 
ROOT
HETATM    1  C   UNL     1      28.273  48.058  38.351  1.00  0.00     0.177 A 
HETATM    2  N   UNL     1      27.136  48.884  38.199  1.00  0.00    -0.276 N 
HETATM    3  C   UNL     1      27.346  50.310  38.131  1.00  0.00     0.124 A 
HETATM    4  N   UNL     1      26.370  51.178  37.945  1.00  0.00    -0.384 N 
HETATM    5  H   UNL     1      26.559  52.167  37.877  1.00  0.00     0.157 HD
HETATM    6  H   UNL     1      25.416  50.858  37.838  1.00  0.00     0.157 HD
HETATM    7  C   UNL     1      28.699  50.755  38.234  1.00  0.00     0.081 A 
HETATM    8  C   UNL     1      29.709  49.803  38.324  1.00  0.00     0.187 A 
HETATM    9  N   UNL     1      30.914  50.346  38.409  1.00  0.00    -0.153 NA
HETATM   10  N   UNL     1      30.665  51.668  38.375  1.00  0.00    -0.280 N 
HETATM   11  H   UNL     1      31.457  52.302  38.433  1.00  0.00     0.189 HD
HETATM   12  C   UNL     1      29.324  51.980  38.280  1.00  0.00     0.042 A 
HETATM   13  C   UNL     1      28.853  53.382  38.263  1.00  0.00     0.071 C 
HETATM   14  N   UNL     1      29.520  48.430  38.381  1.00  0.00    -0.202 NA
ENDROOT
BRANCH   1  15
HETATM   15  S   UNL     1      28.036  46.304  38.561  1.00  0.00    -0.082 SA
BRANCH  15  16
HETATM   16  C   UNL     1      28.559  46.109  40.293  1.00  0.00     0.185 C 
BRANCH  16  17
HETATM   17  C   UNL     1      27.548  46.757  41.210  1.00  0.00     0.231 C 
HETATM   18  N   UNL     1      27.717  47.998  41.746  1.00  0.00    -0.327 N 
HETATM   19  H   UNL     1      26.851  48.314  42.170  1.00  0.00     0.169 HD
HETATM   20  O   UNL     1      26.476  46.183  41.446  1.00  0.00    -0.272 OA
BRANCH  18  21
HETATM   21  C   UNL     1      28.806  48.877  41.866  1.00  0.00     0.034 A 
HETATM   22  C   UNL     1      30.106  48.509  42.196  1.00  0.00     0.032 A 
HETATM   23  C   UNL     1      31.103  49.483  42.342  1.00  0.00     0.039 A 
HETATM   24  C   UNL     1      30.820  50.838  42.168  1.00  0.00     0.068 A 
HETATM   25  C   UNL     1      29.522  51.214  41.840  1.00  0.00     0.039 A 
HETATM   26  C   UNL     1      28.524  50.241  41.701  1.00  0.00     0.032 A 
BRANCH  24  27
HETATM   27  O   UNL     1      31.881  51.676  42.357  1.00  0.00    -0.352 OA
BRANCH  27  28
HETATM   28  C   UNL     1      32.855  51.283  43.324  1.00  0.00     0.171 C 
HETATM   29  C   UNL     1      32.503  51.951  44.642  1.00  0.00     0.034 C 
ENDBRANCH  27  28
ENDBRANCH  24  27
ENDBRANCH  18  21
ENDBRANCH  16  17
ENDBRANCH  15  16
ENDBRANCH   1  15
BRANCH   2  30
HETATM   30  C   UNL     1      25.828  48.340  38.042  1.00  0.00     0.043 A 
HETATM   31  C   UNL     1      24.967  48.241  39.147  1.00  0.00     0.031 A 
HETATM   32  C   UNL     1      23.664  47.763  38.989  1.00  0.00     0.021 A 
HETATM   33  C   UNL     1      23.215  47.386  37.725  1.00  0.00     0.011 A 
HETATM   34 BR   UNL     1      21.450  46.745  37.510  1.00  0.00    -0.051 Br
HETATM   35  C   UNL     1      24.055  47.481  36.618  1.00  0.00     0.021 A 
HETATM   36  C   UNL     1      25.358  47.961  36.776  1.00  0.00     0.031 A 
ENDBRANCH   2  30
TORSDOF 7
ENDMDL
MODEL 10
REMARK VINA RESULT:      -7.9      2.975      4.780
REMARK  7 active torsions:
REMARK  status: ('A' for Active; 'I' for Inactive)
REMARK    1  A    between atoms: C_2  and  O_3 
REMARK    2  A    between atoms: O_3  and  C_4 
REMARK    3  A    between atoms: C_7  and  N_8 
REMARK       I    between atoms: N_8  and  C_9 
REMARK    4  A    between atoms: C_9  and  C_10 
REMARK    5  A    between atoms: C_10  and  S_11 
REMARK    6  A    between atoms: S_11  and  C_12 
REMARK    7  A    between atoms: N_13  and  C_14 
ROOT
HETATM    1  C   UNL     1      25.441  42.735  50.039  1.00  0.00     0.177 A 
HETATM    2  N   UNL     1      24.520  43.000  49.000  1.00  0.00    -0.276 N 
HETATM    3  C   UNL     1      24.072  44.361  48.831  1.00  0.00     0.124 A 
HETATM    4  N   UNL     1      23.250  44.740  47.870  1.00  0.00    -0.384 N 
HETATM    5  H   UNL     1      22.979  45.707  47.769  1.00  0.00     0.157 HD
HETATM    6  H   UNL     1      22.902  44.066  47.201  1.00  0.00     0.157 HD
HETATM    7  C   UNL     1      24.602  45.320  49.747  1.00  0.00     0.081 A 
HETATM    8  C   UNL     1      25.546  44.900  50.679  1.00  0.00     0.187 A 
HETATM    9  N   UNL     1      25.960  45.884  51.463  1.00  0.00    -0.153 NA
HETATM   10  N   UNL     1      25.264  46.949  51.024  1.00  0.00    -0.280 N 
HETATM   11  H   UNL     1      25.415  47.839  51.488  1.00  0.00     0.189 HD
HETATM   12  C   UNL     1      24.406  46.662  49.980  1.00  0.00     0.042 A 
HETATM   13  C   UNL     1      23.535  47.697  49.386  1.00  0.00     0.071 C 
HETATM   14  N   UNL     1      25.991  43.596  50.844  1.00  0.00    -0.202 NA
ENDROOT
BRANCH   1  15
HETATM   15  S   UNL     1      25.919  41.046  50.350  1.00  0.00    -0.082 SA
BRANCH  15  16
HETATM   16  C   UNL     1      27.691  41.129  49.943  1.00  0.00     0.185 C 
BRANCH  16  17
HETATM   17  C   UNL     1      28.457  40.139  50.789  1.00  0.00     0.231 C 
HETATM   18  N   UNL     1      28.794  40.374  52.088  1.00  0.00    -0.327 N 
HETATM   19  H   UNL     1      29.133  39.519  52.519  1.00  0.00     0.169 HD
HETATM   20  O   UNL     1      28.744  39.026  50.326  1.00  0.00    -0.272 OA
BRANCH  18  21
HETATM   21  C   UNL     1      28.811  41.514  52.908  1.00  0.00     0.034 A 
HETATM   22  C   UNL     1      27.710  42.048  53.569  1.00  0.00     0.032 A 
HETATM   23  C   UNL     1      27.836  43.225  54.319  1.00  0.00     0.039 A 
HETATM   24  C   UNL     1      29.057  43.891  54.418  1.00  0.00     0.068 A 
HETATM   25  C   UNL     1      30.162  43.365  53.758  1.00  0.00     0.039 A 
HETATM   26  C   UNL     1      30.035  42.192  53.002  1.00  0.00     0.032 A 
BRANCH  24  27
HETATM   27  O   UNL     1      29.030  45.033  55.166  1.00  0.00    -0.352 OA
BRANCH  27  28
HETATM   28  C   UNL     1      27.796  45.748  55.217  1.00  0.00     0.171 C 
HETATM   29  C   UNL     1      28.102  47.225  55.045  1.00  0.00     0.034 C 
ENDBRANCH  27  28
ENDBRANCH  24  27
ENDBRANCH  18  21
ENDBRANCH  16  17
ENDBRANCH  15  16
ENDBRANCH   1  15
BRANCH   2  30
HETATM   30  C   UNL     1      24.095  41.984  48.095  1.00  0.00     0.043 A 
HETATM   31  C   UNL     1      24.938  41.571  47.051  1.00  0.00     0.031 A 
HETATM   32  C   UNL     1      24.552  40.535  46.197  1.00  0.00     0.021 A 
HETATM   33  C   UNL     1      23.324  39.905  46.386  1.00  0.00     0.011 A 
HETATM   34 BR   UNL     1      22.804  38.500  45.234  1.00  0.00    -0.051 Br
HETATM   35  C   UNL     1      22.477  40.300  47.420  1.00  0.00     0.021 A 
HETATM   36  C   UNL     1      22.864  41.335  48.275  1.00  0.00     0.031 A 
ENDBRANCH   2  30
TORSDOF 7
ENDMDL
