MODEL 1
REMARK VINA RESULT:      -8.4      0.000      0.000
REMARK  9 active torsions:
REMARK  status: ('A' for Active; 'I' for Inactive)
REMARK    1  A    between atoms: C_2  and  C_3 
REMARK    2  A    between atoms: C_7  and  C_8 
REMARK    3  A    between atoms: C_8  and  C_9 
REMARK       I    between atoms: C_9  and  N_10 
REMARK    4  A    between atoms: N_10  and  C_11 
REMARK    5  A    between atoms: C_11  and  C_12 
REMARK    6  A    between atoms: C_12  and  C_13 
REMARK    7  A    between atoms: C_21  and  C_22 
REMARK    8  A    between atoms: C_32  and  C_33 
REMARK    9  A    between atoms: C_33  and  O_34 
ROOT
HETATM    1  C   UNL     1      27.719  42.377  52.458  1.00  0.00     0.051 C 
HETATM    2  N   UNL     1      27.401  41.659  51.323  1.00  0.00    -0.228 NA
HETATM    3  C   UNL     1      26.278  41.884  50.742  1.00  0.00     0.170 C 
HETATM    4  N   UNL     1      25.290  43.015  51.111  1.00  0.00    -0.318 N 
HETATM    5  C   UNL     1      24.237  42.986  50.360  1.00  0.00     0.011 C 
HETATM    6  C   UNL     1      25.828  43.993  52.091  1.00  0.00     0.166 C 
HETATM    7  S   UNL     1      25.728  40.950  49.391  1.00  0.00    -0.086 SA
HETATM    8  C   UNL     1      24.141  41.821  49.398  1.00  0.00     0.135 C 
HETATM    9  C   UNL     1      26.963  43.407  52.896  1.00  0.00     0.069 C 
ENDROOT
BRANCH   5  10
HETATM   10  C   UNL     1      23.231  44.101  50.358  1.00  0.00     0.156 C 
BRANCH  10  11
HETATM   11  C   UNL     1      23.456  45.093  49.242  1.00  0.00     0.222 C 
HETATM   12  N   UNL     1      23.195  46.403  49.557  1.00  0.00    -0.361 N 
HETATM   13  H   UNL     1      22.862  46.648  50.487  1.00  0.00     0.162 HD
HETATM   14  O   UNL     1      23.846  44.716  48.142  1.00  0.00    -0.273 OA
BRANCH  12  15
HETATM   15  C   UNL     1      23.387  47.487  48.604  1.00  0.00     0.124 C 
BRANCH  15  16
HETATM   16  C   UNL     1      22.957  48.832  49.194  1.00  0.00     0.053 C 
BRANCH  16  17
HETATM   17  C   UNL     1      21.430  49.016  49.195  1.00  0.00     0.189 C 
HETATM   18  N   UNL     1      20.932  48.981  47.743  1.00  0.00    -0.071 N 
HETATM   19  H   UNL     1      21.724  48.789  47.116  1.00  0.00     0.279 HD
HETATM   20  C   UNL     1      19.909  47.911  47.479  1.00  0.00     0.270 C 
HETATM   21  C   UNL     1      20.421  50.370  47.388  1.00  0.00     0.235 C 
HETATM   22  C   UNL     1      20.992  51.262  48.468  1.00  0.00     0.030 C 
HETATM   23  C   UNL     1      20.955  50.377  49.699  1.00  0.00     0.035 C 
ENDBRANCH  16  17
ENDBRANCH  15  16
ENDBRANCH  12  15
ENDBRANCH  10  11
ENDBRANCH   5  10
BRANCH   6  24
HETATM   24  C   UNL     1      26.215  45.277  51.341  1.00  0.00    -0.024 A 
HETATM   25  C   UNL     1      25.891  46.574  51.807  1.00  0.00    -0.053 A 
HETATM   26  C   UNL     1      25.282  46.875  53.154  1.00  0.00     0.049 C 
HETATM   27  C   UNL     1      26.250  47.696  51.028  1.00  0.00     0.014 A 
HETATM   28  C   UNL     1      26.896  47.566  49.797  1.00  0.00    -0.061 A 
HETATM   29  C   UNL     1      27.302  48.779  49.009  1.00  0.00     0.048 C 
HETATM   30  C   UNL     1      27.244  46.294  49.354  1.00  0.00     0.007 A 
HETATM   31  C   UNL     1      26.916  45.171  50.114  1.00  0.00     0.011 A 
ENDBRANCH   6  24
BRANCH   9  32
HETATM   32  C   UNL     1      27.099  44.036  54.236  1.00  0.00     0.293 C 
HETATM   33  O   UNL     1      26.556  43.585  55.230  1.00  0.00    -0.259 OA
BRANCH  32  34
HETATM   34  O   UNL     1      28.050  44.995  54.216  1.00  0.00    -0.323 OA
HETATM   35  C   UNL     1      28.637  45.292  55.488  1.00  0.00     0.213 C 
ENDBRANCH  32  34
ENDBRANCH   9  32
BRANCH   1  36
HETATM   36  C   UNL     1      29.005  41.886  53.119  1.00  0.00     0.056 C 
HETATM   37  C   UNL     1      30.188  42.829  52.922  1.00  0.00     0.011 C 
ENDBRANCH   1  36
TORSDOF 9
ENDMDL
MODEL 2
REMARK VINA RESULT:      -7.5      3.216      9.224
REMARK  9 active torsions:
REMARK  status: ('A' for Active; 'I' for Inactive)
REMARK    1  A    between atoms: C_2  and  C_3 
REMARK    2  A    between atoms: C_7  and  C_8 
REMARK    3  A    between atoms: C_8  and  C_9 
REMARK       I    between atoms: C_9  and  N_10 
REMARK    4  A    between atoms: N_10  and  C_11 
REMARK    5  A    between atoms: C_11  and  C_12 
REMARK    6  A    between atoms: C_12  and  C_13 
REMARK    7  A    between atoms: C_21  and  C_22 
REMARK    8  A    between atoms: C_32  and  C_33 
REMARK    9  A    between atoms: C_33  and  O_34 
ROOT
HETATM    1  C   UNL     1      19.898  50.573  49.485  1.00  0.00     0.051 C 
HETATM    2  N   UNL     1      21.060  51.081  48.940  1.00  0.00    -0.228 NA
HETATM    3  C   UNL     1      22.071  50.301  48.800  1.00  0.00     0.170 C 
HETATM    4  N   UNL     1      22.066  48.774  49.050  1.00  0.00    -0.318 N 
HETATM    5  C   UNL     1      23.233  48.258  48.840  1.00  0.00     0.011 C 
HETATM    6  C   UNL     1      20.714  48.203  49.280  1.00  0.00     0.166 C 
HETATM    7  S   UNL     1      23.611  50.867  48.247  1.00  0.00    -0.086 SA
HETATM    8  C   UNL     1      24.345  49.236  48.527  1.00  0.00     0.135 C 
HETATM    9  C   UNL     1      19.736  49.256  49.743  1.00  0.00     0.069 C 
ENDROOT
BRANCH   5  10
HETATM   10  C   UNL     1      23.447  46.772  48.793  1.00  0.00     0.156 C 
BRANCH  10  11
HETATM   11  C   UNL     1      24.609  46.319  49.646  1.00  0.00     0.222 C 
HETATM   12  N   UNL     1      24.568  46.723  50.957  1.00  0.00    -0.361 N 
HETATM   13  H   UNL     1      23.799  47.297  51.291  1.00  0.00     0.162 HD
HETATM   14  O   UNL     1      25.507  45.637  49.164  1.00  0.00    -0.273 OA
BRANCH  12  15
HETATM   15  C   UNL     1      25.595  46.348  51.919  1.00  0.00     0.124 C 
BRANCH  15  16
HETATM   16  C   UNL     1      25.170  45.129  52.742  1.00  0.00     0.053 C 
BRANCH  16  17
HETATM   17  C   UNL     1      25.737  45.155  54.172  1.00  0.00     0.189 C 
HETATM   18  N   UNL     1      27.132  45.797  54.134  1.00  0.00    -0.071 N 
HETATM   19  H   UNL     1      27.337  46.108  53.175  1.00  0.00     0.279 HD
HETATM   20  C   UNL     1      27.265  47.009  55.014  1.00  0.00     0.270 C 
HETATM   21  C   UNL     1      28.153  44.721  54.472  1.00  0.00     0.235 C 
HETATM   22  C   UNL     1      27.395  43.423  54.303  1.00  0.00     0.030 C 
HETATM   23  C   UNL     1      25.999  43.778  54.776  1.00  0.00     0.035 C 
ENDBRANCH  16  17
ENDBRANCH  15  16
ENDBRANCH  12  15
ENDBRANCH  10  11
ENDBRANCH   5  10
BRANCH   6  24
HETATM   24  C   UNL     1      20.264  47.477  48.002  1.00  0.00    -0.024 A 
HETATM   25  C   UNL     1      20.194  46.066  47.897  1.00  0.00    -0.053 A 
HETATM   26  C   UNL     1      20.387  45.109  49.048  1.00  0.00     0.049 C 
HETATM   27  C   UNL     1      19.812  45.485  46.669  1.00  0.00     0.014 A 
HETATM   28  C   UNL     1      19.521  46.258  45.543  1.00  0.00    -0.061 A 
HETATM   29  C   UNL     1      19.077  45.614  44.261  1.00  0.00     0.048 C 
HETATM   30  C   UNL     1      19.558  47.645  45.654  1.00  0.00     0.007 A 
HETATM   31  C   UNL     1      19.916  48.243  46.863  1.00  0.00     0.011 A 
ENDBRANCH   6  24
BRANCH   9  32
HETATM   32  C   UNL     1      18.634  48.693  50.566  1.00  0.00     0.293 C 
HETATM   33  O   UNL     1      18.443  49.026  51.722  1.00  0.00    -0.259 OA
BRANCH  32  34
HETATM   34  O   UNL     1      17.791  47.969  49.797  1.00  0.00    -0.323 OA
HETATM   35  C   UNL     1      16.953  48.737  48.927  1.00  0.00     0.213 C 
ENDBRANCH  32  34
ENDBRANCH   9  32
BRANCH   1  36
HETATM   36  C   UNL     1      18.848  51.653  49.733  1.00  0.00     0.056 C 
HETATM   37  C   UNL     1      18.594  52.543  48.519  1.00  0.00     0.011 C 
ENDBRANCH   1  36
TORSDOF 9
ENDMDL
MODEL 3
REMARK VINA RESULT:      -7.0     18.832     21.314
REMARK  9 active torsions:
REMARK  status: ('A' for Active; 'I' for Inactive)
REMARK    1  A    between atoms: C_2  and  C_3 
REMARK    2  A    between atoms: C_7  and  C_8 
REMARK    3  A    between atoms: C_8  and  C_9 
REMARK       I    between atoms: C_9  and  N_10 
REMARK    4  A    between atoms: N_10  and  C_11 
REMARK    5  A    between atoms: C_11  and  C_12 
REMARK    6  A    between atoms: C_12  and  C_13 
REMARK    7  A    between atoms: C_21  and  C_22 
REMARK    8  A    between atoms: C_32  and  C_33 
REMARK    9  A    between atoms: C_33  and  O_34 
ROOT
HETATM    1  C   UNL     1      42.459  44.737  66.579  1.00  0.00     0.051 C 
HETATM    2  N   UNL     1      41.964  44.250  67.772  1.00  0.00    -0.228 NA
HETATM    3  C   UNL     1      40.693  44.124  67.910  1.00  0.00     0.170 C 
HETATM    4  N   UNL     1      39.647  44.328  66.789  1.00  0.00    -0.318 N 
HETATM    5  C   UNL     1      38.444  44.146  67.228  1.00  0.00     0.011 C 
HETATM    6  C   UNL     1      40.234  44.491  65.435  1.00  0.00     0.166 C 
HETATM    7  S   UNL     1      39.964  43.645  69.406  1.00  0.00    -0.086 SA
HETATM    8  C   UNL     1      38.310  43.903  68.716  1.00  0.00     0.135 C 
HETATM    9  C   UNL     1      41.671  44.949  65.503  1.00  0.00     0.069 C 
ENDROOT
BRANCH   5  10
HETATM   10  C   UNL     1      37.264  44.062  66.302  1.00  0.00     0.156 C 
BRANCH  10  11
HETATM   11  C   UNL     1      36.482  45.353  66.230  1.00  0.00     0.222 C 
HETATM   12  N   UNL     1      36.896  46.238  65.265  1.00  0.00    -0.361 N 
HETATM   13  H   UNL     1      37.686  46.009  64.668  1.00  0.00     0.162 HD
HETATM   14  O   UNL     1      35.547  45.559  66.996  1.00  0.00    -0.273 OA
BRANCH  12  15
HETATM   15  C   UNL     1      36.231  47.514  65.044  1.00  0.00     0.124 C 
BRANCH  15  16
HETATM   16  C   UNL     1      37.237  48.613  64.690  1.00  0.00     0.053 C 
BRANCH  16  17
HETATM   17  C   UNL     1      38.148  48.984  65.872  1.00  0.00     0.189 C 
HETATM   18  N   UNL     1      37.271  49.205  67.114  1.00  0.00    -0.071 N 
HETATM   19  H   UNL     1      36.291  49.001  66.879  1.00  0.00     0.279 HD
HETATM   20  C   UNL     1      37.627  48.316  68.273  1.00  0.00     0.270 C 
HETATM   21  C   UNL     1      37.334  50.682  67.477  1.00  0.00     0.235 C 
HETATM   22  C   UNL     1      37.898  51.344  66.238  1.00  0.00     0.030 C 
HETATM   23  C   UNL     1      38.880  50.314  65.716  1.00  0.00     0.035 C 
ENDBRANCH  16  17
ENDBRANCH  15  16
ENDBRANCH  12  15
ENDBRANCH  10  11
ENDBRANCH   5  10
BRANCH   6  24
HETATM   24  C   UNL     1      40.051  43.177  64.659  1.00  0.00    -0.024 A 
HETATM   25  C   UNL     1      39.280  43.077  63.476  1.00  0.00    -0.053 A 
HETATM   26  C   UNL     1      38.682  44.250  62.738  1.00  0.00     0.049 C 
HETATM   27  C   UNL     1      39.132  41.819  62.854  1.00  0.00     0.014 A 
HETATM   28  C   UNL     1      39.705  40.660  63.383  1.00  0.00    -0.061 A 
HETATM   29  C   UNL     1      39.565  39.341  62.678  1.00  0.00     0.048 C 
HETATM   30  C   UNL     1      40.490  40.763  64.527  1.00  0.00     0.007 A 
HETATM   31  C   UNL     1      40.666  41.999  65.150  1.00  0.00     0.011 A 
ENDBRANCH   6  24
BRANCH   9  32
HETATM   32  C   UNL     1      42.086  45.714  64.298  1.00  0.00     0.293 C 
HETATM   33  O   UNL     1      42.784  45.232  63.424  1.00  0.00    -0.259 OA
BRANCH  32  34
HETATM   34  O   UNL     1      41.413  46.884  64.223  1.00  0.00    -0.323 OA
HETATM   35  C   UNL     1      41.536  47.728  65.372  1.00  0.00     0.213 C 
ENDBRANCH  32  34
ENDBRANCH   9  32
BRANCH   1  36
HETATM   36  C   UNL     1      43.966  44.978  66.627  1.00  0.00     0.056 C 
HETATM   37  C   UNL     1      44.357  46.225  67.416  1.00  0.00     0.011 C 
ENDBRANCH   1  36
TORSDOF 9
ENDMDL
MODEL 4
REMARK VINA RESULT:      -6.8      6.835     10.017
REMARK  9 active torsions:
REMARK  status: ('A' for Active; 'I' for Inactive)
REMARK    1  A    between atoms: C_2  and  C_3 
REMARK    2  A    between atoms: C_7  and  C_8 
REMARK    3  A    between atoms: C_8  and  C_9 
REMARK       I    between atoms: C_9  and  N_10 
REMARK    4  A    between atoms: N_10  and  C_11 
REMARK    5  A    between atoms: C_11  and  C_12 
REMARK    6  A    between atoms: C_12  and  C_13 
REMARK    7  A    between atoms: C_21  and  C_22 
REMARK    8  A    between atoms: C_32  and  C_33 
REMARK    9  A    between atoms: C_33  and  O_34 
ROOT
HETATM    1  C   UNL     1      21.018  49.335  49.068  1.00  0.00     0.051 C 
HETATM    2  N   UNL     1      21.630  48.386  48.274  1.00  0.00    -0.228 NA
HETATM    3  C   UNL     1      20.915  47.448  47.768  1.00  0.00     0.170 C 
HETATM    4  N   UNL     1      19.372  47.361  47.837  1.00  0.00    -0.318 N 
HETATM    5  C   UNL     1      18.932  46.296  47.248  1.00  0.00     0.011 C 
HETATM    6  C   UNL     1      18.721  48.581  48.376  1.00  0.00     0.166 C 
HETATM    7  S   UNL     1      21.604  46.139  46.866  1.00  0.00    -0.086 SA
HETATM    8  C   UNL     1      19.986  45.334  46.743  1.00  0.00     0.135 C 
HETATM    9  C   UNL     1      19.676  49.399  49.212  1.00  0.00     0.069 C 
ENDROOT
BRANCH   5  10
HETATM   10  C   UNL     1      17.470  46.085  46.977  1.00  0.00     0.156 C 
BRANCH  10  11
HETATM   11  C   UNL     1      17.149  46.027  45.502  1.00  0.00     0.222 C 
HETATM   12  N   UNL     1      16.456  44.914  45.094  1.00  0.00    -0.361 N 
HETATM   13  H   UNL     1      16.204  44.194  45.766  1.00  0.00     0.162 HD
HETATM   14  O   UNL     1      17.499  46.931  44.752  1.00  0.00    -0.273 OA
BRANCH  12  15
HETATM   15  C   UNL     1      16.043  44.718  43.711  1.00  0.00     0.124 C 
BRANCH  15  16
HETATM   16  C   UNL     1      14.520  44.618  43.593  1.00  0.00     0.053 C 
BRANCH  16  17
HETATM   17  C   UNL     1      13.850  45.991  43.407  1.00  0.00     0.189 C 
HETATM   18  N   UNL     1      13.048  46.320  44.675  1.00  0.00    -0.071 N 
HETATM   19  H   UNL     1      13.190  45.575  45.370  1.00  0.00     0.279 HD
HETATM   20  C   UNL     1      13.461  47.605  45.336  1.00  0.00     0.270 C 
HETATM   21  C   UNL     1      11.570  46.304  44.313  1.00  0.00     0.235 C 
HETATM   22  C   UNL     1      11.522  45.586  42.982  1.00  0.00     0.030 C 
HETATM   23  C   UNL     1      12.799  46.040  42.301  1.00  0.00     0.035 C 
ENDBRANCH  16  17
ENDBRANCH  15  16
ENDBRANCH  12  15
ENDBRANCH  10  11
ENDBRANCH   5  10
BRANCH   6  24
HETATM   24  C   UNL     1      18.110  49.369  47.207  1.00  0.00    -0.024 A 
HETATM   25  C   UNL     1      16.718  49.580  47.058  1.00  0.00    -0.053 A 
HETATM   26  C   UNL     1      15.679  49.212  48.088  1.00  0.00     0.049 C 
HETATM   27  C   UNL     1      16.244  50.280  45.927  1.00  0.00     0.014 A 
HETATM   28  C   UNL     1      17.105  50.753  44.935  1.00  0.00    -0.061 A 
HETATM   29  C   UNL     1      16.576  51.529  43.763  1.00  0.00     0.048 C 
HETATM   30  C   UNL     1      18.475  50.575  45.096  1.00  0.00     0.007 A 
HETATM   31  C   UNL     1      18.970  49.902  46.214  1.00  0.00     0.011 A 
ENDBRANCH   6  24
BRANCH   9  32
HETATM   32  C   UNL     1      18.982  50.211  50.246  1.00  0.00     0.293 C 
HETATM   33  O   UNL     1      18.647  49.752  51.324  1.00  0.00    -0.259 OA
BRANCH  32  34
HETATM   34  O   UNL     1      18.991  51.519  49.907  1.00  0.00    -0.323 OA
HETATM   35  C   UNL     1      17.700  52.131  49.819  1.00  0.00     0.213 C 
ENDBRANCH  32  34
ENDBRANCH   9  32
BRANCH   1  36
HETATM   36  C   UNL     1      22.019  50.284  49.722  1.00  0.00     0.056 C 
HETATM   37  C   UNL     1      23.019  50.885  48.738  1.00  0.00     0.011 C 
ENDBRANCH   1  36
TORSDOF 9
ENDMDL
MODEL 5
REMARK VINA RESULT:      -6.8      8.148     11.725
REMARK  9 active torsions:
REMARK  status: ('A' for Active; 'I' for Inactive)
REMARK    1  A    between atoms: C_2  and  C_3 
REMARK    2  A    between atoms: C_7  and  C_8 
REMARK    3  A    between atoms: C_8  and  C_9 
REMARK       I    between atoms: C_9  and  N_10 
REMARK    4  A    between atoms: N_10  and  C_11 
REMARK    5  A    between atoms: C_11  and  C_12 
REMARK    6  A    between atoms: C_12  and  C_13 
REMARK    7  A    between atoms: C_21  and  C_22 
REMARK    8  A    between atoms: C_32  and  C_33 
REMARK    9  A    between atoms: C_33  and  O_34 
ROOT
HETATM    1  C   UNL     1      16.556  48.346  46.261  1.00  0.00     0.051 C 
HETATM    2  N   UNL     1      16.190  49.506  45.608  1.00  0.00    -0.228 NA
HETATM    3  C   UNL     1      16.032  50.580  46.295  1.00  0.00     0.170 C 
HETATM    4  N   UNL     1      16.367  50.739  47.797  1.00  0.00    -0.318 N 
HETATM    5  C   UNL     1      16.091  51.931  48.218  1.00  0.00     0.011 C 
HETATM    6  C   UNL     1      17.100  49.587  48.379  1.00  0.00     0.166 C 
HETATM    7  S   UNL     1      15.451  52.053  45.594  1.00  0.00    -0.086 SA
HETATM    8  C   UNL     1      15.408  52.845  47.223  1.00  0.00     0.135 C 
HETATM    9  C   UNL     1      16.896  48.330  47.569  1.00  0.00     0.069 C 
ENDROOT
BRANCH   5  10
HETATM   10  C   UNL     1      16.526  52.417  49.571  1.00  0.00     0.156 C 
BRANCH  10  11
HETATM   11  C   UNL     1      15.390  53.000  50.378  1.00  0.00     0.222 C 
HETATM   12  N   UNL     1      15.655  54.205  50.981  1.00  0.00    -0.361 N 
HETATM   13  H   UNL     1      16.570  54.638  50.877  1.00  0.00     0.162 HD
HETATM   14  O   UNL     1      14.320  52.409  50.465  1.00  0.00    -0.273 OA
BRANCH  12  15
HETATM   15  C   UNL     1      14.660  54.915  51.771  1.00  0.00     0.124 C 
BRANCH  15  16
HETATM   16  C   UNL     1      15.319  55.828  52.809  1.00  0.00     0.053 C 
BRANCH  16  17
HETATM   17  C   UNL     1      14.454  57.053  53.152  1.00  0.00     0.189 C 
HETATM   18  N   UNL     1      13.259  57.095  52.187  1.00  0.00    -0.071 N 
HETATM   19  H   UNL     1      13.287  56.268  51.576  1.00  0.00     0.279 HD
HETATM   20  C   UNL     1      11.923  57.073  52.875  1.00  0.00     0.270 C 
HETATM   21  C   UNL     1      13.427  58.310  51.285  1.00  0.00     0.235 C 
HETATM   22  C   UNL     1      14.876  58.706  51.463  1.00  0.00     0.030 C 
HETATM   23  C   UNL     1      15.140  58.398  52.923  1.00  0.00     0.035 C 
ENDBRANCH  16  17
ENDBRANCH  15  16
ENDBRANCH  12  15
ENDBRANCH  10  11
ENDBRANCH   5  10
BRANCH   6  24
HETATM   24  C   UNL     1      18.579  49.975  48.536  1.00  0.00    -0.024 A 
HETATM   25  C   UNL     1      19.279  49.883  49.764  1.00  0.00    -0.053 A 
HETATM   26  C   UNL     1      18.730  49.251  51.019  1.00  0.00     0.049 C 
HETATM   27  C   UNL     1      20.625  50.302  49.823  1.00  0.00     0.014 A 
HETATM   28  C   UNL     1      21.286  50.829  48.711  1.00  0.00    -0.061 A 
HETATM   29  C   UNL     1      22.731  51.230  48.793  1.00  0.00     0.048 C 
HETATM   30  C   UNL     1      20.610  50.889  47.497  1.00  0.00     0.007 A 
HETATM   31  C   UNL     1      19.284  50.464  47.408  1.00  0.00     0.011 A 
ENDBRANCH   6  24
BRANCH   9  32
HETATM   32  C   UNL     1      17.035  47.094  48.383  1.00  0.00     0.293 C 
HETATM   33  O   UNL     1      16.240  46.791  49.255  1.00  0.00    -0.259 OA
BRANCH  32  34
HETATM   34  O   UNL     1      17.997  46.295  47.872  1.00  0.00    -0.323 OA
HETATM   35  C   UNL     1      19.273  46.398  48.512  1.00  0.00     0.213 C 
ENDBRANCH  32  34
ENDBRANCH   9  32
BRANCH   1  36
HETATM   36  C   UNL     1      16.547  47.129  45.339  1.00  0.00     0.056 C 
HETATM   37  C   UNL     1      15.664  47.307  44.107  1.00  0.00     0.011 C 
ENDBRANCH   1  36
TORSDOF 9
ENDMDL
MODEL 6
REMARK VINA RESULT:      -6.8      4.388     11.002
REMARK  9 active torsions:
REMARK  status: ('A' for Active; 'I' for Inactive)
REMARK    1  A    between atoms: C_2  and  C_3 
REMARK    2  A    between atoms: C_7  and  C_8 
REMARK    3  A    between atoms: C_8  and  C_9 
REMARK       I    between atoms: C_9  and  N_10 
REMARK    4  A    between atoms: N_10  and  C_11 
REMARK    5  A    between atoms: C_11  and  C_12 
REMARK    6  A    between atoms: C_12  and  C_13 
REMARK    7  A    between atoms: C_21  and  C_22 
REMARK    8  A    between atoms: C_32  and  C_33 
REMARK    9  A    between atoms: C_33  and  O_34 
ROOT
HETATM    1  C   UNL     1      16.868  48.823  45.250  1.00  0.00     0.051 C 
HETATM    2  N   UNL     1      16.691  47.697  46.028  1.00  0.00    -0.228 NA
HETATM    3  C   UNL     1      17.427  47.543  47.069  1.00  0.00     0.170 C 
HETATM    4  N   UNL     1      18.411  48.593  47.635  1.00  0.00    -0.318 N 
HETATM    5  C   UNL     1      19.022  48.150  48.685  1.00  0.00     0.011 C 
HETATM    6  C   UNL     1      18.308  49.927  46.991  1.00  0.00     0.166 C 
HETATM    7  S   UNL     1      17.373  46.108  48.039  1.00  0.00    -0.086 SA
HETATM    8  C   UNL     1      18.749  46.708  49.053  1.00  0.00     0.135 C 
HETATM    9  C   UNL     1      17.681  49.837  45.620  1.00  0.00     0.069 C 
ENDROOT
BRANCH   5  10
HETATM   10  C   UNL     1      19.859  49.045  49.554  1.00  0.00     0.156 C 
BRANCH  10  11
HETATM   11  C   UNL     1      21.340  48.898  49.294  1.00  0.00     0.222 C 
HETATM   12  N   UNL     1      21.756  47.634  48.958  1.00  0.00    -0.361 N 
HETATM   13  H   UNL     1      21.084  46.871  48.909  1.00  0.00     0.162 HD
HETATM   14  O   UNL     1      22.088  49.865  49.386  1.00  0.00    -0.273 OA
BRANCH  12  15
HETATM   15  C   UNL     1      23.145  47.328  48.648  1.00  0.00     0.124 C 
BRANCH  15  16
HETATM   16  C   UNL     1      23.681  46.203  49.537  1.00  0.00     0.053 C 
BRANCH  16  17
HETATM   17  C   UNL     1      25.210  46.253  49.696  1.00  0.00     0.189 C 
HETATM   18  N   UNL     1      25.661  45.017  50.489  1.00  0.00    -0.071 N 
HETATM   19  H   UNL     1      24.846  44.419  50.679  1.00  0.00     0.279 HD
HETATM   20  C   UNL     1      26.657  44.160  49.759  1.00  0.00     0.270 C 
HETATM   21  C   UNL     1      26.182  45.488  51.839  1.00  0.00     0.235 C 
HETATM   22  C   UNL     1      25.660  46.903  51.964  1.00  0.00     0.030 C 
HETATM   23  C   UNL     1      25.722  47.418  50.539  1.00  0.00     0.035 C 
ENDBRANCH  16  17
ENDBRANCH  15  16
ENDBRANCH  12  15
ENDBRANCH  10  11
ENDBRANCH   5  10
BRANCH   6  24
HETATM   24  C   UNL     1      17.557  50.874  47.940  1.00  0.00    -0.024 A 
HETATM   25  C   UNL     1      18.189  51.930  48.641  1.00  0.00    -0.053 A 
HETATM   26  C   UNL     1      19.618  52.366  48.430  1.00  0.00     0.049 C 
HETATM   27  C   UNL     1      17.427  52.723  49.526  1.00  0.00     0.014 A 
HETATM   28  C   UNL     1      16.070  52.484  49.752  1.00  0.00    -0.061 A 
HETATM   29  C   UNL     1      15.275  53.369  50.669  1.00  0.00     0.048 C 
HETATM   30  C   UNL     1      15.440  51.467  49.040  1.00  0.00     0.007 A 
HETATM   31  C   UNL     1      16.168  50.682  48.146  1.00  0.00     0.011 A 
ENDBRANCH   6  24
BRANCH   9  32
HETATM   32  C   UNL     1      18.117  50.934  44.717  1.00  0.00     0.293 C 
HETATM   33  O   UNL     1      18.900  50.756  43.800  1.00  0.00    -0.259 OA
BRANCH  32  34
HETATM   34  O   UNL     1      17.372  52.042  44.923  1.00  0.00    -0.323 OA
HETATM   35  C   UNL     1      17.008  52.757  43.737  1.00  0.00     0.213 C 
ENDBRANCH  32  34
ENDBRANCH   9  32
BRANCH   1  36
HETATM   36  C   UNL     1      16.038  48.785  43.969  1.00  0.00     0.056 C 
HETATM   37  C   UNL     1      14.786  49.655  44.031  1.00  0.00     0.011 C 
ENDBRANCH   1  36
TORSDOF 9
ENDMDL
MODEL 7
REMARK VINA RESULT:      -6.7      7.433     10.657
REMARK  9 active torsions:
REMARK  status: ('A' for Active; 'I' for Inactive)
REMARK    1  A    between atoms: C_2  and  C_3 
REMARK    2  A    between atoms: C_7  and  C_8 
REMARK    3  A    between atoms: C_8  and  C_9 
REMARK       I    between atoms: C_9  and  N_10 
REMARK    4  A    between atoms: N_10  and  C_11 
REMARK    5  A    between atoms: C_11  and  C_12 
REMARK    6  A    between atoms: C_12  and  C_13 
REMARK    7  A    between atoms: C_21  and  C_22 
REMARK    8  A    between atoms: C_32  and  C_33 
REMARK    9  A    between atoms: C_33  and  O_34 
ROOT
HETATM    1  C   UNL     1      18.171  47.741  45.712  1.00  0.00     0.051 C 
HETATM    2  N   UNL     1      18.039  48.737  44.765  1.00  0.00    -0.228 NA
HETATM    3  C   UNL     1      17.755  49.927  45.154  1.00  0.00     0.170 C 
HETATM    4  N   UNL     1      17.693  50.397  46.627  1.00  0.00    -0.318 N 
HETATM    5  C   UNL     1      17.369  51.647  46.710  1.00  0.00     0.011 C 
HETATM    6  C   UNL     1      18.198  49.399  47.603  1.00  0.00     0.166 C 
HETATM    7  S   UNL     1      17.442  51.218  44.042  1.00  0.00    -0.086 SA
HETATM    8  C   UNL     1      17.010  52.328  45.407  1.00  0.00     0.135 C 
HETATM    9  C   UNL     1      18.157  47.999  47.038  1.00  0.00     0.069 C 
ENDROOT
BRANCH   5  10
HETATM   10  C   UNL     1      17.457  52.406  48.003  1.00  0.00     0.156 C 
BRANCH  10  11
HETATM   11  C   UNL     1      16.177  52.354  48.803  1.00  0.00     0.222 C 
HETATM   12  N   UNL     1      15.505  53.545  48.918  1.00  0.00    -0.361 N 
HETATM   13  H   UNL     1      15.881  54.387  48.489  1.00  0.00     0.162 HD
HETATM   14  O   UNL     1      15.796  51.300  49.300  1.00  0.00    -0.273 OA
BRANCH  12  15
HETATM   15  C   UNL     1      14.241  53.660  49.631  1.00  0.00     0.124 C 
BRANCH  15  16
HETATM   16  C   UNL     1      14.463  54.000  51.108  1.00  0.00     0.053 C 
BRANCH  16  17
HETATM   17  C   UNL     1      13.756  55.300  51.528  1.00  0.00     0.189 C 
HETATM   18  N   UNL     1      14.509  56.488  50.910  1.00  0.00    -0.071 N 
HETATM   19  H   UNL     1      15.273  56.135  50.318  1.00  0.00     0.279 HD
HETATM   20  C   UNL     1      13.653  57.356  50.031  1.00  0.00     0.270 C 
HETATM   21  C   UNL     1      15.158  57.271  52.041  1.00  0.00     0.235 C 
HETATM   22  C   UNL     1      15.116  56.324  53.221  1.00  0.00     0.030 C 
HETATM   23  C   UNL     1      13.803  55.592  53.025  1.00  0.00     0.035 C 
ENDBRANCH  16  17
ENDBRANCH  15  16
ENDBRANCH  12  15
ENDBRANCH  10  11
ENDBRANCH   5  10
BRANCH   6  24
HETATM   24  C   UNL     1      19.600  49.827  48.063  1.00  0.00    -0.024 A 
HETATM   25  C   UNL     1      19.910  50.151  49.406  1.00  0.00    -0.053 A 
HETATM   26  C   UNL     1      18.971  49.964  50.572  1.00  0.00     0.049 C 
HETATM   27  C   UNL     1      21.216  50.577  49.729  1.00  0.00     0.014 A 
HETATM   28  C   UNL     1      22.212  50.712  48.759  1.00  0.00    -0.061 A 
HETATM   29  C   UNL     1      23.604  51.128  49.137  1.00  0.00     0.048 C 
HETATM   30  C   UNL     1      21.918  50.363  47.444  1.00  0.00     0.007 A 
HETATM   31  C   UNL     1      20.639  49.922  47.103  1.00  0.00     0.011 A 
ENDBRANCH   6  24
BRANCH   9  32
HETATM   32  C   UNL     1      18.025  46.959  48.092  1.00  0.00     0.293 C 
HETATM   33  O   UNL     1      16.970  46.399  48.332  1.00  0.00    -0.259 OA
BRANCH  32  34
HETATM   34  O   UNL     1      19.241  46.595  48.555  1.00  0.00    -0.323 OA
HETATM   35  C   UNL     1      19.573  45.215  48.365  1.00  0.00     0.213 C 
ENDBRANCH  32  34
ENDBRANCH   9  32
BRANCH   1  36
HETATM   36  C   UNL     1      18.350  46.360  45.086  1.00  0.00     0.056 C 
HETATM   37  C   UNL     1      19.796  46.043  44.716  1.00  0.00     0.011 C 
ENDBRANCH   1  36
TORSDOF 9
ENDMDL
MODEL 8
REMARK VINA RESULT:      -6.6      6.895      9.696
REMARK  9 active torsions:
REMARK  status: ('A' for Active; 'I' for Inactive)
REMARK    1  A    between atoms: C_2  and  C_3 
REMARK    2  A    between atoms: C_7  and  C_8 
REMARK    3  A    between atoms: C_8  and  C_9 
REMARK       I    between atoms: C_9  and  N_10 
REMARK    4  A    between atoms: N_10  and  C_11 
REMARK    5  A    between atoms: C_11  and  C_12 
REMARK    6  A    between atoms: C_12  and  C_13 
REMARK    7  A    between atoms: C_21  and  C_22 
REMARK    8  A    between atoms: C_32  and  C_33 
REMARK    9  A    between atoms: C_33  and  O_34 
ROOT
HETATM    1  C   UNL     1      21.020  49.248  48.928  1.00  0.00     0.051 C 
HETATM    2  N   UNL     1      21.560  48.356  48.023  1.00  0.00    -0.228 NA
HETATM    3  C   UNL     1      20.780  47.523  47.435  1.00  0.00     0.170 C 
HETATM    4  N   UNL     1      19.236  47.521  47.528  1.00  0.00    -0.318 N 
HETATM    5  C   UNL     1      18.722  46.556  46.838  1.00  0.00     0.011 C 
HETATM    6  C   UNL     1      18.670  48.712  48.211  1.00  0.00     0.166 C 
HETATM    7  S   UNL     1      21.372  46.281  46.382  1.00  0.00    -0.086 SA
HETATM    8  C   UNL     1      19.706  45.593  46.209  1.00  0.00     0.135 C 
HETATM    9  C   UNL     1      19.687  49.375  49.108  1.00  0.00     0.069 C 
ENDROOT
BRANCH   5  10
HETATM   10  C   UNL     1      17.246  46.463  46.577  1.00  0.00     0.156 C 
BRANCH  10  11
HETATM   11  C   UNL     1      16.899  46.574  45.111  1.00  0.00     0.222 C 
HETATM   12  N   UNL     1      17.441  47.654  44.460  1.00  0.00    -0.361 N 
HETATM   13  H   UNL     1      18.021  48.319  44.966  1.00  0.00     0.162 HD
HETATM   14  O   UNL     1      16.182  45.737  44.575  1.00  0.00    -0.273 OA
BRANCH  12  15
HETATM   15  C   UNL     1      17.229  47.893  43.039  1.00  0.00     0.124 C 
BRANCH  15  16
HETATM   16  C   UNL     1      18.478  48.482  42.379  1.00  0.00     0.053 C 
BRANCH  16  17
HETATM   17  C   UNL     1      18.184  49.786  41.618  1.00  0.00     0.189 C 
HETATM   18  N   UNL     1      18.132  49.474  40.114  1.00  0.00    -0.071 N 
HETATM   19  H   UNL     1      18.251  48.462  39.973  1.00  0.00     0.279 HD
HETATM   20  C   UNL     1      16.830  49.847  39.463  1.00  0.00     0.270 C 
HETATM   21  C   UNL     1      19.325  50.149  39.453  1.00  0.00     0.235 C 
HETATM   22  C   UNL     1      20.246  50.488  40.605  1.00  0.00     0.030 C 
HETATM   23  C   UNL     1      19.282  50.842  41.721  1.00  0.00     0.035 C 
ENDBRANCH  16  17
ENDBRANCH  15  16
ENDBRANCH  12  15
ENDBRANCH  10  11
ENDBRANCH   5  10
BRANCH   6  24
HETATM   24  C   UNL     1      18.091  49.658  47.147  1.00  0.00    -0.024 A 
HETATM   25  C   UNL     1      16.713  49.973  47.057  1.00  0.00    -0.053 A 
HETATM   26  C   UNL     1      15.672  49.565  48.070  1.00  0.00     0.049 C 
HETATM   27  C   UNL     1      16.265  50.818  46.019  1.00  0.00     0.014 A 
HETATM   28  C   UNL     1      17.137  51.338  45.060  1.00  0.00    -0.061 A 
HETATM   29  C   UNL     1      16.639  52.268  43.990  1.00  0.00     0.048 C 
HETATM   30  C   UNL     1      18.496  51.056  45.166  1.00  0.00     0.007 A 
HETATM   31  C   UNL     1      18.965  50.238  46.194  1.00  0.00     0.011 A 
ENDBRANCH   6  24
BRANCH   9  32
HETATM   32  C   UNL     1      19.061  50.109  50.239  1.00  0.00     0.293 C 
HETATM   33  O   UNL     1      18.693  49.553  51.258  1.00  0.00    -0.259 OA
BRANCH  32  34
HETATM   34  O   UNL     1      19.171  51.444  50.058  1.00  0.00    -0.323 OA
HETATM   35  C   UNL     1      17.931  52.135  49.873  1.00  0.00     0.213 C 
ENDBRANCH  32  34
ENDBRANCH   9  32
BRANCH   1  36
HETATM   36  C   UNL     1      22.087  50.058  49.659  1.00  0.00     0.056 C 
HETATM   37  C   UNL     1      22.796  51.073  48.766  1.00  0.00     0.011 C 
ENDBRANCH   1  36
TORSDOF 9
ENDMDL
MODEL 9
REMARK VINA RESULT:      -6.5     18.843     21.852
REMARK  9 active torsions:
REMARK  status: ('A' for Active; 'I' for Inactive)
REMARK    1  A    between atoms: C_2  and  C_3 
REMARK    2  A    between atoms: C_7  and  C_8 
REMARK    3  A    between atoms: C_8  and  C_9 
REMARK       I    between atoms: C_9  and  N_10 
REMARK    4  A    between atoms: N_10  and  C_11 
REMARK    5  A    between atoms: C_11  and  C_12 
REMARK    6  A    between atoms: C_12  and  C_13 
REMARK    7  A    between atoms: C_21  and  C_22 
REMARK    8  A    between atoms: C_32  and  C_33 
REMARK    9  A    between atoms: C_33  and  O_34 
ROOT
HETATM    1  C   UNL     1      36.149  44.321  66.376  1.00  0.00     0.051 C 
HETATM    2  N   UNL     1      36.270  44.244  67.749  1.00  0.00    -0.228 NA
HETATM    3  C   UNL     1      37.401  44.525  68.288  1.00  0.00     0.170 C 
HETATM    4  N   UNL     1      38.629  45.100  67.544  1.00  0.00    -0.318 N 
HETATM    5  C   UNL     1      39.630  45.269  68.346  1.00  0.00     0.011 C 
HETATM    6  C   UNL     1      38.350  45.515  66.146  1.00  0.00     0.166 C 
HETATM    7  S   UNL     1      37.693  44.337  69.985  1.00  0.00    -0.086 SA
HETATM    8  C   UNL     1      39.437  44.770  69.762  1.00  0.00     0.135 C 
HETATM    9  C   UNL     1      37.130  44.819  65.592  1.00  0.00     0.069 C 
ENDROOT
BRANCH   5  10
HETATM   10  C   UNL     1      40.864  46.018  67.931  1.00  0.00     0.156 C 
BRANCH  10  11
HETATM   11  C   UNL     1      41.811  45.179  67.106  1.00  0.00     0.222 C 
HETATM   12  N   UNL     1      41.427  43.875  66.914  1.00  0.00    -0.361 N 
HETATM   13  H   UNL     1      40.562  43.531  67.324  1.00  0.00     0.162 HD
HETATM   14  O   UNL     1      42.843  45.665  66.656  1.00  0.00    -0.273 OA
BRANCH  12  15
HETATM   15  C   UNL     1      42.213  42.941  66.120  1.00  0.00     0.124 C 
BRANCH  15  16
HETATM   16  C   UNL     1      41.354  42.253  65.055  1.00  0.00     0.053 C 
BRANCH  16  17
HETATM   17  C   UNL     1      40.715  40.950  65.564  1.00  0.00     0.189 C 
HETATM   18  N   UNL     1      41.619  39.773  65.165  1.00  0.00    -0.071 N 
HETATM   19  H   UNL     1      42.463  40.135  64.702  1.00  0.00     0.279 HD
HETATM   20  C   UNL     1      42.091  38.950  66.331  1.00  0.00     0.270 C 
HETATM   21  C   UNL     1      40.876  38.940  64.131  1.00  0.00     0.235 C 
HETATM   22  C   UNL     1      39.759  39.845  63.658  1.00  0.00     0.030 C 
HETATM   23  C   UNL     1      39.377  40.603  64.915  1.00  0.00     0.035 C 
ENDBRANCH  16  17
ENDBRANCH  15  16
ENDBRANCH  12  15
ENDBRANCH  10  11
ENDBRANCH   5  10
BRANCH   6  24
HETATM   24  C   UNL     1      38.249  47.048  66.099  1.00  0.00    -0.024 A 
HETATM   25  C   UNL     1      39.190  47.866  65.428  1.00  0.00    -0.053 A 
HETATM   26  C   UNL     1      40.303  47.351  64.548  1.00  0.00     0.049 C 
HETATM   27  C   UNL     1      39.041  49.269  65.475  1.00  0.00     0.014 A 
HETATM   28  C   UNL     1      38.003  49.879  66.183  1.00  0.00    -0.061 A 
HETATM   29  C   UNL     1      37.845  51.373  66.183  1.00  0.00     0.048 C 
HETATM   30  C   UNL     1      37.060  49.076  66.816  1.00  0.00     0.007 A 
HETATM   31  C   UNL     1      37.176  47.686  66.769  1.00  0.00     0.011 A 
ENDBRANCH   6  24
BRANCH   9  32
HETATM   32  C   UNL     1      37.171  44.682  64.112  1.00  0.00     0.293 C 
HETATM   33  O   UNL     1      36.706  45.521  63.363  1.00  0.00    -0.259 OA
BRANCH  32  34
HETATM   34  O   UNL     1      37.966  43.649  63.754  1.00  0.00    -0.323 OA
HETATM   35  C   UNL     1      38.942  43.955  62.752  1.00  0.00     0.213 C 
ENDBRANCH  32  34
ENDBRANCH   9  32
BRANCH   1  36
HETATM   36  C   UNL     1      34.801  43.807  65.878  1.00  0.00     0.056 C 
HETATM   37  C   UNL     1      34.774  42.298  65.649  1.00  0.00     0.011 C 
ENDBRANCH   1  36
TORSDOF 9
ENDMDL
MODEL 10
REMARK VINA RESULT:      -6.3     18.892     21.406
REMARK  9 active torsions:
REMARK  status: ('A' for Active; 'I' for Inactive)
REMARK    1  A    between atoms: C_2  and  C_3 
REMARK    2  A    between atoms: C_7  and  C_8 
REMARK    3  A    between atoms: C_8  and  C_9 
REMARK       I    between atoms: C_9  and  N_10 
REMARK    4  A    between atoms: N_10  and  C_11 
REMARK    5  A    between atoms: C_11  and  C_12 
REMARK    6  A    between atoms: C_12  and  C_13 
REMARK    7  A    between atoms: C_21  and  C_22 
REMARK    8  A    between atoms: C_32  and  C_33 
REMARK    9  A    between atoms: C_33  and  O_34 
ROOT
HETATM    1  C   UNL     1      41.029  40.391  65.766  1.00  0.00     0.051 C 
HETATM    2  N   UNL     1      42.110  41.110  66.237  1.00  0.00    -0.228 NA
HETATM    3  C   UNL     1      42.308  42.296  65.786  1.00  0.00     0.170 C 
HETATM    4  N   UNL     1      41.346  43.073  64.857  1.00  0.00    -0.318 N 
HETATM    5  C   UNL     1      41.818  44.240  64.558  1.00  0.00     0.011 C 
HETATM    6  C   UNL     1      40.027  42.418  64.667  1.00  0.00     0.166 C 
HETATM    7  S   UNL     1      43.702  43.231  66.214  1.00  0.00    -0.086 SA
HETATM    8  C   UNL     1      43.215  44.538  65.059  1.00  0.00     0.135 C 
HETATM    9  C   UNL     1      40.093  40.938  64.961  1.00  0.00     0.069 C 
ENDROOT
BRANCH   5  10
HETATM   10  C   UNL     1      40.988  45.278  63.859  1.00  0.00     0.156 C 
BRANCH  10  11
HETATM   11  C   UNL     1      40.377  46.280  64.810  1.00  0.00     0.222 C 
HETATM   12  N   UNL     1      39.216  46.869  64.378  1.00  0.00    -0.361 N 
HETATM   13  H   UNL     1      38.830  46.631  63.468  1.00  0.00     0.162 HD
HETATM   14  O   UNL     1      40.912  46.523  65.886  1.00  0.00    -0.273 OA
BRANCH  12  15
HETATM   15  C   UNL     1      38.485  47.835  65.186  1.00  0.00     0.124 C 
BRANCH  15  16
HETATM   16  C   UNL     1      38.893  49.271  64.845  1.00  0.00     0.053 C 
BRANCH  16  17
HETATM   17  C   UNL     1      39.428  50.038  66.066  1.00  0.00     0.189 C 
HETATM   18  N   UNL     1      39.168  49.198  67.326  1.00  0.00    -0.071 N 
HETATM   19  H   UNL     1      38.749  48.299  67.054  1.00  0.00     0.279 HD
HETATM   20  C   UNL     1      40.412  48.871  68.103  1.00  0.00     0.270 C 
HETATM   21  C   UNL     1      38.132  49.926  68.170  1.00  0.00     0.235 C 
HETATM   22  C   UNL     1      37.524  50.937  67.221  1.00  0.00     0.030 C 
HETATM   23  C   UNL     1      38.702  51.349  66.360  1.00  0.00     0.035 C 
ENDBRANCH  16  17
ENDBRANCH  15  16
ENDBRANCH  12  15
ENDBRANCH  10  11
ENDBRANCH   5  10
BRANCH   6  24
HETATM   24  C   UNL     1      38.983  43.160  65.516  1.00  0.00    -0.024 A 
HETATM   25  C   UNL     1      37.781  43.684  64.982  1.00  0.00    -0.053 A 
HETATM   26  C   UNL     1      37.292  43.448  63.574  1.00  0.00     0.049 C 
HETATM   27  C   UNL     1      36.900  44.390  65.830  1.00  0.00     0.014 A 
HETATM   28  C   UNL     1      37.188  44.609  67.179  1.00  0.00    -0.061 A 
HETATM   29  C   UNL     1      36.214  45.329  68.066  1.00  0.00     0.048 C 
HETATM   30  C   UNL     1      38.353  44.066  67.712  1.00  0.00     0.007 A 
HETATM   31  C   UNL     1      39.231  43.349  66.898  1.00  0.00     0.011 A 
ENDBRANCH   6  24
BRANCH   9  32
HETATM   32  C   UNL     1      39.071  40.159  64.214  1.00  0.00     0.293 C 
HETATM   33  O   UNL     1      38.107  39.651  64.758  1.00  0.00    -0.259 OA
BRANCH  32  34
HETATM   34  O   UNL     1      39.251  40.296  62.882  1.00  0.00    -0.323 OA
HETATM   35  C   UNL     1      39.599  39.091  62.191  1.00  0.00     0.213 C 
ENDBRANCH  32  34
ENDBRANCH   9  32
BRANCH   1  36
HETATM   36  C   UNL     1      41.021  38.951  66.273  1.00  0.00     0.056 C 
HETATM   37  C   UNL     1      41.618  37.955  65.283  1.00  0.00     0.011 C 
ENDBRANCH   1  36
TORSDOF 9
ENDMDL
