MODEL 1
REMARK VINA RESULT:      -9.8      0.000      0.000
REMARK  7 active torsions:
REMARK  status: ('A' for Active; 'I' for Inactive)
REMARK    1  A    between atoms: C_2  and  O_3 
REMARK    2  A    between atoms: O_3  and  C_4 
REMARK    3  A    between atoms: C_4  and  C_5 
REMARK    4  A    between atoms: C_8  and  N_9 
REMARK       I    between atoms: N_9  and  C_10 
REMARK    5  A    between atoms: C_10  and  C_11 
REMARK    6  A    between atoms: C_11  and  N_12 
REMARK    7  A    between atoms: C_18  and  C_19 
ROOT
HETATM    1  N   UNL     1      25.998  44.896  50.992  1.00  0.00    -0.063 N 
HETATM    2  H   UNL     1      25.905  44.267  51.813  1.00  0.00     0.280 HD
HETATM    3  C   UNL     1      26.222  46.272  51.588  1.00  0.00     0.240 C 
HETATM    4  C   UNL     1      25.019  47.171  51.375  1.00  0.00     0.083 C 
HETATM    5  C   UNL     1      24.630  47.252  49.893  1.00  0.00     0.131 A 
HETATM    6  N   UNL     1      23.253  47.804  49.839  1.00  0.00    -0.251 NA
HETATM    7  C   UNL     1      23.318  48.928  49.172  1.00  0.00     0.132 A 
HETATM    8  C   UNL     1      24.719  49.207  48.681  1.00  0.00     0.272 A 
HETATM    9  O   UNL     1      25.102  50.102  47.968  1.00  0.00    -0.266 OA
HETATM   10  N   UNL     1      25.457  48.184  49.189  1.00  0.00    -0.327 N 
HETATM   11  C   UNL     1      24.629  45.885  49.190  1.00  0.00     0.083 C 
HETATM   12  C   UNL     1      24.737  44.747  50.186  1.00  0.00     0.240 C 
HETATM   13  H   UNL     1      26.430  48.094  48.925  1.00  0.00     0.165 HD
ENDROOT
BRANCH   1  14
HETATM   14  C   UNL     1      27.264  44.347  50.291  1.00  0.00     0.337 C 
BRANCH  14  15
HETATM   15  C   UNL     1      27.363  42.836  50.477  1.00  0.00     0.248 C 
HETATM   16  N   UNL     1      27.869  42.262  51.600  1.00  0.00    -0.326 N 
HETATM   17  H   UNL     1      27.737  41.252  51.591  1.00  0.00     0.169 HD
HETATM   18  O   UNL     1      26.900  42.114  49.585  1.00  0.00    -0.271 OA
BRANCH  16  19
HETATM   19  C   UNL     1      28.508  42.774  52.744  1.00  0.00     0.034 A 
HETATM   20  C   UNL     1      27.913  43.590  53.706  1.00  0.00     0.030 A 
HETATM   21  C   UNL     1      28.651  44.032  54.816  1.00  0.00     0.020 A 
HETATM   22  C   UNL     1      29.996  43.679  54.974  1.00  0.00     0.039 A 
HETATM   23  C   UNL     1      30.603  42.886  53.998  1.00  0.00     0.020 A 
HETATM   24  C   UNL     1      29.865  42.446  52.893  1.00  0.00     0.030 A 
BRANCH  22  25
HETATM   25  C   UNL     1      30.720  44.177  56.175  1.00  0.00     0.293 C 
HETATM   26  O   UNL     1      31.352  43.444  56.917  1.00  0.00    -0.259 OA
BRANCH  25  27
HETATM   27  O   UNL     1      30.577  45.518  56.295  1.00  0.00    -0.318 OA
BRANCH  27  28
HETATM   28  C   UNL     1      30.347  46.008  57.627  1.00  0.00     0.174 C 
HETATM   29  C   UNL     1      28.858  46.066  57.909  1.00  0.00     0.034 C 
ENDBRANCH  27  28
ENDBRANCH  25  27
ENDBRANCH  22  25
ENDBRANCH  16  19
ENDBRANCH  14  15
ENDBRANCH   1  14
BRANCH   7  30
HETATM   30  C   UNL     1      22.158  49.812  48.935  1.00  0.00    -0.002 A 
HETATM   31  C   UNL     1      21.563  49.941  47.674  1.00  0.00     0.016 A 
HETATM   32  C   UNL     1      20.478  50.806  47.491  1.00  0.00     0.024 A 
HETATM   33  C   UNL     1      19.986  51.544  48.564  1.00  0.00     0.034 A 
HETATM   34 CL   UNL     1      18.657  52.608  48.333  1.00  0.00    -0.084 Cl
HETATM   35  C   UNL     1      20.571  51.427  49.822  1.00  0.00     0.024 A 
HETATM   36  C   UNL     1      21.656  50.565  50.007  1.00  0.00     0.016 A 
ENDBRANCH   7  30
TORSDOF 7
ENDMDL
MODEL 2
REMARK VINA RESULT:      -9.8      4.261     10.397
REMARK  7 active torsions:
REMARK  status: ('A' for Active; 'I' for Inactive)
REMARK    1  A    between atoms: C_2  and  O_3 
REMARK    2  A    between atoms: O_3  and  C_4 
REMARK    3  A    between atoms: C_4  and  C_5 
REMARK    4  A    between atoms: C_8  and  N_9 
REMARK       I    between atoms: N_9  and  C_10 
REMARK    5  A    between atoms: C_10  and  C_11 
REMARK    6  A    between atoms: C_11  and  N_12 
REMARK    7  A    between atoms: C_18  and  C_19 
ROOT
HETATM    1  N   UNL     1      24.576  45.100  49.065  1.00  0.00    -0.063 N 
HETATM    2  H   UNL     1      24.756  45.620  48.185  1.00  0.00     0.280 HD
HETATM    3  C   UNL     1      24.565  46.166  50.144  1.00  0.00     0.240 C 
HETATM    4  C   UNL     1      25.783  46.059  51.041  1.00  0.00     0.083 C 
HETATM    5  C   UNL     1      25.922  44.652  51.637  1.00  0.00     0.131 A 
HETATM    6  N   UNL     1      27.310  44.538  52.153  1.00  0.00    -0.251 NA
HETATM    7  C   UNL     1      27.224  44.327  53.441  1.00  0.00     0.132 A 
HETATM    8  C   UNL     1      25.786  44.231  53.897  1.00  0.00     0.272 A 
HETATM    9  O   UNL     1      25.362  43.957  54.992  1.00  0.00    -0.266 OA
HETATM   10  N   UNL     1      25.066  44.481  52.771  1.00  0.00    -0.327 N 
HETATM   11  C   UNL     1      25.697  43.531  50.610  1.00  0.00     0.083 C 
HETATM   12  C   UNL     1      25.668  44.073  49.194  1.00  0.00     0.240 C 
HETATM   13  H   UNL     1      24.058  44.387  52.795  1.00  0.00     0.165 HD
ENDROOT
BRANCH   1  14
HETATM   14  C   UNL     1      23.171  44.501  48.820  1.00  0.00     0.337 C 
BRANCH  14  15
HETATM   15  C   UNL     1      22.683  44.845  47.416  1.00  0.00     0.248 C 
HETATM   16  N   UNL     1      21.865  45.899  47.157  1.00  0.00    -0.326 N 
HETATM   17  H   UNL     1      21.752  46.041  46.155  1.00  0.00     0.169 HD
HETATM   18  O   UNL     1      23.108  44.163  46.475  1.00  0.00    -0.271 OA
BRANCH  16  19
HETATM   19  C   UNL     1      21.177  46.813  47.975  1.00  0.00     0.034 A 
HETATM   20  C   UNL     1      19.870  46.661  48.437  1.00  0.00     0.030 A 
HETATM   21  C   UNL     1      19.290  47.640  49.260  1.00  0.00     0.020 A 
HETATM   22  C   UNL     1      20.000  48.791  49.621  1.00  0.00     0.039 A 
HETATM   23  C   UNL     1      21.298  48.961  49.135  1.00  0.00     0.020 A 
HETATM   24  C   UNL     1      21.874  47.983  48.315  1.00  0.00     0.030 A 
BRANCH  22  25
HETATM   25  C   UNL     1      19.329  49.788  50.498  1.00  0.00     0.293 C 
HETATM   26  O   UNL     1      18.529  49.474  51.364  1.00  0.00    -0.259 OA
BRANCH  25  27
HETATM   27  O   UNL     1      19.742  51.042  50.197  1.00  0.00    -0.318 OA
BRANCH  27  28
HETATM   28  C   UNL     1      18.719  51.953  49.761  1.00  0.00     0.174 C 
HETATM   29  C   UNL     1      19.006  52.418  48.346  1.00  0.00     0.034 C 
ENDBRANCH  27  28
ENDBRANCH  25  27
ENDBRANCH  22  25
ENDBRANCH  16  19
ENDBRANCH  14  15
ENDBRANCH   1  14
BRANCH   7  30
HETATM   30  C   UNL     1      28.393  44.200  54.334  1.00  0.00    -0.002 A 
HETATM   31  C   UNL     1      28.767  45.214  55.225  1.00  0.00     0.016 A 
HETATM   32  C   UNL     1      29.895  45.059  56.039  1.00  0.00     0.024 A 
HETATM   33  C   UNL     1      30.653  43.894  55.964  1.00  0.00     0.034 A 
HETATM   34 CL   UNL     1      32.040  43.711  56.962  1.00  0.00    -0.084 Cl
HETATM   35  C   UNL     1      30.295  42.879  55.080  1.00  0.00     0.024 A 
HETATM   36  C   UNL     1      29.169  43.033  54.265  1.00  0.00     0.016 A 
ENDBRANCH   7  30
TORSDOF 7
ENDMDL
MODEL 3
REMARK VINA RESULT:      -8.8      5.079      9.036
REMARK  7 active torsions:
REMARK  status: ('A' for Active; 'I' for Inactive)
REMARK    1  A    between atoms: C_2  and  O_3 
REMARK    2  A    between atoms: O_3  and  C_4 
REMARK    3  A    between atoms: C_4  and  C_5 
REMARK    4  A    between atoms: C_8  and  N_9 
REMARK       I    between atoms: N_9  and  C_10 
REMARK    5  A    between atoms: C_10  and  C_11 
REMARK    6  A    between atoms: C_11  and  N_12 
REMARK    7  A    between atoms: C_18  and  C_19 
ROOT
HETATM    1  N   UNL     1      24.536  45.117  49.850  1.00  0.00    -0.063 N 
HETATM    2  H   UNL     1      23.869  45.900  49.709  1.00  0.00     0.280 HD
HETATM    3  C   UNL     1      24.069  44.440  51.124  1.00  0.00     0.240 C 
HETATM    4  C   UNL     1      25.042  44.672  52.264  1.00  0.00     0.083 C 
HETATM    5  C   UNL     1      26.466  44.245  51.886  1.00  0.00     0.131 A 
HETATM    6  N   UNL     1      27.379  44.864  52.879  1.00  0.00    -0.251 NA
HETATM    7  C   UNL     1      27.991  43.887  53.498  1.00  0.00     0.132 A 
HETATM    8  C   UNL     1      27.586  42.538  52.950  1.00  0.00     0.272 A 
HETATM    9  O   UNL     1      28.023  41.450  53.234  1.00  0.00    -0.266 OA
HETATM   10  N   UNL     1      26.638  42.830  52.021  1.00  0.00    -0.327 N 
HETATM   11  C   UNL     1      26.890  44.714  50.484  1.00  0.00     0.083 C 
HETATM   12  C   UNL     1      25.911  45.724  49.917  1.00  0.00     0.240 C 
HETATM   13  H   UNL     1      26.266  42.089  51.440  1.00  0.00     0.165 HD
ENDROOT
BRANCH   1  14
HETATM   14  C   UNL     1      24.294  44.241  48.597  1.00  0.00     0.337 C 
BRANCH  14  15
HETATM   15  C   UNL     1      23.191  43.221  48.867  1.00  0.00     0.248 C 
HETATM   16  N   UNL     1      23.437  41.895  49.031  1.00  0.00    -0.326 N 
HETATM   17  H   UNL     1      22.598  41.397  49.325  1.00  0.00     0.169 HD
HETATM   18  O   UNL     1      22.036  43.643  49.001  1.00  0.00    -0.271 OA
BRANCH  16  19
HETATM   19  C   UNL     1      24.590  41.100  48.894  1.00  0.00     0.034 A 
HETATM   20  C   UNL     1      25.557  40.901  49.879  1.00  0.00     0.030 A 
HETATM   21  C   UNL     1      26.663  40.074  49.629  1.00  0.00     0.020 A 
HETATM   22  C   UNL     1      26.829  39.446  48.389  1.00  0.00     0.039 A 
HETATM   23  C   UNL     1      25.878  39.667  47.391  1.00  0.00     0.020 A 
HETATM   24  C   UNL     1      24.775  40.492  47.643  1.00  0.00     0.030 A 
BRANCH  22  25
HETATM   25  C   UNL     1      28.022  38.579  48.190  1.00  0.00     0.293 C 
HETATM   26  O   UNL     1      28.029  37.631  47.423  1.00  0.00    -0.259 OA
BRANCH  25  27
HETATM   27  O   UNL     1      29.053  39.005  48.957  1.00  0.00    -0.318 OA
BRANCH  27  28
HETATM   28  C   UNL     1      29.982  37.992  49.379  1.00  0.00     0.174 C 
HETATM   29  C   UNL     1      29.995  37.899  50.893  1.00  0.00     0.034 C 
ENDBRANCH  27  28
ENDBRANCH  25  27
ENDBRANCH  22  25
ENDBRANCH  16  19
ENDBRANCH  14  15
ENDBRANCH   1  14
BRANCH   7  30
HETATM   30  C   UNL     1      28.955  44.086  54.598  1.00  0.00    -0.002 A 
HETATM   31  C   UNL     1      29.999  43.186  54.850  1.00  0.00     0.016 A 
HETATM   32  C   UNL     1      30.878  43.405  55.916  1.00  0.00     0.024 A 
HETATM   33  C   UNL     1      30.719  44.519  56.734  1.00  0.00     0.034 A 
HETATM   34 CL   UNL     1      31.798  44.780  58.046  1.00  0.00    -0.084 Cl
HETATM   35  C   UNL     1      29.683  45.420  56.498  1.00  0.00     0.024 A 
HETATM   36  C   UNL     1      28.802  45.203  55.434  1.00  0.00     0.016 A 
ENDBRANCH   7  30
TORSDOF 7
ENDMDL
MODEL 4
REMARK VINA RESULT:      -8.8      3.445      5.159
REMARK  7 active torsions:
REMARK  status: ('A' for Active; 'I' for Inactive)
REMARK    1  A    between atoms: C_2  and  O_3 
REMARK    2  A    between atoms: O_3  and  C_4 
REMARK    3  A    between atoms: C_4  and  C_5 
REMARK    4  A    between atoms: C_8  and  N_9 
REMARK       I    between atoms: N_9  and  C_10 
REMARK    5  A    between atoms: C_10  and  C_11 
REMARK    6  A    between atoms: C_11  and  N_12 
REMARK    7  A    between atoms: C_18  and  C_19 
ROOT
HETATM    1  N   UNL     1      21.370  45.530  47.808  1.00  0.00    -0.063 N 
HETATM    2  H   UNL     1      21.449  44.977  46.933  1.00  0.00     0.280 HD
HETATM    3  C   UNL     1      19.971  45.243  48.319  1.00  0.00     0.240 C 
HETATM    4  C   UNL     1      19.074  46.458  48.189  1.00  0.00     0.083 C 
HETATM    5  C   UNL     1      19.685  47.687  48.874  1.00  0.00     0.131 A 
HETATM    6  N   UNL     1      18.955  48.874  48.362  1.00  0.00    -0.251 NA
HETATM    7  C   UNL     1      18.381  49.443  49.391  1.00  0.00     0.132 A 
HETATM    8  C   UNL     1      18.709  48.728  50.680  1.00  0.00     0.272 A 
HETATM    9  O   UNL     1      18.418  49.041  51.809  1.00  0.00    -0.266 OA
HETATM   10  N   UNL     1      19.455  47.662  50.287  1.00  0.00    -0.327 N 
HETATM   11  C   UNL     1      21.180  47.873  48.568  1.00  0.00     0.083 C 
HETATM   12  C   UNL     1      21.634  46.965  47.442  1.00  0.00     0.240 C 
HETATM   13  H   UNL     1      19.879  47.066  50.987  1.00  0.00     0.165 HD
ENDROOT
BRANCH   1  14
HETATM   14  C   UNL     1      22.462  44.895  48.703  1.00  0.00     0.337 C 
BRANCH  14  15
HETATM   15  C   UNL     1      23.478  44.142  47.850  1.00  0.00     0.248 C 
HETATM   16  N   UNL     1      24.660  43.686  48.341  1.00  0.00    -0.326 N 
HETATM   17  H   UNL     1      25.143  43.104  47.659  1.00  0.00     0.169 HD
HETATM   18  O   UNL     1      23.172  43.889  46.678  1.00  0.00    -0.271 OA
BRANCH  16  19
HETATM   19  C   UNL     1      25.321  43.843  49.572  1.00  0.00     0.034 A 
HETATM   20  C   UNL     1      24.999  43.176  50.754  1.00  0.00     0.030 A 
HETATM   21  C   UNL     1      25.741  43.407  51.923  1.00  0.00     0.020 A 
HETATM   22  C   UNL     1      26.805  44.317  51.935  1.00  0.00     0.039 A 
HETATM   23  C   UNL     1      27.110  45.008  50.761  1.00  0.00     0.020 A 
HETATM   24  C   UNL     1      26.370  44.776  49.596  1.00  0.00     0.030 A 
BRANCH  22  25
HETATM   25  C   UNL     1      27.552  44.513  53.206  1.00  0.00     0.293 C 
HETATM   26  O   UNL     1      27.061  45.049  54.186  1.00  0.00    -0.259 OA
BRANCH  25  27
HETATM   27  O   UNL     1      28.806  44.012  53.103  1.00  0.00    -0.318 OA
BRANCH  27  28
HETATM   28  C   UNL     1      29.094  42.868  53.925  1.00  0.00     0.174 C 
HETATM   29  C   UNL     1      30.271  43.165  54.834  1.00  0.00     0.034 C 
ENDBRANCH  27  28
ENDBRANCH  25  27
ENDBRANCH  22  25
ENDBRANCH  16  19
ENDBRANCH  14  15
ENDBRANCH   1  14
BRANCH   7  30
HETATM   30  C   UNL     1      17.518  50.638  49.294  1.00  0.00    -0.002 A 
HETATM   31  C   UNL     1      17.862  51.859  49.887  1.00  0.00     0.016 A 
HETATM   32  C   UNL     1      17.004  52.960  49.786  1.00  0.00     0.024 A 
HETATM   33  C   UNL     1      15.800  52.845  49.096  1.00  0.00     0.034 A 
HETATM   34 CL   UNL     1      14.747  54.197  48.980  1.00  0.00    -0.084 Cl
HETATM   35  C   UNL     1      15.444  51.635  48.504  1.00  0.00     0.024 A 
HETATM   36  C   UNL     1      16.299  50.533  48.605  1.00  0.00     0.016 A 
ENDBRANCH   7  30
TORSDOF 7
ENDMDL
MODEL 5
REMARK VINA RESULT:      -8.5      4.007     10.398
REMARK  7 active torsions:
REMARK  status: ('A' for Active; 'I' for Inactive)
REMARK    1  A    between atoms: C_2  and  O_3 
REMARK    2  A    between atoms: O_3  and  C_4 
REMARK    3  A    between atoms: C_4  and  C_5 
REMARK    4  A    between atoms: C_8  and  N_9 
REMARK       I    between atoms: N_9  and  C_10 
REMARK    5  A    between atoms: C_10  and  C_11 
REMARK    6  A    between atoms: C_11  and  N_12 
REMARK    7  A    between atoms: C_18  and  C_19 
ROOT
HETATM    1  N   UNL     1      23.378  44.863  49.281  1.00  0.00    -0.063 N 
HETATM    2  H   UNL     1      22.509  45.399  49.468  1.00  0.00     0.280 HD
HETATM    3  C   UNL     1      23.296  43.666  50.208  1.00  0.00     0.240 C 
HETATM    4  C   UNL     1      24.316  43.759  51.326  1.00  0.00     0.083 C 
HETATM    5  C   UNL     1      25.736  43.955  50.780  1.00  0.00     0.131 A 
HETATM    6  N   UNL     1      26.573  44.425  51.913  1.00  0.00    -0.251 NA
HETATM    7  C   UNL     1      27.509  43.529  52.094  1.00  0.00     0.132 A 
HETATM    8  C   UNL     1      27.418  42.412  51.080  1.00  0.00     0.272 A 
HETATM    9  O   UNL     1      28.172  41.485  50.914  1.00  0.00    -0.266 OA
HETATM   10  N   UNL     1      26.306  42.713  50.357  1.00  0.00    -0.327 N 
HETATM   11  C   UNL     1      25.816  45.002  49.657  1.00  0.00     0.083 C 
HETATM   12  C   UNL     1      24.529  45.796  49.544  1.00  0.00     0.240 C 
HETATM   13  H   UNL     1      26.076  42.153  49.545  1.00  0.00     0.165 HD
ENDROOT
BRANCH   1  14
HETATM   14  C   UNL     1      23.214  44.466  47.794  1.00  0.00     0.337 C 
BRANCH  14  15
HETATM   15  C   UNL     1      21.740  44.256  47.460  1.00  0.00     0.248 C 
HETATM   16  N   UNL     1      20.827  45.261  47.486  1.00  0.00    -0.326 N 
HETATM   17  H   UNL     1      19.930  44.956  47.114  1.00  0.00     0.169 HD
HETATM   18  O   UNL     1      21.388  43.128  47.090  1.00  0.00    -0.271 OA
BRANCH  16  19
HETATM   19  C   UNL     1      20.879  46.605  47.900  1.00  0.00     0.034 A 
HETATM   20  C   UNL     1      21.809  47.550  47.467  1.00  0.00     0.030 A 
HETATM   21  C   UNL     1      21.755  48.869  47.944  1.00  0.00     0.020 A 
HETATM   22  C   UNL     1      20.782  49.261  48.871  1.00  0.00     0.039 A 
HETATM   23  C   UNL     1      19.868  48.310  49.330  1.00  0.00     0.020 A 
HETATM   24  C   UNL     1      19.924  46.995  48.852  1.00  0.00     0.030 A 
BRANCH  22  25
HETATM   25  C   UNL     1      20.777  50.675  49.334  1.00  0.00     0.293 C 
HETATM   26  O   UNL     1      21.029  50.995  50.484  1.00  0.00    -0.259 OA
BRANCH  25  27
HETATM   27  O   UNL     1      20.472  51.509  48.312  1.00  0.00    -0.318 OA
BRANCH  27  28
HETATM   28  C   UNL     1      19.076  51.621  47.988  1.00  0.00     0.174 C 
HETATM   29  C   UNL     1      18.414  52.643  48.892  1.00  0.00     0.034 C 
ENDBRANCH  27  28
ENDBRANCH  25  27
ENDBRANCH  22  25
ENDBRANCH  16  19
ENDBRANCH  14  15
ENDBRANCH   1  14
BRANCH   7  30
HETATM   30  C   UNL     1      28.525  43.605  53.163  1.00  0.00    -0.002 A 
HETATM   31  C   UNL     1      29.627  42.742  53.211  1.00  0.00     0.016 A 
HETATM   32  C   UNL     1      30.555  42.838  54.253  1.00  0.00     0.024 A 
HETATM   33  C   UNL     1      30.385  43.793  55.252  1.00  0.00     0.034 A 
HETATM   34 CL   UNL     1      31.524  43.903  56.534  1.00  0.00    -0.084 Cl
HETATM   35  C   UNL     1      29.292  44.655  55.219  1.00  0.00     0.024 A 
HETATM   36  C   UNL     1      28.362  44.560  54.179  1.00  0.00     0.016 A 
ENDBRANCH   7  30
TORSDOF 7
ENDMDL
MODEL 6
REMARK VINA RESULT:      -8.5     17.732     19.658
REMARK  7 active torsions:
REMARK  status: ('A' for Active; 'I' for Inactive)
REMARK    1  A    between atoms: C_2  and  O_3 
REMARK    2  A    between atoms: O_3  and  C_4 
REMARK    3  A    between atoms: C_4  and  C_5 
REMARK    4  A    between atoms: C_8  and  N_9 
REMARK       I    between atoms: N_9  and  C_10 
REMARK    5  A    between atoms: C_10  and  C_11 
REMARK    6  A    between atoms: C_11  and  N_12 
REMARK    7  A    between atoms: C_18  and  C_19 
ROOT
HETATM    1  N   UNL     1      36.980  43.655  64.953  1.00  0.00    -0.063 N 
HETATM    2  H   UNL     1      36.676  42.836  65.514  1.00  0.00     0.280 HD
HETATM    3  C   UNL     1      38.279  44.100  65.597  1.00  0.00     0.240 C 
HETATM    4  C   UNL     1      38.115  45.422  66.320  1.00  0.00     0.083 C 
HETATM    5  C   UNL     1      37.542  46.504  65.395  1.00  0.00     0.131 A 
HETATM    6  N   UNL     1      37.057  47.604  66.267  1.00  0.00    -0.251 NA
HETATM    7  C   UNL     1      37.743  48.672  65.952  1.00  0.00     0.132 A 
HETATM    8  C   UNL     1      38.707  48.405  64.820  1.00  0.00     0.272 A 
HETATM    9  O   UNL     1      39.416  49.187  64.236  1.00  0.00    -0.266 OA
HETATM   10  N   UNL     1      38.563  47.076  64.570  1.00  0.00    -0.327 N 
HETATM   11  C   UNL     1      36.363  46.011  64.540  1.00  0.00     0.083 C 
HETATM   12  C   UNL     1      35.862  44.660  65.012  1.00  0.00     0.240 C 
HETATM   13  H   UNL     1      39.046  46.663  63.782  1.00  0.00     0.165 HD
ENDROOT
BRANCH   1  14
HETATM   14  C   UNL     1      37.202  43.037  63.552  1.00  0.00     0.337 C 
BRANCH  14  15
HETATM   15  C   UNL     1      38.542  43.488  62.978  1.00  0.00     0.248 C 
HETATM   16  N   UNL     1      39.625  42.671  62.905  1.00  0.00    -0.326 N 
HETATM   17  H   UNL     1      40.382  43.107  62.382  1.00  0.00     0.169 HD
HETATM   18  O   UNL     1      38.612  44.629  62.506  1.00  0.00    -0.271 OA
BRANCH  16  19
HETATM   19  C   UNL     1      39.894  41.375  63.383  1.00  0.00     0.034 A 
HETATM   20  C   UNL     1      39.500  40.188  62.767  1.00  0.00     0.030 A 
HETATM   21  C   UNL     1      39.837  38.949  63.333  1.00  0.00     0.020 A 
HETATM   22  C   UNL     1      40.558  38.876  64.531  1.00  0.00     0.039 A 
HETATM   23  C   UNL     1      40.928  40.062  65.166  1.00  0.00     0.020 A 
HETATM   24  C   UNL     1      40.592  41.297  64.598  1.00  0.00     0.030 A 
BRANCH  22  25
HETATM   25  C   UNL     1      40.886  37.531  65.077  1.00  0.00     0.293 C 
HETATM   26  O   UNL     1      41.807  36.852  64.653  1.00  0.00    -0.259 OA
BRANCH  25  27
HETATM   27  O   UNL     1      40.040  37.206  66.082  1.00  0.00    -0.318 OA
BRANCH  27  28
HETATM   28  C   UNL     1      40.271  35.933  66.710  1.00  0.00     0.174 C 
HETATM   29  C   UNL     1      38.990  35.120  66.721  1.00  0.00     0.034 C 
ENDBRANCH  27  28
ENDBRANCH  25  27
ENDBRANCH  22  25
ENDBRANCH  16  19
ENDBRANCH  14  15
ENDBRANCH   1  14
BRANCH   7  30
HETATM   30  C   UNL     1      37.589  49.977  66.628  1.00  0.00    -0.002 A 
HETATM   31  C   UNL     1      37.886  51.188  65.990  1.00  0.00     0.016 A 
HETATM   32  C   UNL     1      37.744  52.400  66.676  1.00  0.00     0.024 A 
HETATM   33  C   UNL     1      37.309  52.406  67.998  1.00  0.00     0.034 A 
HETATM   34 CL   UNL     1      37.142  53.896  68.837  1.00  0.00    -0.084 Cl
HETATM   35  C   UNL     1      37.014  51.208  68.645  1.00  0.00     0.024 A 
HETATM   36  C   UNL     1      37.157  49.996  67.962  1.00  0.00     0.016 A 
ENDBRANCH   7  30
TORSDOF 7
ENDMDL
MODEL 7
REMARK VINA RESULT:      -8.3      4.509     10.926
REMARK  7 active torsions:
REMARK  status: ('A' for Active; 'I' for Inactive)
REMARK    1  A    between atoms: C_2  and  O_3 
REMARK    2  A    between atoms: O_3  and  C_4 
REMARK    3  A    between atoms: C_4  and  C_5 
REMARK    4  A    between atoms: C_8  and  N_9 
REMARK       I    between atoms: N_9  and  C_10 
REMARK    5  A    between atoms: C_10  and  C_11 
REMARK    6  A    between atoms: C_11  and  N_12 
REMARK    7  A    between atoms: C_18  and  C_19 
ROOT
HETATM    1  N   UNL     1      24.466  44.338  48.485  1.00  0.00    -0.063 N 
HETATM    2  H   UNL     1      24.682  44.700  47.536  1.00  0.00     0.280 HD
HETATM    3  C   UNL     1      24.498  45.563  49.378  1.00  0.00     0.240 C 
HETATM    4  C   UNL     1      25.699  45.543  50.305  1.00  0.00     0.083 C 
HETATM    5  C   UNL     1      25.758  44.245  51.121  1.00  0.00     0.131 A 
HETATM    6  N   UNL     1      27.133  44.148  51.675  1.00  0.00    -0.251 NA
HETATM    7  C   UNL     1      27.021  44.151  52.979  1.00  0.00     0.132 A 
HETATM    8  C   UNL     1      25.576  44.201  53.416  1.00  0.00     0.272 A 
HETATM    9  O   UNL     1      25.125  44.128  54.533  1.00  0.00    -0.266 OA
HETATM   10  N   UNL     1      24.882  44.302  52.251  1.00  0.00    -0.327 N 
HETATM   11  C   UNL     1      25.487  42.986  50.283  1.00  0.00     0.083 C 
HETATM   12  C   UNL     1      25.502  43.293  48.798  1.00  0.00     0.240 C 
HETATM   13  H   UNL     1      23.870  44.262  52.271  1.00  0.00     0.165 HD
ENDROOT
BRANCH   1  14
HETATM   14  C   UNL     1      23.034  43.777  48.312  1.00  0.00     0.337 C 
BRANCH  14  15
HETATM   15  C   UNL     1      22.204  44.044  49.564  1.00  0.00     0.248 C 
HETATM   16  N   UNL     1      21.137  44.886  49.576  1.00  0.00    -0.326 N 
HETATM   17  H   UNL     1      20.638  44.838  50.462  1.00  0.00     0.169 HD
HETATM   18  O   UNL     1      22.487  43.413  50.590  1.00  0.00    -0.271 OA
BRANCH  16  19
HETATM   19  C   UNL     1      20.594  45.773  48.628  1.00  0.00     0.034 A 
HETATM   20  C   UNL     1      20.979  47.102  48.450  1.00  0.00     0.030 A 
HETATM   21  C   UNL     1      20.371  47.890  47.460  1.00  0.00     0.020 A 
HETATM   22  C   UNL     1      19.359  47.369  46.645  1.00  0.00     0.039 A 
HETATM   23  C   UNL     1      18.950  46.049  46.842  1.00  0.00     0.020 A 
HETATM   24  C   UNL     1      19.559  45.265  47.828  1.00  0.00     0.030 A 
BRANCH  22  25
HETATM   25  C   UNL     1      18.757  48.256  45.613  1.00  0.00     0.293 C 
HETATM   26  O   UNL     1      18.197  47.827  44.618  1.00  0.00    -0.259 OA
BRANCH  25  27
HETATM   27  O   UNL     1      18.917  49.558  45.952  1.00  0.00    -0.318 OA
BRANCH  27  28
HETATM   28  C   UNL     1      17.720  50.354  45.966  1.00  0.00     0.174 C 
HETATM   29  C   UNL     1      16.928  50.078  47.230  1.00  0.00     0.034 C 
ENDBRANCH  27  28
ENDBRANCH  25  27
ENDBRANCH  22  25
ENDBRANCH  16  19
ENDBRANCH  14  15
ENDBRANCH   1  14
BRANCH   7  30
HETATM   30  C   UNL     1      28.172  44.113  53.903  1.00  0.00    -0.002 A 
HETATM   31  C   UNL     1      29.034  43.011  53.978  1.00  0.00     0.016 A 
HETATM   32  C   UNL     1      30.102  43.010  54.883  1.00  0.00     0.024 A 
HETATM   33  C   UNL     1      30.311  44.106  55.716  1.00  0.00     0.034 A 
HETATM   34 CL   UNL     1      31.619  44.097  56.829  1.00  0.00    -0.084 Cl
HETATM   35  C   UNL     1      29.459  45.206  55.654  1.00  0.00     0.024 A 
HETATM   36  C   UNL     1      28.391  45.209  54.752  1.00  0.00     0.016 A 
ENDBRANCH   7  30
TORSDOF 7
ENDMDL
MODEL 8
REMARK VINA RESULT:      -7.8     11.757     14.644
REMARK  7 active torsions:
REMARK  status: ('A' for Active; 'I' for Inactive)
REMARK    1  A    between atoms: C_2  and  O_3 
REMARK    2  A    between atoms: O_3  and  C_4 
REMARK    3  A    between atoms: C_4  and  C_5 
REMARK    4  A    between atoms: C_8  and  N_9 
REMARK       I    between atoms: N_9  and  C_10 
REMARK    5  A    between atoms: C_10  and  C_11 
REMARK    6  A    between atoms: C_11  and  N_12 
REMARK    7  A    between atoms: C_18  and  C_19 
ROOT
HETATM    1  N   UNL     1      29.402  52.482  39.176  1.00  0.00    -0.063 N 
HETATM    2  H   UNL     1      29.236  53.100  38.358  1.00  0.00     0.280 HD
HETATM    3  C   UNL     1      29.666  53.433  40.327  1.00  0.00     0.240 C 
HETATM    4  C   UNL     1      31.117  53.385  40.765  1.00  0.00     0.083 C 
HETATM    5  C   UNL     1      31.557  51.954  41.100  1.00  0.00     0.131 A 
HETATM    6  N   UNL     1      33.042  51.955  41.123  1.00  0.00    -0.251 NA
HETATM    7  C   UNL     1      33.406  51.614  42.333  1.00  0.00     0.132 A 
HETATM    8  C   UNL     1      32.214  51.309  43.210  1.00  0.00     0.272 A 
HETATM    9  O   UNL     1      32.201  50.884  44.340  1.00  0.00    -0.266 OA
HETATM   10  N   UNL     1      31.143  51.578  42.417  1.00  0.00    -0.327 N 
HETATM   11  C   UNL     1      31.093  50.916  40.065  1.00  0.00     0.083 C 
HETATM   12  C   UNL     1      30.552  51.582  38.815  1.00  0.00     0.240 C 
HETATM   13  H   UNL     1      30.211  51.365  42.752  1.00  0.00     0.165 HD
ENDROOT
BRANCH   1  14
HETATM   14  C   UNL     1      28.047  51.748  39.321  1.00  0.00     0.337 C 
BRANCH  14  15
HETATM   15  C   UNL     1      27.667  51.618  40.793  1.00  0.00     0.248 C 
HETATM   16  N   UNL     1      27.707  50.437  41.463  1.00  0.00    -0.326 N 
HETATM   17  H   UNL     1      27.541  50.572  42.459  1.00  0.00     0.169 HD
HETATM   18  O   UNL     1      27.373  52.652  41.406  1.00  0.00    -0.271 OA
BRANCH  16  19
HETATM   19  C   UNL     1      27.938  49.107  41.067  1.00  0.00     0.034 A 
HETATM   20  C   UNL     1      29.185  48.486  41.009  1.00  0.00     0.030 A 
HETATM   21  C   UNL     1      29.291  47.145  40.608  1.00  0.00     0.020 A 
HETATM   22  C   UNL     1      28.157  46.409  40.244  1.00  0.00     0.039 A 
HETATM   23  C   UNL     1      26.911  47.037  40.274  1.00  0.00     0.020 A 
HETATM   24  C   UNL     1      26.807  48.374  40.675  1.00  0.00     0.030 A 
BRANCH  22  25
HETATM   25  C   UNL     1      28.338  44.991  39.832  1.00  0.00     0.293 C 
HETATM   26  O   UNL     1      29.374  44.572  39.341  1.00  0.00    -0.259 OA
BRANCH  25  27
HETATM   27  O   UNL     1      27.220  44.273  40.091  1.00  0.00    -0.318 OA
BRANCH  27  28
HETATM   28  C   UNL     1      27.193  43.584  41.352  1.00  0.00     0.174 C 
HETATM   29  C   UNL     1      27.731  42.176  41.187  1.00  0.00     0.034 C 
ENDBRANCH  27  28
ENDBRANCH  25  27
ENDBRANCH  22  25
ENDBRANCH  16  19
ENDBRANCH  14  15
ENDBRANCH   1  14
BRANCH   7  30
HETATM   30  C   UNL     1      34.812  51.541  42.779  1.00  0.00    -0.002 A 
HETATM   31  C   UNL     1      35.307  52.333  43.823  1.00  0.00     0.016 A 
HETATM   32  C   UNL     1      36.651  52.245  44.200  1.00  0.00     0.024 A 
HETATM   33  C   UNL     1      37.506  51.369  43.536  1.00  0.00     0.034 A 
HETATM   34 CL   UNL     1      39.157  51.269  43.998  1.00  0.00    -0.084 Cl
HETATM   35  C   UNL     1      37.027  50.578  42.494  1.00  0.00     0.024 A 
HETATM   36  C   UNL     1      35.684  50.666  42.115  1.00  0.00     0.016 A 
ENDBRANCH   7  30
TORSDOF 7
ENDMDL
MODEL 9
REMARK VINA RESULT:      -7.8      5.906     12.970
REMARK  7 active torsions:
REMARK  status: ('A' for Active; 'I' for Inactive)
REMARK    1  A    between atoms: C_2  and  O_3 
REMARK    2  A    between atoms: O_3  and  C_4 
REMARK    3  A    between atoms: C_4  and  C_5 
REMARK    4  A    between atoms: C_8  and  N_9 
REMARK       I    between atoms: N_9  and  C_10 
REMARK    5  A    between atoms: C_10  and  C_11 
REMARK    6  A    between atoms: C_11  and  N_12 
REMARK    7  A    between atoms: C_18  and  C_19 
ROOT
HETATM    1  N   UNL     1      18.724  51.368  48.544  1.00  0.00    -0.063 N 
HETATM    2  H   UNL     1      18.190  51.905  49.253  1.00  0.00     0.280 HD
HETATM    3  C   UNL     1      18.359  49.919  48.805  1.00  0.00     0.240 C 
HETATM    4  C   UNL     1      19.529  49.148  49.386  1.00  0.00     0.083 C 
HETATM    5  C   UNL     1      20.777  49.266  48.500  1.00  0.00     0.131 A 
HETATM    6  N   UNL     1      21.933  48.834  49.326  1.00  0.00    -0.251 NA
HETATM    7  C   UNL     1      22.456  47.791  48.734  1.00  0.00     0.132 A 
HETATM    8  C   UNL     1      21.739  47.460  47.446  1.00  0.00     0.272 A 
HETATM    9  O   UNL     1      22.020  46.624  46.623  1.00  0.00    -0.266 OA
HETATM   10  N   UNL     1      20.718  48.357  47.397  1.00  0.00    -0.327 N 
HETATM   11  C   UNL     1      21.043  50.700  48.012  1.00  0.00     0.083 C 
HETATM   12  C   UNL     1      20.176  51.706  48.745  1.00  0.00     0.240 C 
HETATM   13  H   UNL     1      20.134  48.399  46.571  1.00  0.00     0.165 HD
ENDROOT
BRANCH   1  14
HETATM   14  C   UNL     1      18.132  51.890  47.213  1.00  0.00     0.337 C 
BRANCH  14  15
HETATM   15  C   UNL     1      16.853  51.134  46.867  1.00  0.00     0.248 C 
HETATM   16  N   UNL     1      15.633  51.491  47.347  1.00  0.00    -0.326 N 
HETATM   17  H   UNL     1      14.890  50.949  46.908  1.00  0.00     0.169 HD
HETATM   18  O   UNL     1      16.937  50.195  46.065  1.00  0.00    -0.271 OA
BRANCH  16  19
HETATM   19  C   UNL     1      15.205  52.443  48.290  1.00  0.00     0.034 A 
HETATM   20  C   UNL     1      14.706  53.711  47.991  1.00  0.00     0.030 A 
HETATM   21  C   UNL     1      14.297  54.573  49.020  1.00  0.00     0.020 A 
HETATM   22  C   UNL     1      14.395  54.191  50.363  1.00  0.00     0.039 A 
HETATM   23  C   UNL     1      14.922  52.934  50.667  1.00  0.00     0.020 A 
HETATM   24  C   UNL     1      15.328  52.075  49.638  1.00  0.00     0.030 A 
BRANCH  22  25
HETATM   25  C   UNL     1      13.942  55.151  51.406  1.00  0.00     0.293 C 
HETATM   26  O   UNL     1      12.826  55.115  51.896  1.00  0.00    -0.259 OA
BRANCH  25  27
HETATM   27  O   UNL     1      14.932  56.022  51.713  1.00  0.00    -0.318 OA
BRANCH  27  28
HETATM   28  C   UNL     1      15.220  56.177  53.113  1.00  0.00     0.174 C 
HETATM   29  C   UNL     1      15.427  57.643  53.441  1.00  0.00     0.034 C 
ENDBRANCH  27  28
ENDBRANCH  25  27
ENDBRANCH  22  25
ENDBRANCH  16  19
ENDBRANCH  14  15
ENDBRANCH   1  14
BRANCH   7  30
HETATM   30  C   UNL     1      23.607  47.035  49.268  1.00  0.00    -0.002 A 
HETATM   31  C   UNL     1      23.599  45.638  49.374  1.00  0.00     0.016 A 
HETATM   32  C   UNL     1      24.704  44.963  49.904  1.00  0.00     0.024 A 
HETATM   33  C   UNL     1      25.819  45.680  50.332  1.00  0.00     0.034 A 
HETATM   34 CL   UNL     1      27.171  44.847  50.988  1.00  0.00    -0.084 Cl
HETATM   35  C   UNL     1      25.839  47.069  50.235  1.00  0.00     0.024 A 
HETATM   36  C   UNL     1      24.734  47.745  49.707  1.00  0.00     0.016 A 
ENDBRANCH   7  30
TORSDOF 7
ENDMDL
MODEL 10
REMARK VINA RESULT:      -7.7      5.272     10.731
REMARK  7 active torsions:
REMARK  status: ('A' for Active; 'I' for Inactive)
REMARK    1  A    between atoms: C_2  and  O_3 
REMARK    2  A    between atoms: O_3  and  C_4 
REMARK    3  A    between atoms: C_4  and  C_5 
REMARK    4  A    between atoms: C_8  and  N_9 
REMARK       I    between atoms: N_9  and  C_10 
REMARK    5  A    between atoms: C_10  and  C_11 
REMARK    6  A    between atoms: C_11  and  N_12 
REMARK    7  A    between atoms: C_18  and  C_19 
ROOT
HETATM    1  N   UNL     1      24.692  46.453  49.544  1.00  0.00    -0.063 N 
HETATM    2  H   UNL     1      24.862  47.177  48.820  1.00  0.00     0.280 HD
HETATM    3  C   UNL     1      24.647  47.221  50.851  1.00  0.00     0.240 C 
HETATM    4  C   UNL     1      25.862  46.927  51.709  1.00  0.00     0.083 C 
HETATM    5  C   UNL     1      26.036  45.421  51.944  1.00  0.00     0.131 A 
HETATM    6  N   UNL     1      27.423  45.218  52.431  1.00  0.00    -0.251 NA
HETATM    7  C   UNL     1      27.336  44.695  53.627  1.00  0.00     0.132 A 
HETATM    8  C   UNL     1      25.899  44.455  54.029  1.00  0.00     0.272 A 
HETATM    9  O   UNL     1      25.476  43.910  55.019  1.00  0.00    -0.266 OA
HETATM   10  N   UNL     1      25.178  44.956  52.991  1.00  0.00    -0.327 N 
HETATM   11  C   UNL     1      25.846  44.581  50.670  1.00  0.00     0.083 C 
HETATM   12  C   UNL     1      25.810  45.453  49.430  1.00  0.00     0.240 C 
HETATM   13  H   UNL     1      24.173  44.834  52.979  1.00  0.00     0.165 HD
ENDROOT
BRANCH   1  14
HETATM   14  C   UNL     1      23.304  45.897  49.143  1.00  0.00     0.337 C 
BRANCH  14  15
HETATM   15  C   UNL     1      22.719  46.709  47.991  1.00  0.00     0.248 C 
HETATM   16  N   UNL     1      21.923  46.164  47.035  1.00  0.00    -0.326 N 
HETATM   17  H   UNL     1      21.530  46.882  46.427  1.00  0.00     0.169 HD
HETATM   18  O   UNL     1      22.937  47.927  47.975  1.00  0.00    -0.271 OA
BRANCH  16  19
HETATM   19  C   UNL     1      21.532  44.846  46.736  1.00  0.00     0.034 A 
HETATM   20  C   UNL     1      20.237  44.438  46.418  1.00  0.00     0.030 A 
HETATM   21  C   UNL     1      19.970  43.091  46.126  1.00  0.00     0.020 A 
HETATM   22  C   UNL     1      20.986  42.129  46.162  1.00  0.00     0.039 A 
HETATM   23  C   UNL     1      22.278  42.530  46.510  1.00  0.00     0.020 A 
HETATM   24  C   UNL     1      22.543  43.874  46.799  1.00  0.00     0.030 A 
BRANCH  22  25
HETATM   25  C   UNL     1      20.637  40.720  45.839  1.00  0.00     0.293 C 
HETATM   26  O   UNL     1      20.529  40.311  44.695  1.00  0.00    -0.259 OA
BRANCH  25  27
HETATM   27  O   UNL     1      20.477  39.997  46.973  1.00  0.00    -0.318 OA
BRANCH  27  28
HETATM   28  C   UNL     1      20.547  38.569  46.823  1.00  0.00     0.174 C 
HETATM   29  C   UNL     1      19.171  37.959  47.011  1.00  0.00     0.034 C 
ENDBRANCH  27  28
ENDBRANCH  25  27
ENDBRANCH  22  25
ENDBRANCH  16  19
ENDBRANCH  14  15
ENDBRANCH   1  14
BRANCH   7  30
HETATM   30  C   UNL     1      28.503  44.382  54.476  1.00  0.00    -0.002 A 
HETATM   31  C   UNL     1      29.043  45.309  55.377  1.00  0.00     0.016 A 
HETATM   32  C   UNL     1      30.163  44.975  56.147  1.00  0.00     0.024 A 
HETATM   33  C   UNL     1      30.748  43.719  56.019  1.00  0.00     0.034 A 
HETATM   34 CL   UNL     1      32.127  43.316  56.962  1.00  0.00    -0.084 Cl
HETATM   35  C   UNL     1      30.224  42.789  55.124  1.00  0.00     0.024 A 
HETATM   36  C   UNL     1      29.106  43.120  54.352  1.00  0.00     0.016 A 
ENDBRANCH   7  30
TORSDOF 7
ENDMDL
