MODEL 1
REMARK VINA RESULT:     -10.1      0.000      0.000
REMARK  7 active torsions:
REMARK  status: ('A' for Active; 'I' for Inactive)
REMARK    1  A    between atoms: C_5  and  N_6 
REMARK    2  A    between atoms: C_7  and  S_8 
REMARK    3  A    between atoms: S_8  and  C_9 
REMARK    4  A    between atoms: C_9  and  C_10 
REMARK       I    between atoms: C_10  and  N_11 
REMARK    5  A    between atoms: C_13  and  C_14 
REMARK    6  A    between atoms: C_14  and  N_15 
REMARK       I    between atoms: N_15  and  C_16 
REMARK       I    between atoms: C_16  and  N_17 
REMARK    7  A    between atoms: N_17  and  C_18 
ROOT
HETATM    1  C   UNL     1      23.051  42.795  48.727  1.00  0.00     0.229 C 
HETATM    2  N   UNL     1      24.421  42.542  48.826  1.00  0.00    -0.351 N 
HETATM    3  C   UNL     1      25.431  43.554  49.134  1.00  0.00     0.132 C 
HETATM    4  C   UNL     1      26.544  42.985  50.025  1.00  0.00     0.021 C 
HETATM    5  C   UNL     1      27.146  41.734  49.365  1.00  0.00     0.009 C 
HETATM    6  C   UNL     1      26.077  40.700  49.010  1.00  0.00     0.020 C 
HETATM    7  C   UNL     1      24.930  41.316  48.213  1.00  0.00     0.126 C 
HETATM    8  O   UNL     1      22.244  41.877  48.538  1.00  0.00    -0.273 OA
ENDROOT
BRANCH   1   9
HETATM    9  C   UNL     1      22.533  44.212  48.939  1.00  0.00     0.185 C 
BRANCH   9  10
HETATM   10  S   UNL     1      22.792  45.278  47.490  1.00  0.00    -0.082 SA
BRANCH  10  11
HETATM   11  C   UNL     1      21.959  46.712  48.006  1.00  0.00     0.173 A 
HETATM   12  N   UNL     1      22.483  47.653  48.879  1.00  0.00    -0.299 N 
HETATM   13  C   UNL     1      21.425  48.486  49.192  1.00  0.00     0.118 A 
HETATM   14  C   UNL     1      20.355  48.036  48.458  1.00  0.00     0.137 A 
HETATM   15  N   UNL     1      20.698  46.942  47.715  1.00  0.00    -0.235 NA
BRANCH  12  16
HETATM   16  C   UNL     1      23.829  47.846  49.303  1.00  0.00     0.047 A 
HETATM   17  C   UNL     1      24.645  48.872  48.765  1.00  0.00    -0.029 A 
HETATM   18  C   UNL     1      26.017  48.899  49.120  1.00  0.00    -0.054 A 
HETATM   19  C   UNL     1      24.093  49.954  47.868  1.00  0.00     0.051 C 
HETATM   20  C   UNL     1      26.964  49.937  48.575  1.00  0.00     0.049 C 
HETATM   21  C   UNL     1      26.519  47.969  50.045  1.00  0.00     0.007 A 
HETATM   22  C   UNL     1      25.694  46.995  50.598  1.00  0.00     0.003 A 
HETATM   23  C   UNL     1      24.357  46.926  50.224  1.00  0.00     0.030 A 
ENDBRANCH  12  16
ENDBRANCH  10  11
ENDBRANCH   9  10
ENDBRANCH   1   9
BRANCH   4  24
HETATM   24  C   UNL     1      26.048  42.669  51.450  1.00  0.00     0.130 C 
BRANCH  24  25
HETATM   25  N   UNL     1      26.960  41.794  52.171  1.00  0.00    -0.342 N 
HETATM   26  C   UNL     1      27.908  42.049  53.116  1.00  0.00     0.320 C 
HETATM   27  N   UNL     1      28.002  43.339  53.556  1.00  0.00    -0.309 N 
HETATM   28  O   UNL     1      28.598  41.105  53.484  1.00  0.00    -0.247 OA
HETATM   29  H   UNL     1      27.279  43.974  53.258  1.00  0.00     0.170 HD
HETATM   30  H   UNL     1      26.938  40.808  51.938  1.00  0.00     0.164 HD
BRANCH  27  31
HETATM   31  C   UNL     1      28.912  43.867  54.497  1.00  0.00     0.039 A 
HETATM   32  C   UNL     1      30.014  43.171  54.995  1.00  0.00     0.071 A 
HETATM   33  C   UNL     1      30.853  43.777  55.928  1.00  0.00     0.118 A 
HETATM   34  F   UNL     1      31.909  43.102  56.400  1.00  0.00    -0.206 F 
HETATM   35  C   UNL     1      30.616  45.069  56.380  1.00  0.00     0.042 A 
HETATM   36  C   UNL     1      29.525  45.775  55.886  1.00  0.00     0.005 A 
HETATM   37  C   UNL     1      28.681  45.177  54.943  1.00  0.00     0.030 A 
ENDBRANCH  27  31
ENDBRANCH  24  25
ENDBRANCH   4  24
TORSDOF 7
ENDMDL
MODEL 2
REMARK VINA RESULT:     -10.0      3.531      8.564
REMARK  7 active torsions:
REMARK  status: ('A' for Active; 'I' for Inactive)
REMARK    1  A    between atoms: C_5  and  N_6 
REMARK    2  A    between atoms: C_7  and  S_8 
REMARK    3  A    between atoms: S_8  and  C_9 
REMARK    4  A    between atoms: C_9  and  C_10 
REMARK       I    between atoms: C_10  and  N_11 
REMARK    5  A    between atoms: C_13  and  C_14 
REMARK    6  A    between atoms: C_14  and  N_15 
REMARK       I    between atoms: N_15  and  C_16 
REMARK       I    between atoms: C_16  and  N_17 
REMARK    7  A    between atoms: N_17  and  C_18 
ROOT
HETATM    1  C   UNL     1      25.473  43.385  51.715  1.00  0.00     0.229 C 
HETATM    2  N   UNL     1      24.697  42.793  50.716  1.00  0.00    -0.351 N 
HETATM    3  C   UNL     1      23.302  43.134  50.437  1.00  0.00     0.132 C 
HETATM    4  C   UNL     1      23.005  43.097  48.931  1.00  0.00     0.021 C 
HETATM    5  C   UNL     1      23.401  41.726  48.360  1.00  0.00     0.009 C 
HETATM    6  C   UNL     1      24.849  41.361  48.693  1.00  0.00     0.020 C 
HETATM    7  C   UNL     1      25.147  41.507  50.182  1.00  0.00     0.126 C 
HETATM    8  O   UNL     1      26.669  43.102  51.847  1.00  0.00    -0.273 OA
ENDROOT
BRANCH   1   9
HETATM    9  C   UNL     1      24.858  44.460  52.603  1.00  0.00     0.185 C 
BRANCH   9  10
HETATM   10  S   UNL     1      25.483  44.402  54.309  1.00  0.00    -0.082 SA
BRANCH  10  11
HETATM   11  C   UNL     1      26.328  45.918  54.382  1.00  0.00     0.173 A 
HETATM   12  N   UNL     1      27.639  46.066  54.805  1.00  0.00    -0.299 N 
HETATM   13  C   UNL     1      27.830  47.431  54.923  1.00  0.00     0.118 A 
HETATM   14  C   UNL     1      26.656  48.017  54.519  1.00  0.00     0.137 A 
HETATM   15  N   UNL     1      25.732  47.071  54.172  1.00  0.00    -0.235 NA
BRANCH  12  16
HETATM   16  C   UNL     1      28.652  45.081  54.980  1.00  0.00     0.047 A 
HETATM   17  C   UNL     1      29.470  45.042  56.137  1.00  0.00    -0.029 A 
HETATM   18  C   UNL     1      30.557  44.133  56.165  1.00  0.00    -0.054 A 
HETATM   19  C   UNL     1      29.194  45.901  57.348  1.00  0.00     0.051 C 
HETATM   20  C   UNL     1      31.494  44.042  57.342  1.00  0.00     0.049 C 
HETATM   21  C   UNL     1      30.755  43.246  55.094  1.00  0.00     0.007 A 
HETATM   22  C   UNL     1      29.916  43.266  53.985  1.00  0.00     0.003 A 
HETATM   23  C   UNL     1      28.874  44.185  53.921  1.00  0.00     0.030 A 
ENDBRANCH  12  16
ENDBRANCH  10  11
ENDBRANCH   9  10
ENDBRANCH   1   9
BRANCH   4  24
HETATM   24  C   UNL     1      23.710  44.235  48.167  1.00  0.00     0.130 C 
BRANCH  24  25
HETATM   25  N   UNL     1      22.816  44.915  47.243  1.00  0.00    -0.342 N 
HETATM   26  C   UNL     1      22.284  46.171  47.251  1.00  0.00     0.320 C 
HETATM   27  N   UNL     1      22.699  47.004  48.251  1.00  0.00    -0.309 N 
HETATM   28  O   UNL     1      21.475  46.440  46.370  1.00  0.00    -0.247 OA
HETATM   29  H   UNL     1      23.465  46.684  48.820  1.00  0.00     0.170 HD
HETATM   30  H   UNL     1      22.482  44.386  46.446  1.00  0.00     0.164 HD
BRANCH  27  31
HETATM   31  C   UNL     1      22.280  48.329  48.500  1.00  0.00     0.039 A 
HETATM   32  C   UNL     1      23.038  49.460  48.194  1.00  0.00     0.071 A 
HETATM   33  C   UNL     1      22.539  50.728  48.485  1.00  0.00     0.118 A 
HETATM   34  F   UNL     1      23.273  51.808  48.187  1.00  0.00    -0.206 F 
HETATM   35  C   UNL     1      21.295  50.897  49.079  1.00  0.00     0.042 A 
HETATM   36  C   UNL     1      20.527  49.777  49.382  1.00  0.00     0.005 A 
HETATM   37  C   UNL     1      21.017  48.499  49.087  1.00  0.00     0.030 A 
ENDBRANCH  27  31
ENDBRANCH  24  25
ENDBRANCH   4  24
TORSDOF 7
ENDMDL
MODEL 3
REMARK VINA RESULT:      -9.8      1.750      3.416
REMARK  7 active torsions:
REMARK  status: ('A' for Active; 'I' for Inactive)
REMARK    1  A    between atoms: C_5  and  N_6 
REMARK    2  A    between atoms: C_7  and  S_8 
REMARK    3  A    between atoms: S_8  and  C_9 
REMARK    4  A    between atoms: C_9  and  C_10 
REMARK       I    between atoms: C_10  and  N_11 
REMARK    5  A    between atoms: C_13  and  C_14 
REMARK    6  A    between atoms: C_14  and  N_15 
REMARK       I    between atoms: N_15  and  C_16 
REMARK       I    between atoms: C_16  and  N_17 
REMARK    7  A    between atoms: N_17  and  C_18 
ROOT
HETATM    1  C   UNL     1      24.791  44.602  49.396  1.00  0.00     0.229 C 
HETATM    2  N   UNL     1      25.434  43.380  49.192  1.00  0.00    -0.351 N 
HETATM    3  C   UNL     1      26.866  43.154  49.388  1.00  0.00     0.132 C 
HETATM    4  C   UNL     1      27.140  41.763  49.978  1.00  0.00     0.021 C 
HETATM    5  C   UNL     1      26.490  40.688  49.091  1.00  0.00     0.009 C 
HETATM    6  C   UNL     1      25.002  40.957  48.858  1.00  0.00     0.020 C 
HETATM    7  C   UNL     1      24.749  42.381  48.373  1.00  0.00     0.126 C 
HETATM    8  O   UNL     1      23.563  44.705  49.285  1.00  0.00    -0.273 OA
ENDROOT
BRANCH   1   9
HETATM    9  C   UNL     1      25.602  45.811  49.845  1.00  0.00     0.185 C 
BRANCH   9  10
HETATM   10  S   UNL     1      24.562  47.152  50.497  1.00  0.00    -0.082 SA
BRANCH  10  11
HETATM   11  C   UNL     1      25.069  48.463  49.477  1.00  0.00     0.173 A 
HETATM   12  N   UNL     1      24.205  49.314  48.805  1.00  0.00    -0.299 N 
HETATM   13  C   UNL     1      25.009  50.043  47.948  1.00  0.00     0.118 A 
HETATM   14  C   UNL     1      26.297  49.631  48.189  1.00  0.00     0.137 A 
HETATM   15  N   UNL     1      26.327  48.659  49.150  1.00  0.00    -0.235 NA
BRANCH  12  16
HETATM   16  C   UNL     1      22.810  49.524  48.995  1.00  0.00     0.047 A 
HETATM   17  C   UNL     1      21.836  48.695  48.384  1.00  0.00    -0.029 A 
HETATM   18  C   UNL     1      20.472  49.065  48.492  1.00  0.00    -0.054 A 
HETATM   19  C   UNL     1      22.200  47.418  47.665  1.00  0.00     0.051 C 
HETATM   20  C   UNL     1      19.371  48.258  47.852  1.00  0.00     0.049 C 
HETATM   21  C   UNL     1      20.109  50.186  49.257  1.00  0.00     0.007 A 
HETATM   22  C   UNL     1      21.074  50.964  49.887  1.00  0.00     0.003 A 
HETATM   23  C   UNL     1      22.420  50.642  49.751  1.00  0.00     0.030 A 
ENDBRANCH  12  16
ENDBRANCH  10  11
ENDBRANCH   9  10
ENDBRANCH   1   9
BRANCH   4  24
HETATM   24  C   UNL     1      26.655  41.639  51.436  1.00  0.00     0.130 C 
BRANCH  24  25
HETATM   25  N   UNL     1      26.340  42.931  52.024  1.00  0.00    -0.342 N 
HETATM   26  C   UNL     1      26.979  43.679  52.968  1.00  0.00     0.320 C 
HETATM   27  N   UNL     1      28.178  43.204  53.417  1.00  0.00    -0.309 N 
HETATM   28  O   UNL     1      26.420  44.706  53.340  1.00  0.00    -0.247 OA
HETATM   29  H   UNL     1      28.569  42.419  52.922  1.00  0.00     0.170 HD
HETATM   30  H   UNL     1      25.483  43.382  51.725  1.00  0.00     0.164 HD
BRANCH  27  31
HETATM   31  C   UNL     1      29.016  43.767  54.405  1.00  0.00     0.039 A 
HETATM   32  C   UNL     1      30.092  43.100  54.990  1.00  0.00     0.071 A 
HETATM   33  C   UNL     1      30.857  43.740  55.964  1.00  0.00     0.118 A 
HETATM   34  F   UNL     1      31.889  43.092  56.520  1.00  0.00    -0.206 F 
HETATM   35  C   UNL     1      30.571  45.037  56.370  1.00  0.00     0.042 A 
HETATM   36  C   UNL     1      29.505  45.714  55.788  1.00  0.00     0.005 A 
HETATM   37  C   UNL     1      28.735  45.082  54.805  1.00  0.00     0.030 A 
ENDBRANCH  27  31
ENDBRANCH  24  25
ENDBRANCH   4  24
TORSDOF 7
ENDMDL
MODEL 4
REMARK VINA RESULT:      -9.8      4.936     10.594
REMARK  7 active torsions:
REMARK  status: ('A' for Active; 'I' for Inactive)
REMARK    1  A    between atoms: C_5  and  N_6 
REMARK    2  A    between atoms: C_7  and  S_8 
REMARK    3  A    between atoms: S_8  and  C_9 
REMARK    4  A    between atoms: C_9  and  C_10 
REMARK       I    between atoms: C_10  and  N_11 
REMARK    5  A    between atoms: C_13  and  C_14 
REMARK    6  A    between atoms: C_14  and  N_15 
REMARK       I    between atoms: N_15  and  C_16 
REMARK       I    between atoms: C_16  and  N_17 
REMARK    7  A    between atoms: N_17  and  C_18 
ROOT
HETATM    1  C   UNL     1      25.481  47.884  49.739  1.00  0.00     0.229 C 
HETATM    2  N   UNL     1      24.586  48.563  48.909  1.00  0.00    -0.351 N 
HETATM    3  C   UNL     1      23.418  47.952  48.275  1.00  0.00     0.132 C 
HETATM    4  C   UNL     1      22.229  48.923  48.233  1.00  0.00     0.021 C 
HETATM    5  C   UNL     1      22.654  50.232  47.549  1.00  0.00     0.009 C 
HETATM    6  C   UNL     1      23.900  50.840  48.194  1.00  0.00     0.020 C 
HETATM    7  C   UNL     1      25.032  49.824  48.319  1.00  0.00     0.126 C 
HETATM    8  O   UNL     1      26.406  48.480  50.304  1.00  0.00    -0.273 OA
ENDROOT
BRANCH   1   9
HETATM    9  C   UNL     1      25.266  46.403  50.021  1.00  0.00     0.185 C 
BRANCH   9  10
HETATM   10  S   UNL     1      26.763  45.410  49.736  1.00  0.00    -0.082 SA
BRANCH  10  11
HETATM   11  C   UNL     1      26.221  43.861  50.306  1.00  0.00     0.173 A 
HETATM   12  N   UNL     1      26.585  43.301  51.521  1.00  0.00    -0.299 N 
HETATM   13  C   UNL     1      26.128  41.997  51.470  1.00  0.00     0.118 A 
HETATM   14  C   UNL     1      25.478  41.867  50.267  1.00  0.00     0.137 A 
HETATM   15  N   UNL     1      25.529  43.033  49.556  1.00  0.00    -0.235 NA
BRANCH  12  16
HETATM   16  C   UNL     1      27.189  43.912  52.656  1.00  0.00     0.047 A 
HETATM   17  C   UNL     1      28.455  43.503  53.144  1.00  0.00    -0.029 A 
HETATM   18  C   UNL     1      28.915  44.049  54.369  1.00  0.00    -0.054 A 
HETATM   19  C   UNL     1      29.341  42.545  52.384  1.00  0.00     0.051 C 
HETATM   20  C   UNL     1      30.236  43.651  54.976  1.00  0.00     0.049 C 
HETATM   21  C   UNL     1      28.154  45.028  55.028  1.00  0.00     0.007 A 
HETATM   22  C   UNL     1      26.934  45.451  54.512  1.00  0.00     0.003 A 
HETATM   23  C   UNL     1      26.447  44.891  53.337  1.00  0.00     0.030 A 
ENDBRANCH  12  16
ENDBRANCH  10  11
ENDBRANCH   9  10
ENDBRANCH   1   9
BRANCH   4  24
HETATM   24  C   UNL     1      21.650  49.198  49.635  1.00  0.00     0.130 C 
BRANCH  24  25
HETATM   25  N   UNL     1      20.345  48.585  49.824  1.00  0.00    -0.342 N 
HETATM   26  C   UNL     1      19.081  49.075  49.679  1.00  0.00     0.320 C 
HETATM   27  N   UNL     1      18.970  50.348  49.196  1.00  0.00    -0.309 N 
HETATM   28  O   UNL     1      18.156  48.338  50.003  1.00  0.00    -0.247 OA
HETATM   29  H   UNL     1      19.812  50.777  48.851  1.00  0.00     0.170 HD
HETATM   30  H   UNL     1      20.325  47.625  50.148  1.00  0.00     0.164 HD
BRANCH  27  31
HETATM   31  C   UNL     1      17.788  51.092  48.985  1.00  0.00     0.039 A 
HETATM   32  C   UNL     1      16.886  50.849  47.950  1.00  0.00     0.071 A 
HETATM   33  C   UNL     1      15.748  51.645  47.822  1.00  0.00     0.118 A 
HETATM   34  F   UNL     1      14.886  51.404  46.825  1.00  0.00    -0.206 F 
HETATM   35  C   UNL     1      15.490  52.684  48.707  1.00  0.00     0.042 A 
HETATM   36  C   UNL     1      16.380  52.930  49.747  1.00  0.00     0.005 A 
HETATM   37  C   UNL     1      17.521  52.133  49.888  1.00  0.00     0.030 A 
ENDBRANCH  27  31
ENDBRANCH  24  25
ENDBRANCH   4  24
TORSDOF 7
ENDMDL
MODEL 5
REMARK VINA RESULT:      -9.7      2.499      6.555
REMARK  7 active torsions:
REMARK  status: ('A' for Active; 'I' for Inactive)
REMARK    1  A    between atoms: C_5  and  N_6 
REMARK    2  A    between atoms: C_7  and  S_8 
REMARK    3  A    between atoms: S_8  and  C_9 
REMARK    4  A    between atoms: C_9  and  C_10 
REMARK       I    between atoms: C_10  and  N_11 
REMARK    5  A    between atoms: C_13  and  C_14 
REMARK    6  A    between atoms: C_14  and  N_15 
REMARK       I    between atoms: N_15  and  C_16 
REMARK       I    between atoms: C_16  and  N_17 
REMARK    7  A    between atoms: N_17  and  C_18 
ROOT
HETATM    1  C   UNL     1      24.162  44.073  49.462  1.00  0.00     0.229 C 
HETATM    2  N   UNL     1      24.529  45.011  50.429  1.00  0.00    -0.351 N 
HETATM    3  C   UNL     1      24.626  44.730  51.862  1.00  0.00     0.132 C 
HETATM    4  C   UNL     1      25.802  45.482  52.503  1.00  0.00     0.021 C 
HETATM    5  C   UNL     1      25.679  46.984  52.205  1.00  0.00     0.009 C 
HETATM    6  C   UNL     1      25.536  47.264  50.708  1.00  0.00     0.020 C 
HETATM    7  C   UNL     1      24.430  46.426  50.074  1.00  0.00     0.126 C 
HETATM    8  O   UNL     1      24.173  44.358  48.259  1.00  0.00    -0.273 OA
ENDROOT
BRANCH   1   9
HETATM    9  C   UNL     1      23.823  42.650  49.888  1.00  0.00     0.185 C 
BRANCH   9  10
HETATM   10  S   UNL     1      24.513  41.398  48.765  1.00  0.00    -0.082 SA
BRANCH  10  11
HETATM   11  C   UNL     1      26.024  41.071  49.555  1.00  0.00     0.173 A 
HETATM   12  N   UNL     1      27.082  40.388  48.975  1.00  0.00    -0.299 N 
HETATM   13  C   UNL     1      27.973  40.156  50.006  1.00  0.00     0.118 A 
HETATM   14  C   UNL     1      27.431  40.751  51.120  1.00  0.00     0.137 A 
HETATM   15  N   UNL     1      26.228  41.328  50.828  1.00  0.00    -0.235 NA
BRANCH  12  16
HETATM   16  C   UNL     1      27.315  40.073  47.606  1.00  0.00     0.047 A 
HETATM   17  C   UNL     1      27.064  38.781  47.080  1.00  0.00    -0.029 A 
HETATM   18  C   UNL     1      27.471  38.503  45.751  1.00  0.00    -0.054 A 
HETATM   19  C   UNL     1      26.344  37.715  47.871  1.00  0.00     0.051 C 
HETATM   20  C   UNL     1      27.269  37.149  45.119  1.00  0.00     0.049 C 
HETATM   21  C   UNL     1      28.036  39.520  44.965  1.00  0.00     0.007 A 
HETATM   22  C   UNL     1      28.235  40.795  45.482  1.00  0.00     0.003 A 
HETATM   23  C   UNL     1      27.885  41.071  46.799  1.00  0.00     0.030 A 
ENDBRANCH  12  16
ENDBRANCH  10  11
ENDBRANCH   9  10
ENDBRANCH   1   9
BRANCH   4  24
HETATM   24  C   UNL     1      27.167  44.938  52.038  1.00  0.00     0.130 C 
BRANCH  24  25
HETATM   25  N   UNL     1      27.534  43.708  52.721  1.00  0.00    -0.342 N 
HETATM   26  C   UNL     1      28.311  43.474  53.817  1.00  0.00     0.320 C 
HETATM   27  N   UNL     1      28.791  44.572  54.472  1.00  0.00    -0.309 N 
HETATM   28  O   UNL     1      28.519  42.303  54.114  1.00  0.00    -0.247 OA
HETATM   29  H   UNL     1      28.426  45.466  54.187  1.00  0.00     0.170 HD
HETATM   30  H   UNL     1      27.193  42.839  52.328  1.00  0.00     0.164 HD
BRANCH  27  31
HETATM   31  C   UNL     1      29.636  44.603  55.603  1.00  0.00     0.039 A 
HETATM   32  C   UNL     1      30.661  43.686  55.838  1.00  0.00     0.071 A 
HETATM   33  C   UNL     1      31.438  43.797  56.990  1.00  0.00     0.118 A 
HETATM   34  F   UNL     1      32.421  42.912  57.208  1.00  0.00    -0.206 F 
HETATM   35  C   UNL     1      31.214  44.805  57.919  1.00  0.00     0.042 A 
HETATM   36  C   UNL     1      30.200  45.729  57.691  1.00  0.00     0.005 A 
HETATM   37  C   UNL     1      29.419  45.630  56.534  1.00  0.00     0.030 A 
ENDBRANCH  27  31
ENDBRANCH  24  25
ENDBRANCH   4  24
TORSDOF 7
ENDMDL
MODEL 6
REMARK VINA RESULT:      -9.6      2.198      4.438
REMARK  7 active torsions:
REMARK  status: ('A' for Active; 'I' for Inactive)
REMARK    1  A    between atoms: C_5  and  N_6 
REMARK    2  A    between atoms: C_7  and  S_8 
REMARK    3  A    between atoms: S_8  and  C_9 
REMARK    4  A    between atoms: C_9  and  C_10 
REMARK       I    between atoms: C_10  and  N_11 
REMARK    5  A    between atoms: C_13  and  C_14 
REMARK    6  A    between atoms: C_14  and  N_15 
REMARK       I    between atoms: N_15  and  C_16 
REMARK       I    between atoms: C_16  and  N_17 
REMARK    7  A    between atoms: N_17  and  C_18 
ROOT
HETATM    1  C   UNL     1      23.511  45.661  49.005  1.00  0.00     0.229 C 
HETATM    2  N   UNL     1      24.662  44.911  49.256  1.00  0.00    -0.351 N 
HETATM    3  C   UNL     1      25.968  45.482  49.585  1.00  0.00     0.132 C 
HETATM    4  C   UNL     1      26.711  44.627  50.621  1.00  0.00     0.021 C 
HETATM    5  C   UNL     1      26.812  43.178  50.118  1.00  0.00     0.009 C 
HETATM    6  C   UNL     1      25.446  42.604  49.738  1.00  0.00     0.020 C 
HETATM    7  C   UNL     1      24.684  43.525  48.789  1.00  0.00     0.126 C 
HETATM    8  O   UNL     1      22.421  45.111  48.806  1.00  0.00    -0.273 OA
ENDROOT
BRANCH   1   9
HETATM    9  C   UNL     1      23.580  47.182  49.058  1.00  0.00     0.185 C 
BRANCH   9  10
HETATM   10  S   UNL     1      22.362  47.979  47.969  1.00  0.00    -0.082 SA
BRANCH  10  11
HETATM   11  C   UNL     1      21.919  49.345  48.945  1.00  0.00     0.173 A 
HETATM   12  N   UNL     1      20.699  49.998  48.874  1.00  0.00    -0.299 N 
HETATM   13  C   UNL     1      20.854  51.140  49.638  1.00  0.00     0.118 A 
HETATM   14  C   UNL     1      22.123  51.081  50.159  1.00  0.00     0.137 A 
HETATM   15  N   UNL     1      22.773  49.957  49.735  1.00  0.00    -0.235 NA
BRANCH  12  16
HETATM   16  C   UNL     1      19.480  49.579  48.267  1.00  0.00     0.047 A 
HETATM   17  C   UNL     1      18.583  48.697  48.918  1.00  0.00    -0.029 A 
HETATM   18  C   UNL     1      17.473  48.202  48.187  1.00  0.00    -0.054 A 
HETATM   19  C   UNL     1      18.747  48.304  50.367  1.00  0.00     0.051 C 
HETATM   20  C   UNL     1      16.483  47.239  48.790  1.00  0.00     0.049 C 
HETATM   21  C   UNL     1      17.244  48.650  46.876  1.00  0.00     0.007 A 
HETATM   22  C   UNL     1      18.110  49.552  46.267  1.00  0.00     0.003 A 
HETATM   23  C   UNL     1      19.229  50.009  46.954  1.00  0.00     0.030 A 
ENDBRANCH  12  16
ENDBRANCH  10  11
ENDBRANCH   9  10
ENDBRANCH   1   9
BRANCH   4  24
HETATM   24  C   UNL     1      26.045  44.681  52.010  1.00  0.00     0.130 C 
BRANCH  24  25
HETATM   25  N   UNL     1      26.360  43.514  52.819  1.00  0.00    -0.342 N 
HETATM   26  C   UNL     1      27.306  43.301  53.777  1.00  0.00     0.320 C 
HETATM   27  N   UNL     1      28.073  44.376  54.129  1.00  0.00    -0.309 N 
HETATM   28  O   UNL     1      27.395  42.166  54.232  1.00  0.00    -0.247 OA
HETATM   29  H   UNL     1      27.793  45.271  53.765  1.00  0.00     0.170 HD
HETATM   30  H   UNL     1      25.817  42.674  52.654  1.00  0.00     0.164 HD
BRANCH  27  31
HETATM   31  C   UNL     1      29.132  44.412  55.062  1.00  0.00     0.039 A 
HETATM   32  C   UNL     1      29.293  45.411  56.023  1.00  0.00     0.071 A 
HETATM   33  C   UNL     1      30.378  45.361  56.898  1.00  0.00     0.118 A 
HETATM   34  F   UNL     1      30.525  46.324  57.818  1.00  0.00    -0.206 F 
HETATM   35  C   UNL     1      31.312  44.335  56.834  1.00  0.00     0.042 A 
HETATM   36  C   UNL     1      31.157  43.331  55.884  1.00  0.00     0.005 A 
HETATM   37  C   UNL     1      30.067  43.368  55.007  1.00  0.00     0.030 A 
ENDBRANCH  27  31
ENDBRANCH  24  25
ENDBRANCH   4  24
TORSDOF 7
ENDMDL
MODEL 7
REMARK VINA RESULT:      -9.6      4.722      8.602
REMARK  7 active torsions:
REMARK  status: ('A' for Active; 'I' for Inactive)
REMARK    1  A    between atoms: C_5  and  N_6 
REMARK    2  A    between atoms: C_7  and  S_8 
REMARK    3  A    between atoms: S_8  and  C_9 
REMARK    4  A    between atoms: C_9  and  C_10 
REMARK       I    between atoms: C_10  and  N_11 
REMARK    5  A    between atoms: C_13  and  C_14 
REMARK    6  A    between atoms: C_14  and  N_15 
REMARK       I    between atoms: N_15  and  C_16 
REMARK       I    between atoms: C_16  and  N_17 
REMARK    7  A    between atoms: N_17  and  C_18 
ROOT
HETATM    1  C   UNL     1      23.136  43.945  49.895  1.00  0.00     0.229 C 
HETATM    2  N   UNL     1      24.224  44.707  50.323  1.00  0.00    -0.351 N 
HETATM    3  C   UNL     1      25.102  45.471  49.436  1.00  0.00     0.132 C 
HETATM    4  C   UNL     1      25.534  46.797  50.079  1.00  0.00     0.021 C 
HETATM    5  C   UNL     1      26.176  46.522  51.448  1.00  0.00     0.009 C 
HETATM    6  C   UNL     1      25.267  45.688  52.352  1.00  0.00     0.020 C 
HETATM    7  C   UNL     1      24.767  44.427  51.652  1.00  0.00     0.126 C 
HETATM    8  O   UNL     1      22.390  43.384  50.706  1.00  0.00    -0.273 OA
ENDROOT
BRANCH   1   9
HETATM    9  C   UNL     1      22.811  43.870  48.408  1.00  0.00     0.185 C 
BRANCH   9  10
HETATM   10  S   UNL     1      21.717  45.215  47.860  1.00  0.00    -0.082 SA
BRANCH  10  11
HETATM   11  C   UNL     1      20.677  44.346  46.773  1.00  0.00     0.173 A 
HETATM   12  N   UNL     1      19.336  44.633  46.573  1.00  0.00    -0.299 N 
HETATM   13  C   UNL     1      18.848  43.578  45.823  1.00  0.00     0.118 A 
HETATM   14  C   UNL     1      19.921  42.758  45.575  1.00  0.00     0.137 A 
HETATM   15  N   UNL     1      21.056  43.249  46.157  1.00  0.00    -0.235 NA
BRANCH  12  16
HETATM   16  C   UNL     1      18.595  45.795  46.929  1.00  0.00     0.047 A 
HETATM   17  C   UNL     1      18.756  47.027  46.247  1.00  0.00    -0.029 A 
HETATM   18  C   UNL     1      18.102  48.174  46.761  1.00  0.00    -0.054 A 
HETATM   19  C   UNL     1      19.562  47.144  44.975  1.00  0.00     0.051 C 
HETATM   20  C   UNL     1      18.239  49.530  46.117  1.00  0.00     0.049 C 
HETATM   21  C   UNL     1      17.256  48.056  47.876  1.00  0.00     0.007 A 
HETATM   22  C   UNL     1      17.073  46.831  48.507  1.00  0.00     0.003 A 
HETATM   23  C   UNL     1      17.744  45.705  48.044  1.00  0.00     0.030 A 
ENDBRANCH  12  16
ENDBRANCH  10  11
ENDBRANCH   9  10
ENDBRANCH   1   9
BRANCH   4  24
HETATM   24  C   UNL     1      24.364  47.792  50.210  1.00  0.00     0.130 C 
BRANCH  24  25
HETATM   25  N   UNL     1      23.763  48.110  48.924  1.00  0.00    -0.342 N 
HETATM   26  C   UNL     1      22.636  48.802  48.594  1.00  0.00     0.320 C 
HETATM   27  N   UNL     1      21.956  49.389  49.623  1.00  0.00    -0.309 N 
HETATM   28  O   UNL     1      22.325  48.831  47.408  1.00  0.00    -0.247 OA
HETATM   29  H   UNL     1      22.406  49.390  50.523  1.00  0.00     0.170 HD
HETATM   30  H   UNL     1      24.219  47.746  48.095  1.00  0.00     0.164 HD
BRANCH  27  31
HETATM   31  C   UNL     1      20.754  50.128  49.554  1.00  0.00     0.039 A 
HETATM   32  C   UNL     1      20.600  51.304  48.820  1.00  0.00     0.071 A 
HETATM   33  C   UNL     1      19.373  51.965  48.820  1.00  0.00     0.118 A 
HETATM   34  F   UNL     1      19.234  53.093  48.111  1.00  0.00    -0.206 F 
HETATM   35  C   UNL     1      18.290  51.478  49.541  1.00  0.00     0.042 A 
HETATM   36  C   UNL     1      18.430  50.302  50.270  1.00  0.00     0.005 A 
HETATM   37  C   UNL     1      19.656  49.628  50.271  1.00  0.00     0.030 A 
ENDBRANCH  27  31
ENDBRANCH  24  25
ENDBRANCH   4  24
TORSDOF 7
ENDMDL
MODEL 8
REMARK VINA RESULT:      -9.5      2.730      4.595
REMARK  7 active torsions:
REMARK  status: ('A' for Active; 'I' for Inactive)
REMARK    1  A    between atoms: C_5  and  N_6 
REMARK    2  A    between atoms: C_7  and  S_8 
REMARK    3  A    between atoms: S_8  and  C_9 
REMARK    4  A    between atoms: C_9  and  C_10 
REMARK       I    between atoms: C_10  and  N_11 
REMARK    5  A    between atoms: C_13  and  C_14 
REMARK    6  A    between atoms: C_14  and  N_15 
REMARK       I    between atoms: N_15  and  C_16 
REMARK       I    between atoms: C_16  and  N_17 
REMARK    7  A    between atoms: N_17  and  C_18 
ROOT
HETATM    1  C   UNL     1      23.059  45.323  48.799  1.00  0.00     0.229 C 
HETATM    2  N   UNL     1      24.364  45.257  49.290  1.00  0.00    -0.351 N 
HETATM    3  C   UNL     1      25.189  46.421  49.612  1.00  0.00     0.132 C 
HETATM    4  C   UNL     1      26.054  46.170  50.856  1.00  0.00     0.021 C 
HETATM    5  C   UNL     1      26.889  44.894  50.657  1.00  0.00     0.009 C 
HETATM    6  C   UNL     1      26.021  43.693  50.280  1.00  0.00     0.020 C 
HETATM    7  C   UNL     1      25.094  44.003  49.107  1.00  0.00     0.126 C 
HETATM    8  O   UNL     1      22.391  44.298  48.619  1.00  0.00    -0.273 OA
ENDROOT
BRANCH   1   9
HETATM    9  C   UNL     1      22.416  46.683  48.560  1.00  0.00     0.185 C 
BRANCH   9  10
HETATM   10  S   UNL     1      20.620  46.671  48.843  1.00  0.00    -0.082 SA
BRANCH  10  11
HETATM   11  C   UNL     1      20.055  47.154  47.273  1.00  0.00     0.173 A 
HETATM   12  N   UNL     1      19.435  48.364  47.000  1.00  0.00    -0.299 N 
HETATM   13  C   UNL     1      18.953  48.241  45.710  1.00  0.00     0.118 A 
HETATM   14  C   UNL     1      19.351  47.002  45.270  1.00  0.00     0.137 A 
HETATM   15  N   UNL     1      20.046  46.339  46.242  1.00  0.00    -0.235 NA
BRANCH  12  16
HETATM   16  C   UNL     1      19.380  49.551  47.784  1.00  0.00     0.047 A 
HETATM   17  C   UNL     1      18.199  49.949  48.460  1.00  0.00    -0.029 A 
HETATM   18  C   UNL     1      18.177  51.220  49.087  1.00  0.00    -0.054 A 
HETATM   19  C   UNL     1      16.990  49.051  48.569  1.00  0.00     0.051 C 
HETATM   20  C   UNL     1      16.956  51.737  49.804  1.00  0.00     0.049 C 
HETATM   21  C   UNL     1      19.333  52.018  49.094  1.00  0.00     0.007 A 
HETATM   22  C   UNL     1      20.498  51.592  48.464  1.00  0.00     0.003 A 
HETATM   23  C   UNL     1      20.521  50.368  47.804  1.00  0.00     0.030 A 
ENDBRANCH  12  16
ENDBRANCH  10  11
ENDBRANCH   9  10
ENDBRANCH   1   9
BRANCH   4  24
HETATM   24  C   UNL     1      25.214  46.082  52.145  1.00  0.00     0.130 C 
BRANCH  24  25
HETATM   25  N   UNL     1      25.720  46.951  53.195  1.00  0.00    -0.342 N 
HETATM   26  C   UNL     1      26.740  46.801  54.087  1.00  0.00     0.320 C 
HETATM   27  N   UNL     1      27.504  45.676  53.957  1.00  0.00    -0.309 N 
HETATM   28  O   UNL     1      26.879  47.680  54.931  1.00  0.00    -0.247 OA
HETATM   29  H   UNL     1      27.351  45.115  53.136  1.00  0.00     0.170 HD
HETATM   30  H   UNL     1      25.237  47.830  53.343  1.00  0.00     0.164 HD
BRANCH  27  31
HETATM   31  C   UNL     1      28.590  45.271  54.765  1.00  0.00     0.039 A 
HETATM   32  C   UNL     1      29.080  46.008  55.843  1.00  0.00     0.071 A 
HETATM   33  C   UNL     1      30.162  45.526  56.577  1.00  0.00     0.118 A 
HETATM   34  F   UNL     1      30.625  46.240  57.612  1.00  0.00    -0.206 F 
HETATM   35  C   UNL     1      30.772  44.320  56.258  1.00  0.00     0.042 A 
HETATM   36  C   UNL     1      30.287  43.573  55.190  1.00  0.00     0.005 A 
HETATM   37  C   UNL     1      29.197  44.045  54.451  1.00  0.00     0.030 A 
ENDBRANCH  27  31
ENDBRANCH  24  25
ENDBRANCH   4  24
TORSDOF 7
ENDMDL
MODEL 9
REMARK VINA RESULT:      -9.5      2.951      4.826
REMARK  7 active torsions:
REMARK  status: ('A' for Active; 'I' for Inactive)
REMARK    1  A    between atoms: C_5  and  N_6 
REMARK    2  A    between atoms: C_7  and  S_8 
REMARK    3  A    between atoms: S_8  and  C_9 
REMARK    4  A    between atoms: C_9  and  C_10 
REMARK       I    between atoms: C_10  and  N_11 
REMARK    5  A    between atoms: C_13  and  C_14 
REMARK    6  A    between atoms: C_14  and  N_15 
REMARK       I    between atoms: N_15  and  C_16 
REMARK       I    between atoms: C_16  and  N_17 
REMARK    7  A    between atoms: N_17  and  C_18 
ROOT
HETATM    1  C   UNL     1      20.844  44.625  47.313  1.00  0.00     0.229 C 
HETATM    2  N   UNL     1      22.068  44.010  47.581  1.00  0.00    -0.351 N 
HETATM    3  C   UNL     1      23.355  44.704  47.616  1.00  0.00     0.132 C 
HETATM    4  C   UNL     1      24.267  44.144  48.717  1.00  0.00     0.021 C 
HETATM    5  C   UNL     1      24.421  42.625  48.537  1.00  0.00     0.009 C 
HETATM    6  C   UNL     1      23.069  41.914  48.461  1.00  0.00     0.020 C 
HETATM    7  C   UNL     1      22.143  42.557  47.433  1.00  0.00     0.126 C 
HETATM    8  O   UNL     1      19.783  43.992  47.375  1.00  0.00    -0.273 OA
ENDROOT
BRANCH   1   9
HETATM    9  C   UNL     1      20.804  46.120  47.021  1.00  0.00     0.185 C 
BRANCH   9  10
HETATM   10  S   UNL     1      20.413  47.113  48.493  1.00  0.00    -0.082 SA
BRANCH  10  11
HETATM   11  C   UNL     1      21.703  48.274  48.437  1.00  0.00     0.173 A 
HETATM   12  N   UNL     1      21.556  49.590  48.026  1.00  0.00    -0.299 N 
HETATM   13  C   UNL     1      22.845  50.080  47.917  1.00  0.00     0.118 A 
HETATM   14  C   UNL     1      23.676  49.061  48.313  1.00  0.00     0.137 A 
HETATM   15  N   UNL     1      22.958  47.947  48.647  1.00  0.00    -0.235 NA
BRANCH  12  16
HETATM   16  C   UNL     1      20.371  50.360  47.856  1.00  0.00     0.047 A 
HETATM   17  C   UNL     1      19.755  51.038  48.937  1.00  0.00    -0.029 A 
HETATM   18  C   UNL     1      18.495  51.650  48.720  1.00  0.00    -0.054 A 
HETATM   19  C   UNL     1      20.415  51.166  50.289  1.00  0.00     0.051 C 
HETATM   20  C   UNL     1      17.755  52.369  49.819  1.00  0.00     0.049 C 
HETATM   21  C   UNL     1      17.924  51.639  47.437  1.00  0.00     0.007 A 
HETATM   22  C   UNL     1      18.563  51.007  46.376  1.00  0.00     0.003 A 
HETATM   23  C   UNL     1      19.777  50.362  46.583  1.00  0.00     0.030 A 
ENDBRANCH  12  16
ENDBRANCH  10  11
ENDBRANCH   9  10
ENDBRANCH   1   9
BRANCH   4  24
HETATM   24  C   UNL     1      23.752  44.480  50.130  1.00  0.00     0.130 C 
BRANCH  24  25
HETATM   25  N   UNL     1      24.165  45.805  50.567  1.00  0.00    -0.342 N 
HETATM   26  C   UNL     1      25.040  46.212  51.530  1.00  0.00     0.320 C 
HETATM   27  N   UNL     1      25.739  45.231  52.175  1.00  0.00    -0.309 N 
HETATM   28  O   UNL     1      25.119  47.418  51.739  1.00  0.00    -0.247 OA
HETATM   29  H   UNL     1      25.664  44.300  51.802  1.00  0.00     0.170 HD
HETATM   30  H   UNL     1      23.725  46.600  50.119  1.00  0.00     0.164 HD
BRANCH  27  31
HETATM   31  C   UNL     1      26.674  45.384  53.223  1.00  0.00     0.039 A 
HETATM   32  C   UNL     1      26.626  46.406  54.171  1.00  0.00     0.071 A 
HETATM   33  C   UNL     1      27.600  46.475  55.165  1.00  0.00     0.118 A 
HETATM   34  F   UNL     1      27.546  47.460  56.072  1.00  0.00    -0.206 F 
HETATM   35  C   UNL     1      28.629  45.544  55.235  1.00  0.00     0.042 A 
HETATM   36  C   UNL     1      28.682  44.516  54.299  1.00  0.00     0.005 A 
HETATM   37  C   UNL     1      27.704  44.435  53.301  1.00  0.00     0.030 A 
ENDBRANCH  27  31
ENDBRANCH  24  25
ENDBRANCH   4  24
TORSDOF 7
ENDMDL
MODEL 10
REMARK VINA RESULT:      -9.4      1.698      2.575
REMARK  7 active torsions:
REMARK  status: ('A' for Active; 'I' for Inactive)
REMARK    1  A    between atoms: C_5  and  N_6 
REMARK    2  A    between atoms: C_7  and  S_8 
REMARK    3  A    between atoms: S_8  and  C_9 
REMARK    4  A    between atoms: C_9  and  C_10 
REMARK       I    between atoms: C_10  and  N_11 
REMARK    5  A    between atoms: C_13  and  C_14 
REMARK    6  A    between atoms: C_14  and  N_15 
REMARK       I    between atoms: N_15  and  C_16 
REMARK       I    between atoms: C_16  and  N_17 
REMARK    7  A    between atoms: N_17  and  C_18 
ROOT
HETATM    1  C   UNL     1      23.823  42.486  49.123  1.00  0.00     0.229 C 
HETATM    2  N   UNL     1      25.181  42.189  48.990  1.00  0.00    -0.351 N 
HETATM    3  C   UNL     1      26.267  43.026  49.501  1.00  0.00     0.132 C 
HETATM    4  C   UNL     1      27.427  42.175  50.037  1.00  0.00     0.021 C 
HETATM    5  C   UNL     1      27.899  41.199  48.947  1.00  0.00     0.009 C 
HETATM    6  C   UNL     1      26.749  40.359  48.390  1.00  0.00     0.020 C 
HETATM    7  C   UNL     1      25.566  41.222  47.962  1.00  0.00     0.126 C 
HETATM    8  O   UNL     1      22.955  41.696  48.733  1.00  0.00    -0.273 OA
ENDROOT
BRANCH   1   9
HETATM    9  C   UNL     1      23.401  43.764  49.837  1.00  0.00     0.185 C 
BRANCH   9  10
HETATM   10  S   UNL     1      24.261  45.237  49.206  1.00  0.00    -0.082 SA
BRANCH  10  11
HETATM   11  C   UNL     1      24.758  45.970  50.700  1.00  0.00     0.173 A 
HETATM   12  N   UNL     1      25.386  47.202  50.798  1.00  0.00    -0.299 N 
HETATM   13  C   UNL     1      25.802  47.292  52.114  1.00  0.00     0.118 A 
HETATM   14  C   UNL     1      25.361  46.148  52.733  1.00  0.00     0.137 A 
HETATM   15  N   UNL     1      24.701  45.339  51.851  1.00  0.00    -0.235 NA
BRANCH  12  16
HETATM   16  C   UNL     1      25.501  48.241  49.831  1.00  0.00     0.047 A 
HETATM   17  C   UNL     1      24.364  48.860  49.255  1.00  0.00    -0.029 A 
HETATM   18  C   UNL     1      24.560  49.771  48.187  1.00  0.00    -0.054 A 
HETATM   19  C   UNL     1      22.966  48.614  49.769  1.00  0.00     0.051 C 
HETATM   20  C   UNL     1      23.408  50.455  47.497  1.00  0.00     0.049 C 
HETATM   21  C   UNL     1      25.863  50.097  47.776  1.00  0.00     0.007 A 
HETATM   22  C   UNL     1      26.970  49.514  48.382  1.00  0.00     0.003 A 
HETATM   23  C   UNL     1      26.793  48.583  49.399  1.00  0.00     0.030 A 
ENDBRANCH  12  16
ENDBRANCH  10  11
ENDBRANCH   9  10
ENDBRANCH   1   9
BRANCH   4  24
HETATM   24  C   UNL     1      27.051  41.419  51.327  1.00  0.00     0.130 C 
BRANCH  24  25
HETATM   25  N   UNL     1      26.463  42.294  52.329  1.00  0.00    -0.342 N 
HETATM   26  C   UNL     1      27.015  42.990  53.363  1.00  0.00     0.320 C 
HETATM   27  N   UNL     1      28.376  42.951  53.470  1.00  0.00    -0.309 N 
HETATM   28  O   UNL     1      26.245  43.583  54.110  1.00  0.00    -0.247 OA
HETATM   29  H   UNL     1      28.879  42.533  52.705  1.00  0.00     0.170 HD
HETATM   30  H   UNL     1      25.457  42.415  52.307  1.00  0.00     0.164 HD
BRANCH  27  31
HETATM   31  C   UNL     1      29.183  43.554  54.459  1.00  0.00     0.039 A 
HETATM   32  C   UNL     1      30.251  42.919  55.092  1.00  0.00     0.071 A 
HETATM   33  C   UNL     1      30.985  43.598  56.062  1.00  0.00     0.118 A 
HETATM   34  F   UNL     1      32.011  42.980  56.664  1.00  0.00    -0.206 F 
HETATM   35  C   UNL     1      30.674  44.903  56.422  1.00  0.00     0.042 A 
HETATM   36  C   UNL     1      29.615  45.549  55.793  1.00  0.00     0.005 A 
HETATM   37  C   UNL     1      28.877  44.878  54.812  1.00  0.00     0.030 A 
ENDBRANCH  27  31
ENDBRANCH  24  25
ENDBRANCH   4  24
TORSDOF 7
ENDMDL
