MODEL 1
REMARK VINA RESULT:      -9.0      0.000      0.000
REMARK  6 active torsions:
REMARK  status: ('A' for Active; 'I' for Inactive)
REMARK    1  A    between atoms: C_2  and  O_3 
REMARK    2  A    between atoms: O_3  and  C_4 
REMARK    3  A    between atoms: C_7  and  N_8 
REMARK    4  A    between atoms: C_11  and  N_12 
REMARK    5  A    between atoms: C_16  and  O_17 
REMARK    6  A    between atoms: C_16  and  C_18 
ROOT
HETATM    1  N   UNL     1      24.270  48.235  49.198  1.00  0.00    -0.251 N 
HETATM    2  C   UNL     1      24.107  46.981  49.749  1.00  0.00     0.262 C 
HETATM    3  O   UNL     1      23.143  46.232  49.712  1.00  0.00    -0.270 OA
HETATM    4  C   UNL     1      25.394  46.630  50.473  1.00  0.00     0.289 C 
HETATM    5  C   UNL     1      26.409  47.396  49.657  1.00  0.00     0.146 C 
HETATM    6  C   UNL     1      25.606  48.572  49.181  1.00  0.00     0.233 C 
HETATM    7  O   UNL     1      26.156  49.606  48.842  1.00  0.00    -0.273 OA
ENDROOT
BRANCH   4   8
HETATM    8  N   UNL     1      25.786  45.129  50.602  1.00  0.00    -0.058 N 
HETATM    9  H   UNL     1      25.291  44.607  49.862  1.00  0.00     0.281 HD
HETATM   10  C   UNL     1      27.283  44.955  50.407  1.00  0.00     0.239 C 
HETATM   11  C   UNL     1      27.703  43.508  50.591  1.00  0.00     0.071 C 
HETATM   12  C   UNL     1      27.312  42.959  51.974  1.00  0.00     0.088 C 
HETATM   13  C   UNL     1      25.783  43.082  52.046  1.00  0.00     0.071 C 
HETATM   14  C   UNL     1      25.314  44.523  51.920  1.00  0.00     0.239 C 
BRANCH  12  15
HETATM   15  O   UNL     1      27.611  41.562  51.949  1.00  0.00    -0.385 OA
HETATM   16  H   UNL     1      28.433  41.408  51.449  1.00  0.00     0.211 HD
ENDBRANCH  12  15
BRANCH  12  17
HETATM   17  C   UNL     1      28.055  43.577  53.165  1.00  0.00    -0.024 A 
HETATM   18  C   UNL     1      27.446  44.561  53.970  1.00  0.00     0.011 A 
HETATM   19  C   UNL     1      28.114  45.136  55.057  1.00  0.00     0.020 A 
HETATM   20  C   UNL     1      29.398  44.715  55.381  1.00  0.00     0.011 A 
HETATM   21 BR   UNL     1      30.304  45.491  56.844  1.00  0.00    -0.051 Br
HETATM   22  C   UNL     1      30.008  43.713  54.638  1.00  0.00     0.020 A 
HETATM   23  C   UNL     1      29.337  43.140  53.549  1.00  0.00     0.011 A 
ENDBRANCH  12  17
ENDBRANCH   4   8
BRANCH   1  24
HETATM   24  C   UNL     1      23.202  49.073  48.745  1.00  0.00     0.045 A 
HETATM   25  C   UNL     1      22.145  48.560  47.974  1.00  0.00     0.033 A 
HETATM   26  C   UNL     1      21.051  49.356  47.611  1.00  0.00     0.039 A 
HETATM   27  C   UNL     1      20.973  50.683  48.016  1.00  0.00     0.068 A 
HETATM   28  C   UNL     1      22.029  51.230  48.731  1.00  0.00     0.039 A 
HETATM   29  C   UNL     1      23.129  50.433  49.090  1.00  0.00     0.033 A 
BRANCH  27  30
HETATM   30  O   UNL     1      19.836  51.342  47.646  1.00  0.00    -0.352 OA
BRANCH  30  31
HETATM   31  C   UNL     1      19.375  52.350  48.546  1.00  0.00     0.171 C 
HETATM   32  C   UNL     1      18.622  51.664  49.672  1.00  0.00     0.034 C 
ENDBRANCH  30  31
ENDBRANCH  27  30
ENDBRANCH   1  24
TORSDOF 6
ENDMDL
MODEL 2
REMARK VINA RESULT:      -8.6      6.794      9.683
REMARK  6 active torsions:
REMARK  status: ('A' for Active; 'I' for Inactive)
REMARK    1  A    between atoms: C_2  and  O_3 
REMARK    2  A    between atoms: O_3  and  C_4 
REMARK    3  A    between atoms: C_7  and  N_8 
REMARK    4  A    between atoms: C_11  and  N_12 
REMARK    5  A    between atoms: C_16  and  O_17 
REMARK    6  A    between atoms: C_16  and  C_18 
ROOT
HETATM    1  N   UNL     1      27.965  42.774  52.379  1.00  0.00    -0.251 N 
HETATM    2  C   UNL     1      28.243  41.424  52.408  1.00  0.00     0.262 C 
HETATM    3  O   UNL     1      28.407  40.681  53.364  1.00  0.00    -0.270 OA
HETATM    4  C   UNL     1      28.332  40.945  50.970  1.00  0.00     0.289 C 
HETATM    5  C   UNL     1      27.385  41.902  50.284  1.00  0.00     0.146 C 
HETATM    6  C   UNL     1      27.521  43.136  51.125  1.00  0.00     0.233 C 
HETATM    7  O   UNL     1      27.239  44.234  50.674  1.00  0.00    -0.273 OA
ENDROOT
BRANCH   4   8
HETATM    8  N   UNL     1      27.966  39.464  50.659  1.00  0.00    -0.058 N 
HETATM    9  H   UNL     1      27.776  38.989  51.554  1.00  0.00     0.281 HD
HETATM   10  C   UNL     1      26.718  39.398  49.794  1.00  0.00     0.239 C 
HETATM   11  C   UNL     1      26.375  37.968  49.421  1.00  0.00     0.071 C 
HETATM   12  C   UNL     1      27.529  37.264  48.686  1.00  0.00     0.088 C 
HETATM   13  C   UNL     1      28.713  37.289  49.665  1.00  0.00     0.071 C 
HETATM   14  C   UNL     1      29.130  38.705  50.028  1.00  0.00     0.239 C 
BRANCH  12  15
HETATM   15  O   UNL     1      27.141  35.896  48.547  1.00  0.00    -0.385 OA
HETATM   16  H   UNL     1      27.900  35.315  48.738  1.00  0.00     0.211 HD
ENDBRANCH  12  15
BRANCH  12  17
HETATM   17  C   UNL     1      27.851  37.805  47.288  1.00  0.00    -0.024 A 
HETATM   18  C   UNL     1      28.694  37.094  46.410  1.00  0.00     0.011 A 
HETATM   19  C   UNL     1      28.998  37.578  45.133  1.00  0.00     0.020 A 
HETATM   20  C   UNL     1      28.441  38.774  44.695  1.00  0.00     0.011 A 
HETATM   21 BR   UNL     1      28.853  39.432  42.975  1.00  0.00    -0.051 Br
HETATM   22  C   UNL     1      27.568  39.474  45.517  1.00  0.00     0.020 A 
HETATM   23  C   UNL     1      27.266  38.987  46.795  1.00  0.00     0.011 A 
ENDBRANCH  12  17
ENDBRANCH   4   8
BRANCH   1  24
HETATM   24  C   UNL     1      28.147  43.669  53.481  1.00  0.00     0.045 A 
HETATM   25  C   UNL     1      29.364  43.733  54.179  1.00  0.00     0.033 A 
HETATM   26  C   UNL     1      29.577  44.674  55.195  1.00  0.00     0.039 A 
HETATM   27  C   UNL     1      28.586  45.587  55.536  1.00  0.00     0.068 A 
HETATM   28  C   UNL     1      27.354  45.510  54.900  1.00  0.00     0.039 A 
HETATM   29  C   UNL     1      27.140  44.562  53.885  1.00  0.00     0.033 A 
BRANCH  27  30
HETATM   30  O   UNL     1      28.928  46.487  56.503  1.00  0.00    -0.352 OA
BRANCH  30  31
HETATM   31  C   UNL     1      29.026  45.973  57.832  1.00  0.00     0.171 C 
HETATM   32  C   UNL     1      30.477  46.076  58.267  1.00  0.00     0.034 C 
ENDBRANCH  30  31
ENDBRANCH  27  30
ENDBRANCH   1  24
TORSDOF 6
ENDMDL
MODEL 3
REMARK VINA RESULT:      -8.4      3.716      9.630
REMARK  6 active torsions:
REMARK  status: ('A' for Active; 'I' for Inactive)
REMARK    1  A    between atoms: C_2  and  O_3 
REMARK    2  A    between atoms: O_3  and  C_4 
REMARK    3  A    between atoms: C_7  and  N_8 
REMARK    4  A    between atoms: C_11  and  N_12 
REMARK    5  A    between atoms: C_16  and  O_17 
REMARK    6  A    between atoms: C_16  and  C_18 
ROOT
HETATM    1  N   UNL     1      24.780  45.295  50.782  1.00  0.00    -0.251 N 
HETATM    2  C   UNL     1      23.995  44.600  49.886  1.00  0.00     0.262 C 
HETATM    3  O   UNL     1      23.652  43.428  49.894  1.00  0.00    -0.270 OA
HETATM    4  C   UNL     1      23.584  45.569  48.792  1.00  0.00     0.289 C 
HETATM    5  C   UNL     1      23.570  46.877  49.549  1.00  0.00     0.146 C 
HETATM    6  C   UNL     1      24.630  46.651  50.586  1.00  0.00     0.233 C 
HETATM    7  O   UNL     1      25.193  47.593  51.119  1.00  0.00    -0.273 OA
ENDROOT
BRANCH   4   8
HETATM    8  N   UNL     1      22.234  45.326  48.055  1.00  0.00    -0.058 N 
HETATM    9  H   UNL     1      22.294  44.414  47.577  1.00  0.00     0.281 HD
HETATM   10  C   UNL     1      21.088  45.282  49.053  1.00  0.00     0.239 C 
HETATM   11  C   UNL     1      19.751  45.110  48.356  1.00  0.00     0.071 C 
HETATM   12  C   UNL     1      19.479  46.225  47.332  1.00  0.00     0.088 C 
HETATM   13  C   UNL     1      20.626  46.134  46.313  1.00  0.00     0.071 C 
HETATM   14  C   UNL     1      21.986  46.354  46.956  1.00  0.00     0.239 C 
BRANCH  12  15
HETATM   15  O   UNL     1      18.286  45.853  46.640  1.00  0.00    -0.385 OA
HETATM   16  H   UNL     1      17.516  46.285  47.053  1.00  0.00     0.211 HD
ENDBRANCH  12  15
BRANCH  12  17
HETATM   17  C   UNL     1      19.264  47.625  47.920  1.00  0.00    -0.024 A 
HETATM   18  C   UNL     1      19.373  48.777  47.114  1.00  0.00     0.011 A 
HETATM   19  C   UNL     1      19.182  50.060  47.639  1.00  0.00     0.020 A 
HETATM   20  C   UNL     1      18.849  50.217  48.978  1.00  0.00     0.011 A 
HETATM   21 BR   UNL     1      18.596  51.946  49.691  1.00  0.00    -0.051 Br
HETATM   22  C   UNL     1      18.686  49.100  49.789  1.00  0.00     0.020 A 
HETATM   23  C   UNL     1      18.878  47.817  49.260  1.00  0.00     0.011 A 
ENDBRANCH  12  17
ENDBRANCH   4   8
BRANCH   1  24
HETATM   24  C   UNL     1      25.649  44.691  51.746  1.00  0.00     0.045 A 
HETATM   25  C   UNL     1      26.941  44.262  51.399  1.00  0.00     0.033 A 
HETATM   26  C   UNL     1      27.827  43.758  52.361  1.00  0.00     0.039 A 
HETATM   27  C   UNL     1      27.454  43.680  53.698  1.00  0.00     0.068 A 
HETATM   28  C   UNL     1      26.165  44.047  54.058  1.00  0.00     0.039 A 
HETATM   29  C   UNL     1      25.275  44.546  53.092  1.00  0.00     0.033 A 
BRANCH  27  30
HETATM   30  O   UNL     1      28.419  43.223  54.548  1.00  0.00    -0.352 OA
BRANCH  30  31
HETATM   31  C   UNL     1      29.494  44.125  54.819  1.00  0.00     0.171 C 
HETATM   32  C   UNL     1      30.618  43.333  55.463  1.00  0.00     0.034 C 
ENDBRANCH  30  31
ENDBRANCH  27  30
ENDBRANCH   1  24
TORSDOF 6
ENDMDL
MODEL 4
REMARK VINA RESULT:      -8.3      3.992      9.886
REMARK  6 active torsions:
REMARK  status: ('A' for Active; 'I' for Inactive)
REMARK    1  A    between atoms: C_2  and  O_3 
REMARK    2  A    between atoms: O_3  and  C_4 
REMARK    3  A    between atoms: C_7  and  N_8 
REMARK    4  A    between atoms: C_11  and  N_12 
REMARK    5  A    between atoms: C_16  and  O_17 
REMARK    6  A    between atoms: C_16  and  C_18 
ROOT
HETATM    1  N   UNL     1      24.029  46.248  49.589  1.00  0.00    -0.251 N 
HETATM    2  C   UNL     1      23.133  45.510  48.845  1.00  0.00     0.262 C 
HETATM    3  O   UNL     1      22.913  44.308  48.856  1.00  0.00    -0.270 OA
HETATM    4  C   UNL     1      22.398  46.472  47.929  1.00  0.00     0.289 C 
HETATM    5  C   UNL     1      22.430  47.740  48.749  1.00  0.00     0.146 C 
HETATM    6  C   UNL     1      23.711  47.587  49.515  1.00  0.00     0.233 C 
HETATM    7  O   UNL     1      24.287  48.562  49.969  1.00  0.00    -0.273 OA
ENDROOT
BRANCH   4   8
HETATM    8  N   UNL     1      20.947  46.116  47.490  1.00  0.00    -0.058 N 
HETATM    9  H   UNL     1      20.970  45.186  47.045  1.00  0.00     0.281 HD
HETATM   10  C   UNL     1      20.029  46.059  48.700  1.00  0.00     0.239 C 
HETATM   11  C   UNL     1      18.594  45.776  48.295  1.00  0.00     0.071 C 
HETATM   12  C   UNL     1      18.051  46.822  47.305  1.00  0.00     0.088 C 
HETATM   13  C   UNL     1      18.975  46.744  46.080  1.00  0.00     0.071 C 
HETATM   14  C   UNL     1      20.418  47.072  46.425  1.00  0.00     0.239 C 
BRANCH  12  15
HETATM   15  O   UNL     1      16.771  46.348  46.884  1.00  0.00    -0.385 OA
HETATM   16  H   UNL     1      16.572  46.681  45.990  1.00  0.00     0.211 HD
ENDBRANCH  12  15
BRANCH  12  17
HETATM   17  C   UNL     1      17.866  48.235  47.871  1.00  0.00    -0.024 A 
HETATM   18  C   UNL     1      18.142  48.518  49.225  1.00  0.00     0.011 A 
HETATM   19  C   UNL     1      17.975  49.802  49.754  1.00  0.00     0.020 A 
HETATM   20  C   UNL     1      17.554  50.840  48.932  1.00  0.00     0.011 A 
HETATM   21 BR   UNL     1      17.322  52.573  49.644  1.00  0.00    -0.051 Br
HETATM   22  C   UNL     1      17.321  50.606  47.583  1.00  0.00     0.020 A 
HETATM   23  C   UNL     1      17.489  49.319  47.056  1.00  0.00     0.011 A 
ENDBRANCH  12  17
ENDBRANCH   4   8
BRANCH   1  24
HETATM   24  C   UNL     1      25.144  45.702  50.302  1.00  0.00     0.045 A 
HETATM   25  C   UNL     1      25.173  45.678  51.706  1.00  0.00     0.033 A 
HETATM   26  C   UNL     1      26.218  45.059  52.405  1.00  0.00     0.039 A 
HETATM   27  C   UNL     1      27.257  44.435  51.724  1.00  0.00     0.068 A 
HETATM   28  C   UNL     1      27.280  44.493  50.337  1.00  0.00     0.039 A 
HETATM   29  C   UNL     1      26.235  45.119  49.637  1.00  0.00     0.033 A 
BRANCH  27  30
HETATM   30  O   UNL     1      28.187  43.822  52.511  1.00  0.00    -0.352 OA
BRANCH  30  31
HETATM   31  C   UNL     1      27.951  43.876  53.919  1.00  0.00     0.171 C 
HETATM   32  C   UNL     1      29.292  43.777  54.623  1.00  0.00     0.034 C 
ENDBRANCH  30  31
ENDBRANCH  27  30
ENDBRANCH   1  24
TORSDOF 6
ENDMDL
MODEL 5
REMARK VINA RESULT:      -8.1      4.063      9.420
REMARK  6 active torsions:
REMARK  status: ('A' for Active; 'I' for Inactive)
REMARK    1  A    between atoms: C_2  and  O_3 
REMARK    2  A    between atoms: O_3  and  C_4 
REMARK    3  A    between atoms: C_7  and  N_8 
REMARK    4  A    between atoms: C_11  and  N_12 
REMARK    5  A    between atoms: C_16  and  O_17 
REMARK    6  A    between atoms: C_16  and  C_18 
ROOT
HETATM    1  N   UNL     1      26.769  45.482  53.145  1.00  0.00    -0.251 N 
HETATM    2  C   UNL     1      26.590  44.493  52.201  1.00  0.00     0.262 C 
HETATM    3  O   UNL     1      26.946  43.324  52.218  1.00  0.00    -0.270 OA
HETATM    4  C   UNL     1      25.834  45.105  51.036  1.00  0.00     0.289 C 
HETATM    5  C   UNL     1      25.027  46.172  51.738  1.00  0.00     0.146 C 
HETATM    6  C   UNL     1      25.923  46.539  52.885  1.00  0.00     0.233 C 
HETATM    7  O   UNL     1      25.819  47.621  53.436  1.00  0.00    -0.273 OA
ENDROOT
BRANCH   4   8
HETATM    8  N   UNL     1      24.923  44.180  50.176  1.00  0.00    -0.058 N 
HETATM    9  H   UNL     1      25.352  43.242  50.155  1.00  0.00     0.281 HD
HETATM   10  C   UNL     1      23.541  44.072  50.800  1.00  0.00     0.239 C 
HETATM   11  C   UNL     1      22.611  43.227  49.948  1.00  0.00     0.071 C 
HETATM   12  C   UNL     1      22.472  43.775  48.517  1.00  0.00     0.088 C 
HETATM   13  C   UNL     1      23.893  43.758  47.932  1.00  0.00     0.071 C 
HETATM   14  C   UNL     1      24.851  44.635  48.722  1.00  0.00     0.239 C 
BRANCH  12  15
HETATM   15  O   UNL     1      21.717  42.806  47.788  1.00  0.00    -0.385 OA
HETATM   16  H   UNL     1      21.166  43.251  47.118  1.00  0.00     0.211 HD
ENDBRANCH  12  15
BRANCH  12  17
HETATM   17  C   UNL     1      21.752  45.123  48.392  1.00  0.00    -0.024 A 
HETATM   18  C   UNL     1      22.381  46.230  47.787  1.00  0.00     0.011 A 
HETATM   19  C   UNL     1      21.736  47.466  47.670  1.00  0.00     0.020 A 
HETATM   20  C   UNL     1      20.434  47.614  48.132  1.00  0.00     0.011 A 
HETATM   21 BR   UNL     1      19.562  49.281  47.981  1.00  0.00    -0.051 Br
HETATM   22  C   UNL     1      19.768  46.530  48.690  1.00  0.00     0.020 A 
HETATM   23  C   UNL     1      20.417  45.293  48.806  1.00  0.00     0.011 A 
ENDBRANCH  12  17
ENDBRANCH   4   8
BRANCH   1  24
HETATM   24  C   UNL     1      27.720  45.428  54.214  1.00  0.00     0.045 A 
HETATM   25  C   UNL     1      28.748  44.472  54.231  1.00  0.00     0.033 A 
HETATM   26  C   UNL     1      29.736  44.478  55.225  1.00  0.00     0.039 A 
HETATM   27  C   UNL     1      29.733  45.445  56.224  1.00  0.00     0.068 A 
HETATM   28  C   UNL     1      28.696  46.368  56.262  1.00  0.00     0.039 A 
HETATM   29  C   UNL     1      27.703  46.357  55.268  1.00  0.00     0.033 A 
BRANCH  27  30
HETATM   30  O   UNL     1      30.774  45.380  57.104  1.00  0.00    -0.352 OA
BRANCH  30  31
HETATM   31  C   UNL     1      30.918  44.149  57.814  1.00  0.00     0.171 C 
HETATM   32  C   UNL     1      32.103  43.405  57.224  1.00  0.00     0.034 C 
ENDBRANCH  30  31
ENDBRANCH  27  30
ENDBRANCH   1  24
TORSDOF 6
ENDMDL
MODEL 6
REMARK VINA RESULT:      -8.0      3.589      9.562
REMARK  6 active torsions:
REMARK  status: ('A' for Active; 'I' for Inactive)
REMARK    1  A    between atoms: C_2  and  O_3 
REMARK    2  A    between atoms: O_3  and  C_4 
REMARK    3  A    between atoms: C_7  and  N_8 
REMARK    4  A    between atoms: C_11  and  N_12 
REMARK    5  A    between atoms: C_16  and  O_17 
REMARK    6  A    between atoms: C_16  and  C_18 
ROOT
HETATM    1  N   UNL     1      26.506  44.846  51.553  1.00  0.00    -0.251 N 
HETATM    2  C   UNL     1      25.807  44.005  50.713  1.00  0.00     0.262 C 
HETATM    3  O   UNL     1      25.670  42.791  50.760  1.00  0.00    -0.270 OA
HETATM    4  C   UNL     1      25.183  44.861  49.626  1.00  0.00     0.289 C 
HETATM    5  C   UNL     1      24.983  46.166  50.359  1.00  0.00     0.146 C 
HETATM    6  C   UNL     1      26.117  46.151  51.342  1.00  0.00     0.233 C 
HETATM    7  O   UNL     1      26.536  47.188  51.827  1.00  0.00    -0.273 OA
ENDROOT
BRANCH   4   8
HETATM    8  N   UNL     1      23.859  44.372  48.967  1.00  0.00    -0.058 N 
HETATM    9  H   UNL     1      23.959  43.367  48.762  1.00  0.00     0.281 HD
HETATM   10  C   UNL     1      22.691  44.564  49.921  1.00  0.00     0.239 C 
HETATM   11  C   UNL     1      21.378  44.156  49.280  1.00  0.00     0.071 C 
HETATM   12  C   UNL     1      21.095  44.933  47.983  1.00  0.00     0.088 C 
HETATM   13  C   UNL     1      22.268  44.605  47.046  1.00  0.00     0.071 C 
HETATM   14  C   UNL     1      23.605  45.045  47.622  1.00  0.00     0.239 C 
BRANCH  12  15
HETATM   15  O   UNL     1      19.931  44.339  47.406  1.00  0.00    -0.385 OA
HETATM   16  H   UNL     1      19.872  44.575  46.462  1.00  0.00     0.211 HD
ENDBRANCH  12  15
BRANCH  12  17
HETATM   17  C   UNL     1      20.821  46.432  48.156  1.00  0.00    -0.024 A 
HETATM   18  C   UNL     1      21.640  47.397  47.534  1.00  0.00     0.011 A 
HETATM   19  C   UNL     1      21.403  48.767  47.686  1.00  0.00     0.020 A 
HETATM   20  C   UNL     1      20.322  49.202  48.443  1.00  0.00     0.011 A 
HETATM   21 BR   UNL     1      20.002  51.050  48.655  1.00  0.00    -0.051 Br
HETATM   22  C   UNL     1      19.467  48.277  49.029  1.00  0.00     0.020 A 
HETATM   23  C   UNL     1      19.708  46.906  48.875  1.00  0.00     0.011 A 
ENDBRANCH  12  17
ENDBRANCH   4   8
BRANCH   1  24
HETATM   24  C   UNL     1      27.512  44.423  52.480  1.00  0.00     0.045 A 
HETATM   25  C   UNL     1      27.402  44.697  53.853  1.00  0.00     0.033 A 
HETATM   26  C   UNL     1      28.335  44.203  54.774  1.00  0.00     0.039 A 
HETATM   27  C   UNL     1      29.398  43.412  54.353  1.00  0.00     0.068 A 
HETATM   28  C   UNL     1      29.560  43.172  52.995  1.00  0.00     0.039 A 
HETATM   29  C   UNL     1      28.627  43.673  52.072  1.00  0.00     0.033 A 
BRANCH  27  30
HETATM   30  O   UNL     1      30.210  42.946  55.347  1.00  0.00    -0.352 OA
BRANCH  30  31
HETATM   31  C   UNL     1      30.975  43.931  56.044  1.00  0.00     0.171 C 
HETATM   32  C   UNL     1      31.757  43.227  57.138  1.00  0.00     0.034 C 
ENDBRANCH  30  31
ENDBRANCH  27  30
ENDBRANCH   1  24
TORSDOF 6
ENDMDL
MODEL 7
REMARK VINA RESULT:      -8.0     12.333     14.010
REMARK  6 active torsions:
REMARK  status: ('A' for Active; 'I' for Inactive)
REMARK    1  A    between atoms: C_2  and  O_3 
REMARK    2  A    between atoms: O_3  and  C_4 
REMARK    3  A    between atoms: C_7  and  N_8 
REMARK    4  A    between atoms: C_11  and  N_12 
REMARK    5  A    between atoms: C_16  and  O_17 
REMARK    6  A    between atoms: C_16  and  C_18 
ROOT
HETATM    1  N   UNL     1      32.491  51.357  42.282  1.00  0.00    -0.251 N 
HETATM    2  C   UNL     1      33.611  51.205  41.492  1.00  0.00     0.262 C 
HETATM    3  O   UNL     1      33.723  51.269  40.277  1.00  0.00    -0.270 OA
HETATM    4  C   UNL     1      34.784  50.917  42.411  1.00  0.00     0.289 C 
HETATM    5  C   UNL     1      34.361  51.649  43.664  1.00  0.00     0.146 C 
HETATM    6  C   UNL     1      32.865  51.550  43.595  1.00  0.00     0.233 C 
HETATM    7  O   UNL     1      32.186  51.657  44.602  1.00  0.00    -0.273 OA
ENDROOT
BRANCH   4   8
HETATM    8  N   UNL     1      36.208  51.352  41.954  1.00  0.00    -0.058 N 
HETATM    9  H   UNL     1      36.300  51.131  40.951  1.00  0.00     0.281 HD
HETATM   10  C   UNL     1      36.390  52.848  42.145  1.00  0.00     0.239 C 
HETATM   11  C   UNL     1      37.792  53.290  41.768  1.00  0.00     0.071 C 
HETATM   12  C   UNL     1      38.873  52.548  42.572  1.00  0.00     0.088 C 
HETATM   13  C   UNL     1      38.678  51.059  42.245  1.00  0.00     0.071 C 
HETATM   14  C   UNL     1      37.304  50.555  42.656  1.00  0.00     0.239 C 
BRANCH  12  15
HETATM   15  O   UNL     1      40.128  52.931  42.006  1.00  0.00    -0.385 OA
HETATM   16  H   UNL     1      40.690  53.337  42.691  1.00  0.00     0.211 HD
ENDBRANCH  12  15
BRANCH  12  17
HETATM   17  C   UNL     1      38.918  52.867  44.072  1.00  0.00    -0.024 A 
HETATM   18  C   UNL     1      39.685  52.085  44.959  1.00  0.00     0.011 A 
HETATM   19  C   UNL     1      39.731  52.364  46.330  1.00  0.00     0.020 A 
HETATM   20  C   UNL     1      39.031  53.451  46.838  1.00  0.00     0.011 A 
HETATM   21 BR   UNL     1      39.088  53.827  48.687  1.00  0.00    -0.051 Br
HETATM   22  C   UNL     1      38.305  54.271  45.984  1.00  0.00     0.020 A 
HETATM   23  C   UNL     1      38.261  53.989  44.612  1.00  0.00     0.011 A 
ENDBRANCH  12  17
ENDBRANCH   4   8
BRANCH   1  24
HETATM   24  C   UNL     1      31.142  51.286  41.810  1.00  0.00     0.045 A 
HETATM   25  C   UNL     1      30.522  50.053  41.549  1.00  0.00     0.033 A 
HETATM   26  C   UNL     1      29.172  49.977  41.179  1.00  0.00     0.039 A 
HETATM   27  C   UNL     1      28.400  51.128  41.070  1.00  0.00     0.068 A 
HETATM   28  C   UNL     1      29.003  52.363  41.268  1.00  0.00     0.039 A 
HETATM   29  C   UNL     1      30.357  52.438  41.634  1.00  0.00     0.033 A 
BRANCH  27  30
HETATM   30  O   UNL     1      27.088  50.924  40.754  1.00  0.00    -0.352 OA
BRANCH  30  31
HETATM   31  C   UNL     1      26.828  49.915  39.776  1.00  0.00     0.171 C 
HETATM   32  C   UNL     1      26.874  50.568  38.407  1.00  0.00     0.034 C 
ENDBRANCH  30  31
ENDBRANCH  27  30
ENDBRANCH   1  24
TORSDOF 6
ENDMDL
MODEL 8
REMARK VINA RESULT:      -8.0     11.745     14.764
REMARK  6 active torsions:
REMARK  status: ('A' for Active; 'I' for Inactive)
REMARK    1  A    between atoms: C_2  and  O_3 
REMARK    2  A    between atoms: O_3  and  C_4 
REMARK    3  A    between atoms: C_7  and  N_8 
REMARK    4  A    between atoms: C_11  and  N_12 
REMARK    5  A    between atoms: C_16  and  O_17 
REMARK    6  A    between atoms: C_16  and  C_18 
ROOT
HETATM    1  N   UNL     1      33.280  50.870  41.701  1.00  0.00    -0.251 N 
HETATM    2  C   UNL     1      32.096  51.557  41.531  1.00  0.00     0.262 C 
HETATM    3  O   UNL     1      31.878  52.759  41.571  1.00  0.00    -0.270 OA
HETATM    4  C   UNL     1      31.007  50.532  41.271  1.00  0.00     0.289 C 
HETATM    5  C   UNL     1      31.795  49.431  40.601  1.00  0.00     0.146 C 
HETATM    6  C   UNL     1      33.146  49.579  41.237  1.00  0.00     0.233 C 
HETATM    7  O   UNL     1      33.928  48.644  41.266  1.00  0.00    -0.273 OA
ENDROOT
BRANCH   4   8
HETATM    8  N   UNL     1      29.781  50.956  40.410  1.00  0.00    -0.058 N 
HETATM    9  H   UNL     1      29.855  51.969  40.230  1.00  0.00     0.281 HD
HETATM   10  C   UNL     1      29.789  50.220  39.080  1.00  0.00     0.239 C 
HETATM   11  C   UNL     1      28.569  50.567  38.246  1.00  0.00     0.071 C 
HETATM   12  C   UNL     1      27.253  50.257  38.981  1.00  0.00     0.088 C 
HETATM   13  C   UNL     1      27.285  51.112  40.257  1.00  0.00     0.071 C 
HETATM   14  C   UNL     1      28.463  50.764  41.154  1.00  0.00     0.239 C 
BRANCH  12  15
HETATM   15  O   UNL     1      26.205  50.780  38.163  1.00  0.00    -0.385 OA
HETATM   16  H   UNL     1      26.559  51.030  37.290  1.00  0.00     0.211 HD
ENDBRANCH  12  15
BRANCH  12  17
HETATM   17  C   UNL     1      26.964  48.770  39.221  1.00  0.00    -0.024 A 
HETATM   18  C   UNL     1      27.355  47.793  38.283  1.00  0.00     0.011 A 
HETATM   19  C   UNL     1      27.095  46.433  38.489  1.00  0.00     0.020 A 
HETATM   20  C   UNL     1      26.461  46.019  39.654  1.00  0.00     0.011 A 
HETATM   21 BR   UNL     1      26.104  44.187  39.932  1.00  0.00    -0.051 Br
HETATM   22  C   UNL     1      26.106  46.951  40.621  1.00  0.00     0.020 A 
HETATM   23  C   UNL     1      26.369  48.312  40.411  1.00  0.00     0.011 A 
ENDBRANCH  12  17
ENDBRANCH   4   8
BRANCH   1  24
HETATM   24  C   UNL     1      34.459  51.412  42.305  1.00  0.00     0.045 A 
HETATM   25  C   UNL     1      35.638  51.603  41.565  1.00  0.00     0.033 A 
HETATM   26  C   UNL     1      36.763  52.220  42.128  1.00  0.00     0.039 A 
HETATM   27  C   UNL     1      36.740  52.678  43.441  1.00  0.00     0.068 A 
HETATM   28  C   UNL     1      35.606  52.452  44.210  1.00  0.00     0.039 A 
HETATM   29  C   UNL     1      34.481  51.827  43.647  1.00  0.00     0.033 A 
BRANCH  27  30
HETATM   30  O   UNL     1      37.874  53.309  43.860  1.00  0.00    -0.352 OA
BRANCH  30  31
HETATM   31  C   UNL     1      37.976  53.548  45.265  1.00  0.00     0.171 C 
HETATM   32  C   UNL     1      37.888  55.046  45.492  1.00  0.00     0.034 C 
ENDBRANCH  30  31
ENDBRANCH  27  30
ENDBRANCH   1  24
TORSDOF 6
ENDMDL
MODEL 9
REMARK VINA RESULT:      -7.9      4.938      8.898
REMARK  6 active torsions:
REMARK  status: ('A' for Active; 'I' for Inactive)
REMARK    1  A    between atoms: C_2  and  O_3 
REMARK    2  A    between atoms: O_3  and  C_4 
REMARK    3  A    between atoms: C_7  and  N_8 
REMARK    4  A    between atoms: C_11  and  N_12 
REMARK    5  A    between atoms: C_16  and  O_17 
REMARK    6  A    between atoms: C_16  and  C_18 
ROOT
HETATM    1  N   UNL     1      25.626  45.835  51.839  1.00  0.00    -0.251 N 
HETATM    2  C   UNL     1      24.932  44.702  51.472  1.00  0.00     0.262 C 
HETATM    3  O   UNL     1      24.512  43.786  52.163  1.00  0.00    -0.270 OA
HETATM    4  C   UNL     1      24.749  44.746  49.966  1.00  0.00     0.289 C 
HETATM    5  C   UNL     1      24.716  46.236  49.717  1.00  0.00     0.146 C 
HETATM    6  C   UNL     1      25.599  46.756  50.813  1.00  0.00     0.233 C 
HETATM    7  O   UNL     1      26.142  47.843  50.713  1.00  0.00    -0.273 OA
ENDROOT
BRANCH   4   8
HETATM    8  N   UNL     1      23.504  44.041  49.349  1.00  0.00    -0.058 N 
HETATM    9  H   UNL     1      22.834  43.857  50.111  1.00  0.00     0.281 HD
HETATM   10  C   UNL     1      22.842  44.942  48.321  1.00  0.00     0.239 C 
HETATM   11  C   UNL     1      21.663  44.254  47.657  1.00  0.00     0.071 C 
HETATM   12  C   UNL     1      22.065  42.934  46.978  1.00  0.00     0.088 C 
HETATM   13  C   UNL     1      22.631  42.052  48.102  1.00  0.00     0.071 C 
HETATM   14  C   UNL     1      23.850  42.675  48.764  1.00  0.00     0.239 C 
BRANCH  12  15
HETATM   15  O   UNL     1      20.849  42.319  46.547  1.00  0.00    -0.385 OA
HETATM   16  H   UNL     1      20.750  41.447  46.972  1.00  0.00     0.211 HD
ENDBRANCH  12  15
BRANCH  12  17
HETATM   17  C   UNL     1      22.981  43.070  45.756  1.00  0.00    -0.024 A 
HETATM   18  C   UNL     1      23.061  44.281  45.039  1.00  0.00     0.011 A 
HETATM   19  C   UNL     1      23.891  44.418  43.921  1.00  0.00     0.020 A 
HETATM   20  C   UNL     1      24.682  43.351  43.512  1.00  0.00     0.011 A 
HETATM   21 BR   UNL     1      25.798  43.530  42.001  1.00  0.00    -0.051 Br
HETATM   22  C   UNL     1      24.663  42.159  44.225  1.00  0.00     0.020 A 
HETATM   23  C   UNL     1      23.831  42.026  45.345  1.00  0.00     0.011 A 
ENDBRANCH  12  17
ENDBRANCH   4   8
BRANCH   1  24
HETATM   24  C   UNL     1      26.304  46.009  53.087  1.00  0.00     0.045 A 
HETATM   25  C   UNL     1      27.275  45.093  53.526  1.00  0.00     0.033 A 
HETATM   26  C   UNL     1      28.008  45.311  54.700  1.00  0.00     0.039 A 
HETATM   27  C   UNL     1      27.803  46.455  55.464  1.00  0.00     0.068 A 
HETATM   28  C   UNL     1      26.811  47.348  55.081  1.00  0.00     0.039 A 
HETATM   29  C   UNL     1      26.073  47.126  53.907  1.00  0.00     0.033 A 
BRANCH  27  30
HETATM   30  O   UNL     1      28.612  46.582  56.555  1.00  0.00    -0.352 OA
BRANCH  30  31
HETATM   31  C   UNL     1      29.774  45.752  56.574  1.00  0.00     0.171 C 
HETATM   32  C   UNL     1      30.199  45.575  58.020  1.00  0.00     0.034 C 
ENDBRANCH  30  31
ENDBRANCH  27  30
ENDBRANCH   1  24
TORSDOF 6
ENDMDL
MODEL 10
REMARK VINA RESULT:      -7.8      6.316     12.249
REMARK  6 active torsions:
REMARK  status: ('A' for Active; 'I' for Inactive)
REMARK    1  A    between atoms: C_2  and  O_3 
REMARK    2  A    between atoms: O_3  and  C_4 
REMARK    3  A    between atoms: C_7  and  N_8 
REMARK    4  A    between atoms: C_11  and  N_12 
REMARK    5  A    between atoms: C_16  and  O_17 
REMARK    6  A    between atoms: C_16  and  C_18 
ROOT
HETATM    1  N   UNL     1      19.381  50.382  48.538  1.00  0.00    -0.251 N 
HETATM    2  C   UNL     1      18.870  50.786  47.323  1.00  0.00     0.262 C 
HETATM    3  O   UNL     1      19.369  50.732  46.209  1.00  0.00    -0.270 OA
HETATM    4  C   UNL     1      17.487  51.360  47.577  1.00  0.00     0.289 C 
HETATM    5  C   UNL     1      17.059  50.567  48.790  1.00  0.00     0.146 C 
HETATM    6  C   UNL     1      18.370  50.303  49.471  1.00  0.00     0.233 C 
HETATM    7  O   UNL     1      18.414  50.052  50.664  1.00  0.00    -0.273 OA
ENDROOT
BRANCH   4   8
HETATM    8  N   UNL     1      16.428  51.272  46.439  1.00  0.00    -0.058 N 
HETATM    9  H   UNL     1      15.498  51.192  46.878  1.00  0.00     0.281 HD
HETATM   10  C   UNL     1      16.462  52.530  45.588  1.00  0.00     0.239 C 
HETATM   11  C   UNL     1      15.483  52.445  44.431  1.00  0.00     0.071 C 
HETATM   12  C   UNL     1      15.748  51.226  43.532  1.00  0.00     0.088 C 
HETATM   13  C   UNL     1      15.598  50.001  44.447  1.00  0.00     0.071 C 
HETATM   14  C   UNL     1      16.596  50.014  45.593  1.00  0.00     0.239 C 
BRANCH  12  15
HETATM   15  O   UNL     1      14.668  51.175  42.598  1.00  0.00    -0.385 OA
HETATM   16  H   UNL     1      14.109  50.397  42.780  1.00  0.00     0.211 HD
ENDBRANCH  12  15
BRANCH  12  17
HETATM   17  C   UNL     1      17.057  51.265  42.734  1.00  0.00    -0.024 A 
HETATM   18  C   UNL     1      17.888  50.129  42.644  1.00  0.00     0.011 A 
HETATM   19  C   UNL     1      19.086  50.153  41.923  1.00  0.00     0.020 A 
HETATM   20  C   UNL     1      19.466  51.307  41.250  1.00  0.00     0.011 A 
HETATM   21 BR   UNL     1      21.085  51.344  40.280  1.00  0.00    -0.051 Br
HETATM   22  C   UNL     1      18.647  52.429  41.278  1.00  0.00     0.020 A 
HETATM   23  C   UNL     1      17.448  52.402  42.001  1.00  0.00     0.011 A 
ENDBRANCH  12  17
ENDBRANCH   4   8
BRANCH   1  24
HETATM   24  C   UNL     1      20.765  50.120  48.795  1.00  0.00     0.045 A 
HETATM   25  C   UNL     1      21.234  48.814  49.011  1.00  0.00     0.033 A 
HETATM   26  C   UNL     1      22.600  48.544  49.168  1.00  0.00     0.039 A 
HETATM   27  C   UNL     1      23.538  49.567  49.102  1.00  0.00     0.068 A 
HETATM   28  C   UNL     1      23.096  50.874  48.944  1.00  0.00     0.039 A 
HETATM   29  C   UNL     1      21.726  51.144  48.793  1.00  0.00     0.033 A 
BRANCH  27  30
HETATM   30  O   UNL     1      24.840  49.175  49.216  1.00  0.00    -0.352 OA
BRANCH  30  31
HETATM   31  C   UNL     1      25.761  49.787  48.311  1.00  0.00     0.171 C 
HETATM   32  C   UNL     1      27.166  49.501  48.809  1.00  0.00     0.034 C 
ENDBRANCH  30  31
ENDBRANCH  27  30
ENDBRANCH   1  24
TORSDOF 6
ENDMDL
