MODEL 1
REMARK VINA RESULT:      -9.8      0.000      0.000
REMARK  9 active torsions:
REMARK  status: ('A' for Active; 'I' for Inactive)
REMARK    1  A    between atoms: C_2  and  C_3 
REMARK    2  A    between atoms: C_4  and  O_5 
REMARK    3  A    between atoms: C_6  and  C_7 
REMARK    4  A    between atoms: C_12  and  C_13 
REMARK    5  A    between atoms: C_13  and  C_14 
REMARK    6  A    between atoms: C_14  and  N_15 
REMARK    7  A    between atoms: N_20  and  C_21 
REMARK    8  A    between atoms: C_21  and  C_22 
REMARK    9  A    between atoms: C_22  and  N_23 
ROOT
HETATM    1  N   UNL     1      24.548  46.979  49.661  1.00  0.00    -0.174 N 
HETATM    2  C   UNL     1      23.386  47.497  49.129  1.00  0.00     0.681 A 
HETATM    3  N   UNL     1      22.212  46.859  49.127  1.00  0.00    -0.234 N 
HETATM    4  H   UNL     1      21.379  47.215  48.689  1.00  0.00     0.174 HD
HETATM    5  H   UNL     1      22.234  45.840  49.259  1.00  0.00     0.174 HD
HETATM    6  N   UNL     1      23.551  48.790  48.596  1.00  0.00    -0.180 N 
HETATM    7  C   UNL     1      24.964  49.030  48.701  1.00  0.00     0.079 A 
HETATM    8  C   UNL     1      25.556  47.936  49.361  1.00  0.00     0.079 A 
HETATM    9  C   UNL     1      25.735  50.092  48.274  1.00  0.00     0.032 A 
HETATM   10  C   UNL     1      27.109  50.056  48.548  1.00  0.00     0.002 A 
HETATM   11  C   UNL     1      27.687  48.970  49.226  1.00  0.00     0.002 A 
HETATM   12  C   UNL     1      26.908  47.889  49.639  1.00  0.00     0.032 A 
ENDROOT
BRANCH   1  13
HETATM   13  C   UNL     1      24.732  45.762  50.466  1.00  0.00     0.231 C 
BRANCH  13  14
HETATM   14  C   UNL     1      24.863  44.481  49.675  1.00  0.00     0.178 C 
HETATM   15  O   UNL     1      24.076  44.210  48.768  1.00  0.00    -0.290 OA
BRANCH  14  16
HETATM   16  C   UNL     1      25.954  43.536  50.063  1.00  0.00     0.013 A 
HETATM   17  C   UNL     1      26.212  42.404  49.285  1.00  0.00     0.026 A 
HETATM   18  C   UNL     1      27.177  41.458  49.663  1.00  0.00    -0.016 A 
HETATM   19  C   UNL     1      27.869  41.699  50.879  1.00  0.00     0.079 A 
HETATM   20  C   UNL     1      27.665  42.853  51.682  1.00  0.00    -0.016 A 
HETATM   21  C   UNL     1      26.694  43.772  51.224  1.00  0.00     0.026 A 
BRANCH  18  22
HETATM   22  C   UNL     1      27.428  40.200  48.785  1.00  0.00    -0.021 C 
HETATM   23  C   UNL     1      26.705  40.376  47.434  1.00  0.00     0.019 C 
HETATM   24  C   UNL     1      28.928  39.963  48.463  1.00  0.00     0.019 C 
HETATM   25  C   UNL     1      26.948  38.900  49.473  1.00  0.00     0.019 C 
ENDBRANCH  18  22
BRANCH  19  26
HETATM   26  O   UNL     1      28.730  40.715  51.272  1.00  0.00    -0.360 OA
HETATM   27  H   UNL     1      29.052  40.228  50.500  1.00  0.00     0.217 HD
ENDBRANCH  19  26
BRANCH  20  28
HETATM   28  C   UNL     1      28.426  43.123  53.012  1.00  0.00    -0.021 C 
HETATM   29  C   UNL     1      28.067  42.038  54.051  1.00  0.00     0.019 C 
HETATM   30  C   UNL     1      28.122  44.530  53.578  1.00  0.00     0.019 C 
HETATM   31  C   UNL     1      29.972  43.073  52.862  1.00  0.00     0.019 C 
ENDBRANCH  20  28
ENDBRANCH  14  16
ENDBRANCH  13  14
ENDBRANCH   1  13
BRANCH   6  32
HETATM   32  C   UNL     1      22.455  49.654  48.123  1.00  0.00     0.175 C 
BRANCH  32  33
HETATM   33  C   UNL     1      22.136  50.901  48.976  1.00  0.00     0.255 C 
BRANCH  33  34
HETATM   34  N   UNL     1      20.703  51.017  49.457  1.00  0.00    -0.070 N 
HETATM   35  H   UNL     1      20.784  51.467  50.382  1.00  0.00     0.279 HD
HETATM   36  C   UNL     1      19.827  51.951  48.649  1.00  0.00     0.235 C 
HETATM   37  C   UNL     1      18.538  52.215  49.416  1.00  0.00     0.028 C 
HETATM   38  C   UNL     1      17.816  50.920  49.782  1.00  0.00     0.003 C 
HETATM   39  C   UNL     1      18.738  49.953  50.518  1.00  0.00     0.028 C 
HETATM   40  C   UNL     1      20.022  49.694  49.740  1.00  0.00     0.235 C 
ENDBRANCH  33  34
ENDBRANCH  32  33
ENDBRANCH   6  32
TORSDOF 9
ENDMDL
MODEL 2
REMARK VINA RESULT:      -9.8      0.142      3.069
REMARK  9 active torsions:
REMARK  status: ('A' for Active; 'I' for Inactive)
REMARK    1  A    between atoms: C_2  and  C_3 
REMARK    2  A    between atoms: C_4  and  O_5 
REMARK    3  A    between atoms: C_6  and  C_7 
REMARK    4  A    between atoms: C_12  and  C_13 
REMARK    5  A    between atoms: C_13  and  C_14 
REMARK    6  A    between atoms: C_14  and  N_15 
REMARK    7  A    between atoms: N_20  and  C_21 
REMARK    8  A    between atoms: C_21  and  C_22 
REMARK    9  A    between atoms: C_22  and  N_23 
ROOT
HETATM    1  N   UNL     1      24.486  47.017  49.677  1.00  0.00    -0.174 N 
HETATM    2  C   UNL     1      23.343  47.546  49.118  1.00  0.00     0.681 A 
HETATM    3  N   UNL     1      22.158  46.928  49.108  1.00  0.00    -0.234 N 
HETATM    4  H   UNL     1      21.337  47.291  48.651  1.00  0.00     0.174 HD
HETATM    5  H   UNL     1      22.159  45.911  49.258  1.00  0.00     0.174 HD
HETATM    6  N   UNL     1      23.538  48.826  48.567  1.00  0.00    -0.180 N 
HETATM    7  C   UNL     1      24.953  49.044  48.690  1.00  0.00     0.079 A 
HETATM    8  C   UNL     1      25.516  47.951  49.377  1.00  0.00     0.079 A 
HETATM    9  C   UNL     1      25.750  50.084  48.258  1.00  0.00     0.032 A 
HETATM   10  C   UNL     1      27.118  50.029  48.553  1.00  0.00     0.002 A 
HETATM   11  C   UNL     1      27.667  48.946  49.259  1.00  0.00     0.002 A 
HETATM   12  C   UNL     1      26.862  47.885  49.677  1.00  0.00     0.032 A 
ENDROOT
BRANCH   1  13
HETATM   13  C   UNL     1      24.637  45.811  50.505  1.00  0.00     0.231 C 
BRANCH  13  14
HETATM   14  C   UNL     1      24.731  44.511  49.738  1.00  0.00     0.178 C 
HETATM   15  O   UNL     1      23.967  44.267  48.804  1.00  0.00    -0.290 OA
BRANCH  14  16
HETATM   16  C   UNL     1      25.754  43.518  50.183  1.00  0.00     0.013 A 
HETATM   17  C   UNL     1      26.502  43.750  51.341  1.00  0.00     0.026 A 
HETATM   18  C   UNL     1      27.522  42.875  51.743  1.00  0.00    -0.016 A 
HETATM   19  C   UNL     1      27.768  41.751  50.913  1.00  0.00     0.079 A 
HETATM   20  C   UNL     1      27.010  41.456  49.747  1.00  0.00    -0.016 A 
HETATM   21  C   UNL     1      25.984  42.369  49.419  1.00  0.00     0.026 A 
BRANCH  18  22
HETATM   22  C   UNL     1      28.348  43.171  53.027  1.00  0.00    -0.021 C 
HETATM   23  C   UNL     1      27.910  44.532  53.605  1.00  0.00     0.019 C 
HETATM   24  C   UNL     1      28.138  42.120  54.150  1.00  0.00     0.019 C 
HETATM   25  C   UNL     1      29.871  43.179  52.756  1.00  0.00     0.019 C 
ENDBRANCH  18  22
BRANCH  19  26
HETATM   26  O   UNL     1      28.829  40.971  51.274  1.00  0.00    -0.360 OA
HETATM   27  H   UNL     1      28.761  40.102  50.853  1.00  0.00     0.217 HD
ENDBRANCH  19  26
BRANCH  20  28
HETATM   28  C   UNL     1      27.272  40.221  48.839  1.00  0.00    -0.021 C 
HETATM   29  C   UNL     1      26.435  40.336  47.546  1.00  0.00     0.019 C 
HETATM   30  C   UNL     1      26.960  38.891  49.564  1.00  0.00     0.019 C 
HETATM   31  C   UNL     1      28.751  40.093  48.377  1.00  0.00     0.019 C 
ENDBRANCH  20  28
ENDBRANCH  14  16
ENDBRANCH  13  14
ENDBRANCH   1  13
BRANCH   6  32
HETATM   32  C   UNL     1      22.465  49.701  48.062  1.00  0.00     0.175 C 
BRANCH  32  33
HETATM   33  C   UNL     1      22.143  50.959  48.898  1.00  0.00     0.255 C 
BRANCH  33  34
HETATM   34  N   UNL     1      20.719  51.060  49.409  1.00  0.00    -0.070 N 
HETATM   35  H   UNL     1      20.814  51.521  50.327  1.00  0.00     0.279 HD
HETATM   36  C   UNL     1      19.812  51.971  48.610  1.00  0.00     0.235 C 
HETATM   37  C   UNL     1      18.536  52.225  49.403  1.00  0.00     0.028 C 
HETATM   38  C   UNL     1      17.842  50.924  49.798  1.00  0.00     0.003 C 
HETATM   39  C   UNL     1      18.794  49.979  50.525  1.00  0.00     0.028 C 
HETATM   40  C   UNL     1      20.065  49.730  49.722  1.00  0.00     0.235 C 
ENDBRANCH  33  34
ENDBRANCH  32  33
ENDBRANCH   6  32
TORSDOF 9
ENDMDL
MODEL 3
REMARK VINA RESULT:      -9.4      1.705      2.911
REMARK  9 active torsions:
REMARK  status: ('A' for Active; 'I' for Inactive)
REMARK    1  A    between atoms: C_2  and  C_3 
REMARK    2  A    between atoms: C_4  and  O_5 
REMARK    3  A    between atoms: C_6  and  C_7 
REMARK    4  A    between atoms: C_12  and  C_13 
REMARK    5  A    between atoms: C_13  and  C_14 
REMARK    6  A    between atoms: C_14  and  N_15 
REMARK    7  A    between atoms: N_20  and  C_21 
REMARK    8  A    between atoms: C_21  and  C_22 
REMARK    9  A    between atoms: C_22  and  N_23 
ROOT
HETATM    1  N   UNL     1      24.209  47.277  49.732  1.00  0.00    -0.174 N 
HETATM    2  C   UNL     1      23.111  47.772  49.063  1.00  0.00     0.681 A 
HETATM    3  N   UNL     1      21.907  47.191  49.063  1.00  0.00    -0.234 N 
HETATM    4  H   UNL     1      21.122  47.523  48.529  1.00  0.00     0.174 HD
HETATM    5  H   UNL     1      21.868  46.198  49.325  1.00  0.00     0.174 HD
HETATM    6  N   UNL     1      23.375  48.976  48.382  1.00  0.00    -0.180 N 
HETATM    7  C   UNL     1      24.789  49.166  48.550  1.00  0.00     0.079 A 
HETATM    8  C   UNL     1      25.283  48.141  49.381  1.00  0.00     0.079 A 
HETATM    9  C   UNL     1      25.639  50.128  48.044  1.00  0.00     0.032 A 
HETATM   10  C   UNL     1      26.990  50.067  48.411  1.00  0.00     0.002 A 
HETATM   11  C   UNL     1      27.469  49.055  49.259  1.00  0.00     0.002 A 
HETATM   12  C   UNL     1      26.610  48.072  49.753  1.00  0.00     0.032 A 
ENDROOT
BRANCH   1  13
HETATM   13  C   UNL     1      24.281  46.168  50.696  1.00  0.00     0.231 C 
BRANCH  13  14
HETATM   14  C   UNL     1      25.389  45.170  50.447  1.00  0.00     0.178 C 
HETATM   15  O   UNL     1      25.463  44.555  49.384  1.00  0.00    -0.290 OA
BRANCH  14  16
HETATM   16  C   UNL     1      26.362  44.926  51.555  1.00  0.00     0.013 A 
HETATM   17  C   UNL     1      27.078  43.728  51.609  1.00  0.00     0.026 A 
HETATM   18  C   UNL     1      27.942  43.436  52.676  1.00  0.00    -0.016 A 
HETATM   19  C   UNL     1      28.043  44.409  53.703  1.00  0.00     0.079 A 
HETATM   20  C   UNL     1      27.361  45.656  53.673  1.00  0.00    -0.016 A 
HETATM   21  C   UNL     1      26.529  45.888  52.555  1.00  0.00     0.026 A 
BRANCH  18  22
HETATM   22  C   UNL     1      28.712  42.086  52.715  1.00  0.00    -0.021 C 
HETATM   23  C   UNL     1      30.206  42.365  52.978  1.00  0.00     0.019 C 
HETATM   24  C   UNL     1      28.229  41.134  53.842  1.00  0.00     0.019 C 
HETATM   25  C   UNL     1      28.550  41.281  51.404  1.00  0.00     0.019 C 
ENDBRANCH  18  22
BRANCH  19  26
HETATM   26  O   UNL     1      28.812  44.058  54.775  1.00  0.00    -0.360 OA
HETATM   27  H   UNL     1      29.747  44.045  54.523  1.00  0.00     0.217 HD
ENDBRANCH  19  26
BRANCH  20  28
HETATM   28  C   UNL     1      27.475  46.728  54.794  1.00  0.00    -0.021 C 
HETATM   29  C   UNL     1      27.702  46.038  56.157  1.00  0.00     0.019 C 
HETATM   30  C   UNL     1      26.226  47.638  54.855  1.00  0.00     0.019 C 
HETATM   31  C   UNL     1      28.674  47.699  54.605  1.00  0.00     0.019 C 
ENDBRANCH  20  28
ENDBRANCH  14  16
ENDBRANCH  13  14
ENDBRANCH   1  13
BRANCH   6  32
HETATM   32  C   UNL     1      22.355  49.818  47.731  1.00  0.00     0.175 C 
BRANCH  32  33
HETATM   33  C   UNL     1      21.827  51.022  48.542  1.00  0.00     0.255 C 
BRANCH  33  34
HETATM   34  N   UNL     1      20.337  51.018  48.824  1.00  0.00    -0.070 N 
HETATM   35  H   UNL     1      19.958  50.321  48.164  1.00  0.00     0.279 HD
HETATM   36  C   UNL     1      19.942  50.508  50.194  1.00  0.00     0.235 C 
HETATM   37  C   UNL     1      18.440  50.261  50.220  1.00  0.00     0.028 C 
HETATM   38  C   UNL     1      17.650  51.504  49.819  1.00  0.00     0.003 C 
HETATM   39  C   UNL     1      18.120  52.058  48.478  1.00  0.00     0.028 C 
HETATM   40  C   UNL     1      19.623  52.305  48.463  1.00  0.00     0.235 C 
ENDBRANCH  33  34
ENDBRANCH  32  33
ENDBRANCH   6  32
TORSDOF 9
ENDMDL
MODEL 4
REMARK VINA RESULT:      -8.8      1.658      2.494
REMARK  9 active torsions:
REMARK  status: ('A' for Active; 'I' for Inactive)
REMARK    1  A    between atoms: C_2  and  C_3 
REMARK    2  A    between atoms: C_4  and  O_5 
REMARK    3  A    between atoms: C_6  and  C_7 
REMARK    4  A    between atoms: C_12  and  C_13 
REMARK    5  A    between atoms: C_13  and  C_14 
REMARK    6  A    between atoms: C_14  and  N_15 
REMARK    7  A    between atoms: N_20  and  C_21 
REMARK    8  A    between atoms: C_21  and  C_22 
REMARK    9  A    between atoms: C_22  and  N_23 
ROOT
HETATM    1  N   UNL     1      23.548  44.305  49.707  1.00  0.00    -0.174 N 
HETATM    2  C   UNL     1      22.644  44.826  48.807  1.00  0.00     0.681 A 
HETATM    3  N   UNL     1      21.738  44.098  48.147  1.00  0.00    -0.234 N 
HETATM    4  H   UNL     1      21.116  44.471  47.450  1.00  0.00     0.174 HD
HETATM    5  H   UNL     1      21.906  43.086  48.085  1.00  0.00     0.174 HD
HETATM    6  N   UNL     1      22.755  46.222  48.657  1.00  0.00    -0.180 N 
HETATM    7  C   UNL     1      23.908  46.563  49.442  1.00  0.00     0.079 A 
HETATM    8  C   UNL     1      24.373  45.400  50.086  1.00  0.00     0.079 A 
HETATM    9  C   UNL     1      24.556  47.768  49.622  1.00  0.00     0.032 A 
HETATM   10  C   UNL     1      25.660  47.798  50.484  1.00  0.00     0.002 A 
HETATM   11  C   UNL     1      26.102  46.637  51.139  1.00  0.00     0.002 A 
HETATM   12  C   UNL     1      25.457  45.416  50.941  1.00  0.00     0.032 A 
ENDROOT
BRANCH   1  13
HETATM   13  C   UNL     1      23.615  42.946  50.268  1.00  0.00     0.231 C 
BRANCH  13  14
HETATM   14  C   UNL     1      24.305  41.924  49.394  1.00  0.00     0.178 C 
HETATM   15  O   UNL     1      23.785  41.523  48.353  1.00  0.00    -0.290 OA
BRANCH  14  16
HETATM   16  C   UNL     1      25.617  41.385  49.863  1.00  0.00     0.013 A 
HETATM   17  C   UNL     1      26.195  40.286  49.222  1.00  0.00     0.026 A 
HETATM   18  C   UNL     1      27.388  39.710  49.685  1.00  0.00    -0.016 A 
HETATM   19  C   UNL     1      27.971  40.286  50.843  1.00  0.00     0.079 A 
HETATM   20  C   UNL     1      27.438  41.424  51.506  1.00  0.00    -0.016 A 
HETATM   21  C   UNL     1      26.249  41.965  50.967  1.00  0.00     0.026 A 
BRANCH  18  22
HETATM   22  C   UNL     1      27.996  38.477  48.959  1.00  0.00    -0.021 C 
HETATM   23  C   UNL     1      27.487  37.190  49.639  1.00  0.00     0.019 C 
HETATM   24  C   UNL     1      27.594  38.383  47.463  1.00  0.00     0.019 C 
HETATM   25  C   UNL     1      29.543  38.498  48.965  1.00  0.00     0.019 C 
ENDBRANCH  18  22
BRANCH  19  26
HETATM   26  O   UNL     1      29.075  39.646  51.329  1.00  0.00    -0.360 OA
HETATM   27  H   UNL     1      29.382  40.081  52.137  1.00  0.00     0.217 HD
ENDBRANCH  19  26
BRANCH  20  28
HETATM   28  C   UNL     1      28.079  42.063  52.772  1.00  0.00    -0.021 C 
HETATM   29  C   UNL     1      28.300  40.980  53.850  1.00  0.00     0.019 C 
HETATM   30  C   UNL     1      27.218  43.217  53.338  1.00  0.00     0.019 C 
HETATM   31  C   UNL     1      29.475  42.693  52.509  1.00  0.00     0.019 C 
ENDBRANCH  20  28
ENDBRANCH  14  16
ENDBRANCH  13  14
ENDBRANCH   1  13
BRANCH   6  32
HETATM   32  C   UNL     1      21.813  47.067  47.901  1.00  0.00     0.175 C 
BRANCH  32  33
HETATM   33  C   UNL     1      20.547  47.537  48.650  1.00  0.00     0.255 C 
BRANCH  33  34
HETATM   34  N   UNL     1      20.426  49.034  48.857  1.00  0.00    -0.070 N 
HETATM   35  H   UNL     1      20.772  49.183  49.818  1.00  0.00     0.279 HD
HETATM   36  C   UNL     1      21.331  49.879  47.985  1.00  0.00     0.235 C 
HETATM   37  C   UNL     1      21.340  51.308  48.513  1.00  0.00     0.028 C 
HETATM   38  C   UNL     1      19.932  51.888  48.615  1.00  0.00     0.003 C 
HETATM   39  C   UNL     1      19.009  50.981  49.423  1.00  0.00     0.028 C 
HETATM   40  C   UNL     1      19.004  49.556  48.884  1.00  0.00     0.235 C 
ENDBRANCH  33  34
ENDBRANCH  32  33
ENDBRANCH   6  32
TORSDOF 9
ENDMDL
MODEL 5
REMARK VINA RESULT:      -8.8      1.848      3.283
REMARK  9 active torsions:
REMARK  status: ('A' for Active; 'I' for Inactive)
REMARK    1  A    between atoms: C_2  and  C_3 
REMARK    2  A    between atoms: C_4  and  O_5 
REMARK    3  A    between atoms: C_6  and  C_7 
REMARK    4  A    between atoms: C_12  and  C_13 
REMARK    5  A    between atoms: C_13  and  C_14 
REMARK    6  A    between atoms: C_14  and  N_15 
REMARK    7  A    between atoms: N_20  and  C_21 
REMARK    8  A    between atoms: C_21  and  C_22 
REMARK    9  A    between atoms: C_22  and  N_23 
ROOT
HETATM    1  N   UNL     1      23.654  45.877  49.617  1.00  0.00    -0.174 N 
HETATM    2  C   UNL     1      23.021  47.023  49.187  1.00  0.00     0.681 A 
HETATM    3  N   UNL     1      23.174  48.223  49.753  1.00  0.00    -0.234 N 
HETATM    4  H   UNL     1      22.669  49.047  49.472  1.00  0.00     0.174 HD
HETATM    5  H   UNL     1      23.543  48.244  50.712  1.00  0.00     0.174 HD
HETATM    6  N   UNL     1      22.197  46.810  48.065  1.00  0.00    -0.180 N 
HETATM    7  C   UNL     1      22.236  45.387  47.871  1.00  0.00     0.079 A 
HETATM    8  C   UNL     1      23.132  44.832  48.806  1.00  0.00     0.079 A 
HETATM    9  C   UNL     1      21.568  44.577  46.976  1.00  0.00     0.032 A 
HETATM   10  C   UNL     1      21.835  43.202  47.010  1.00  0.00     0.002 A 
HETATM   11  C   UNL     1      22.748  42.661  47.930  1.00  0.00     0.002 A 
HETATM   12  C   UNL     1      23.407  43.480  48.847  1.00  0.00     0.032 A 
ENDROOT
BRANCH   1  13
HETATM   13  C   UNL     1      24.723  45.733  50.618  1.00  0.00     0.231 C 
BRANCH  13  14
HETATM   14  C   UNL     1      26.113  45.553  50.052  1.00  0.00     0.178 C 
HETATM   15  O   UNL     1      26.613  46.399  49.311  1.00  0.00    -0.290 OA
BRANCH  14  16
HETATM   16  C   UNL     1      26.839  44.291  50.388  1.00  0.00     0.013 A 
HETATM   17  C   UNL     1      26.770  43.190  49.529  1.00  0.00     0.026 A 
HETATM   18  C   UNL     1      27.377  41.967  49.853  1.00  0.00    -0.016 A 
HETATM   19  C   UNL     1      28.051  41.896  51.099  1.00  0.00     0.079 A 
HETATM   20  C   UNL     1      28.177  42.998  51.988  1.00  0.00    -0.016 A 
HETATM   21  C   UNL     1      27.561  44.203  51.582  1.00  0.00     0.026 A 
BRANCH  18  22
HETATM   22  C   UNL     1      27.267  40.757  48.884  1.00  0.00    -0.021 C 
HETATM   23  C   UNL     1      28.682  40.341  48.433  1.00  0.00     0.019 C 
HETATM   24  C   UNL     1      26.617  39.505  49.533  1.00  0.00     0.019 C 
HETATM   25  C   UNL     1      26.393  41.074  47.647  1.00  0.00     0.019 C 
ENDBRANCH  18  22
BRANCH  19  26
HETATM   26  O   UNL     1      28.546  40.668  51.433  1.00  0.00    -0.360 OA
HETATM   27  H   UNL     1      28.987  40.269  50.669  1.00  0.00     0.217 HD
ENDBRANCH  19  26
BRANCH  20  28
HETATM   28  C   UNL     1      28.922  42.926  53.351  1.00  0.00    -0.021 C 
HETATM   29  C   UNL     1      28.607  44.186  54.187  1.00  0.00     0.019 C 
HETATM   30  C   UNL     1      30.450  42.770  53.170  1.00  0.00     0.019 C 
HETATM   31  C   UNL     1      28.493  41.716  54.228  1.00  0.00     0.019 C 
ENDBRANCH  20  28
ENDBRANCH  14  16
ENDBRANCH  13  14
ENDBRANCH   1  13
BRANCH   6  32
HETATM   32  C   UNL     1      21.539  47.875  47.287  1.00  0.00     0.175 C 
BRANCH  32  33
HETATM   33  C   UNL     1      20.012  48.026  47.469  1.00  0.00     0.255 C 
BRANCH  33  34
HETATM   34  N   UNL     1      19.560  49.272  48.203  1.00  0.00    -0.070 N 
HETATM   35  H   UNL     1      18.578  49.395  47.908  1.00  0.00     0.279 HD
HETATM   36  C   UNL     1      19.497  49.145  49.711  1.00  0.00     0.235 C 
HETATM   37  C   UNL     1      18.737  50.335  50.281  1.00  0.00     0.028 C 
HETATM   38  C   UNL     1      19.344  51.664  49.840  1.00  0.00     0.003 C 
HETATM   39  C   UNL     1      19.482  51.742  48.323  1.00  0.00     0.028 C 
HETATM   40  C   UNL     1      20.247  50.549  47.764  1.00  0.00     0.235 C 
ENDBRANCH  33  34
ENDBRANCH  32  33
ENDBRANCH   6  32
TORSDOF 9
ENDMDL
MODEL 6
REMARK VINA RESULT:      -8.7      3.198      9.863
REMARK  9 active torsions:
REMARK  status: ('A' for Active; 'I' for Inactive)
REMARK    1  A    between atoms: C_2  and  C_3 
REMARK    2  A    between atoms: C_4  and  O_5 
REMARK    3  A    between atoms: C_6  and  C_7 
REMARK    4  A    between atoms: C_12  and  C_13 
REMARK    5  A    between atoms: C_13  and  C_14 
REMARK    6  A    between atoms: C_14  and  N_15 
REMARK    7  A    between atoms: N_20  and  C_21 
REMARK    8  A    between atoms: C_21  and  C_22 
REMARK    9  A    between atoms: C_22  and  N_23 
ROOT
HETATM    1  N   UNL     1      26.338  44.627  51.145  1.00  0.00    -0.174 N 
HETATM    2  C   UNL     1      26.521  45.389  52.279  1.00  0.00     0.681 A 
HETATM    3  N   UNL     1      26.170  46.674  52.384  1.00  0.00    -0.234 N 
HETATM    4  H   UNL     1      26.355  47.244  53.194  1.00  0.00     0.174 HD
HETATM    5  H   UNL     1      26.028  47.193  51.509  1.00  0.00     0.174 HD
HETATM    6  N   UNL     1      27.107  44.670  53.339  1.00  0.00    -0.180 N 
HETATM    7  C   UNL     1      27.420  43.393  52.760  1.00  0.00     0.079 A 
HETATM    8  C   UNL     1      26.938  43.371  51.436  1.00  0.00     0.079 A 
HETATM    9  C   UNL     1      28.074  42.298  53.284  1.00  0.00     0.032 A 
HETATM   10  C   UNL     1      28.210  41.164  52.473  1.00  0.00     0.002 A 
HETATM   11  C   UNL     1      27.705  41.143  51.162  1.00  0.00     0.002 A 
HETATM   12  C   UNL     1      27.062  42.259  50.627  1.00  0.00     0.032 A 
ENDROOT
BRANCH   1  13
HETATM   13  C   UNL     1      25.595  44.960  49.920  1.00  0.00     0.231 C 
BRANCH  13  14
HETATM   14  C   UNL     1      24.089  44.909  50.047  1.00  0.00     0.178 C 
HETATM   15  O   UNL     1      23.538  44.054  50.740  1.00  0.00    -0.290 OA
BRANCH  14  16
HETATM   16  C   UNL     1      23.295  45.906  49.268  1.00  0.00     0.013 A 
HETATM   17  C   UNL     1      23.649  47.258  49.289  1.00  0.00     0.026 A 
HETATM   18  C   UNL     1      22.880  48.229  48.630  1.00  0.00    -0.016 A 
HETATM   19  C   UNL     1      21.718  47.776  47.953  1.00  0.00     0.079 A 
HETATM   20  C   UNL     1      21.338  46.409  47.875  1.00  0.00    -0.016 A 
HETATM   21  C   UNL     1      22.176  45.487  48.543  1.00  0.00     0.026 A 
BRANCH  18  22
HETATM   22  C   UNL     1      23.292  49.727  48.687  1.00  0.00    -0.021 C 
HETATM   23  C   UNL     1      24.818  49.823  48.893  1.00  0.00     0.019 C 
HETATM   24  C   UNL     1      22.966  50.506  47.384  1.00  0.00     0.019 C 
HETATM   25  C   UNL     1      22.561  50.493  49.814  1.00  0.00     0.019 C 
ENDBRANCH  18  22
BRANCH  19  26
HETATM   26  O   UNL     1      20.936  48.752  47.406  1.00  0.00    -0.360 OA
HETATM   27  H   UNL     1      21.427  49.224  46.717  1.00  0.00     0.217 HD
ENDBRANCH  19  26
BRANCH  20  28
HETATM   28  C   UNL     1      20.069  45.908  47.129  1.00  0.00    -0.021 C 
HETATM   29  C   UNL     1      20.036  44.363  47.132  1.00  0.00     0.019 C 
HETATM   30  C   UNL     1      20.000  46.443  45.679  1.00  0.00     0.019 C 
HETATM   31  C   UNL     1      18.739  46.363  47.792  1.00  0.00     0.019 C 
ENDBRANCH  20  28
ENDBRANCH  14  16
ENDBRANCH  13  14
ENDBRANCH   1  13
BRANCH   6  32
HETATM   32  C   UNL     1      27.260  45.172  54.716  1.00  0.00     0.175 C 
BRANCH  32  33
HETATM   33  C   UNL     1      28.613  45.828  55.069  1.00  0.00     0.255 C 
BRANCH  33  34
HETATM   34  N   UNL     1      29.506  45.030  55.998  1.00  0.00    -0.070 N 
HETATM   35  H   UNL     1      28.849  44.435  56.528  1.00  0.00     0.279 HD
HETATM   36  C   UNL     1      30.442  44.057  55.313  1.00  0.00     0.235 C 
HETATM   37  C   UNL     1      31.032  43.114  56.354  1.00  0.00     0.028 C 
HETATM   38  C   UNL     1      31.718  43.873  57.486  1.00  0.00     0.003 C 
HETATM   39  C   UNL     1      30.790  44.912  58.109  1.00  0.00     0.028 C 
HETATM   40  C   UNL     1      30.208  45.851  57.060  1.00  0.00     0.235 C 
ENDBRANCH  33  34
ENDBRANCH  32  33
ENDBRANCH   6  32
TORSDOF 9
ENDMDL
MODEL 7
REMARK VINA RESULT:      -8.6      2.406      4.646
REMARK  9 active torsions:
REMARK  status: ('A' for Active; 'I' for Inactive)
REMARK    1  A    between atoms: C_2  and  C_3 
REMARK    2  A    between atoms: C_4  and  O_5 
REMARK    3  A    between atoms: C_6  and  C_7 
REMARK    4  A    between atoms: C_12  and  C_13 
REMARK    5  A    between atoms: C_13  and  C_14 
REMARK    6  A    between atoms: C_14  and  N_15 
REMARK    7  A    between atoms: N_20  and  C_21 
REMARK    8  A    between atoms: C_21  and  C_22 
REMARK    9  A    between atoms: C_22  and  N_23 
ROOT
HETATM    1  N   UNL     1      22.180  48.783  48.802  1.00  0.00    -0.174 N 
HETATM    2  C   UNL     1      21.847  50.043  49.250  1.00  0.00     0.681 A 
HETATM    3  N   UNL     1      22.736  51.008  49.506  1.00  0.00    -0.234 N 
HETATM    4  H   UNL     1      22.496  51.909  49.885  1.00  0.00     0.174 HD
HETATM    5  H   UNL     1      23.711  50.718  49.655  1.00  0.00     0.174 HD
HETATM    6  N   UNL     1      20.459  50.228  49.398  1.00  0.00    -0.180 N 
HETATM    7  C   UNL     1      19.907  48.928  49.136  1.00  0.00     0.079 A 
HETATM    8  C   UNL     1      20.954  48.064  48.762  1.00  0.00     0.079 A 
HETATM    9  C   UNL     1      18.608  48.466  49.204  1.00  0.00     0.032 A 
HETATM   10  C   UNL     1      18.368  47.130  48.859  1.00  0.00     0.002 A 
HETATM   11  C   UNL     1      19.416  46.281  48.465  1.00  0.00     0.002 A 
HETATM   12  C   UNL     1      20.731  46.746  48.416  1.00  0.00     0.032 A 
ENDROOT
BRANCH   1  13
HETATM   13  C   UNL     1      23.485  48.279  48.348  1.00  0.00     0.231 C 
BRANCH  13  14
HETATM   14  C   UNL     1      24.541  48.166  49.425  1.00  0.00     0.178 C 
HETATM   15  O   UNL     1      25.244  49.129  49.731  1.00  0.00    -0.290 OA
BRANCH  14  16
HETATM   16  C   UNL     1      24.728  46.832  50.073  1.00  0.00     0.013 A 
HETATM   17  C   UNL     1      24.330  45.668  49.411  1.00  0.00     0.026 A 
HETATM   18  C   UNL     1      24.423  44.408  50.022  1.00  0.00    -0.016 A 
HETATM   19  C   UNL     1      24.926  44.374  51.348  1.00  0.00     0.079 A 
HETATM   20  C   UNL     1      25.376  45.527  52.047  1.00  0.00    -0.016 A 
HETATM   21  C   UNL     1      25.275  46.756  51.357  1.00  0.00     0.026 A 
BRANCH  18  22
HETATM   22  C   UNL     1      23.955  43.133  49.265  1.00  0.00    -0.021 C 
HETATM   23  C   UNL     1      23.543  43.522  47.830  1.00  0.00     0.019 C 
HETATM   24  C   UNL     1      25.062  42.052  49.136  1.00  0.00     0.019 C 
HETATM   25  C   UNL     1      22.777  42.428  49.977  1.00  0.00     0.019 C 
ENDBRANCH  18  22
BRANCH  19  26
HETATM   26  O   UNL     1      24.912  43.150  51.953  1.00  0.00    -0.360 OA
HETATM   27  H   UNL     1      24.778  43.252  52.906  1.00  0.00     0.217 HD
ENDBRANCH  19  26
BRANCH  20  28
HETATM   28  C   UNL     1      25.935  45.492  53.497  1.00  0.00    -0.021 C 
HETATM   29  C   UNL     1      25.947  46.920  54.087  1.00  0.00     0.019 C 
HETATM   30  C   UNL     1      27.351  44.874  53.558  1.00  0.00     0.019 C 
HETATM   31  C   UNL     1      25.078  44.637  54.472  1.00  0.00     0.019 C 
ENDBRANCH  20  28
ENDBRANCH  14  16
ENDBRANCH  13  14
ENDBRANCH   1  13
BRANCH   6  32
HETATM   32  C   UNL     1      19.806  51.517  49.691  1.00  0.00     0.175 C 
BRANCH  32  33
HETATM   33  C   UNL     1      19.235  52.296  48.485  1.00  0.00     0.255 C 
BRANCH  33  34
HETATM   34  N   UNL     1      17.765  52.655  48.574  1.00  0.00    -0.070 N 
HETATM   35  H   UNL     1      17.728  53.640  48.270  1.00  0.00     0.279 HD
HETATM   36  C   UNL     1      16.863  51.918  47.606  1.00  0.00     0.235 C 
HETATM   37  C   UNL     1      15.499  52.593  47.581  1.00  0.00     0.028 C 
HETATM   38  C   UNL     1      14.887  52.693  48.976  1.00  0.00     0.003 C 
HETATM   39  C   UNL     1      15.843  53.359  49.961  1.00  0.00     0.028 C 
HETATM   40  C   UNL     1      17.202  52.673  49.980  1.00  0.00     0.235 C 
ENDBRANCH  33  34
ENDBRANCH  32  33
ENDBRANCH   6  32
TORSDOF 9
ENDMDL
MODEL 8
REMARK VINA RESULT:      -8.6      3.269      9.512
REMARK  9 active torsions:
REMARK  status: ('A' for Active; 'I' for Inactive)
REMARK    1  A    between atoms: C_2  and  C_3 
REMARK    2  A    between atoms: C_4  and  O_5 
REMARK    3  A    between atoms: C_6  and  C_7 
REMARK    4  A    between atoms: C_12  and  C_13 
REMARK    5  A    between atoms: C_13  and  C_14 
REMARK    6  A    between atoms: C_14  and  N_15 
REMARK    7  A    between atoms: N_20  and  C_21 
REMARK    8  A    between atoms: C_21  and  C_22 
REMARK    9  A    between atoms: C_22  and  N_23 
ROOT
HETATM    1  N   UNL     1      26.216  44.808  52.576  1.00  0.00    -0.174 N 
HETATM    2  C   UNL     1      26.702  43.692  51.928  1.00  0.00     0.681 A 
HETATM    3  N   UNL     1      26.071  43.070  50.928  1.00  0.00    -0.234 N 
HETATM    4  H   UNL     1      26.400  42.224  50.494  1.00  0.00     0.174 HD
HETATM    5  H   UNL     1      25.063  43.247  50.830  1.00  0.00     0.174 HD
HETATM    6  N   UNL     1      27.955  43.273  52.415  1.00  0.00    -0.180 N 
HETATM    7  C   UNL     1      28.195  44.134  53.540  1.00  0.00     0.079 A 
HETATM    8  C   UNL     1      27.145  45.069  53.620  1.00  0.00     0.079 A 
HETATM    9  C   UNL     1      29.221  44.153  54.462  1.00  0.00     0.032 A 
HETATM   10  C   UNL     1      29.198  45.147  55.450  1.00  0.00     0.002 A 
HETATM   11  C   UNL     1      28.158  46.089  55.508  1.00  0.00     0.002 A 
HETATM   12  C   UNL     1      27.111  46.055  54.586  1.00  0.00     0.032 A 
ENDROOT
BRANCH   1  13
HETATM   13  C   UNL     1      25.056  45.643  52.230  1.00  0.00     0.231 C 
BRANCH  13  14
HETATM   14  C   UNL     1      25.308  46.685  51.164  1.00  0.00     0.178 C 
HETATM   15  O   UNL     1      26.324  47.381  51.182  1.00  0.00    -0.290 OA
BRANCH  14  16
HETATM   16  C   UNL     1      24.261  46.870  50.115  1.00  0.00     0.013 A 
HETATM   17  C   UNL     1      23.771  45.767  49.410  1.00  0.00     0.026 A 
HETATM   18  C   UNL     1      22.843  45.916  48.367  1.00  0.00    -0.016 A 
HETATM   19  C   UNL     1      22.437  47.239  48.054  1.00  0.00     0.079 A 
HETATM   20  C   UNL     1      22.881  48.385  48.766  1.00  0.00    -0.016 A 
HETATM   21  C   UNL     1      23.795  48.154  49.818  1.00  0.00     0.026 A 
BRANCH  18  22
HETATM   22  C   UNL     1      22.331  44.670  47.591  1.00  0.00    -0.021 C 
HETATM   23  C   UNL     1      22.799  43.394  48.320  1.00  0.00     0.019 C 
HETATM   24  C   UNL     1      20.782  44.593  47.503  1.00  0.00     0.019 C 
HETATM   25  C   UNL     1      22.824  44.650  46.125  1.00  0.00     0.019 C 
ENDBRANCH  18  22
BRANCH  19  26
HETATM   26  O   UNL     1      21.612  47.362  46.973  1.00  0.00    -0.360 OA
HETATM   27  H   UNL     1      21.701  46.588  46.398  1.00  0.00     0.217 HD
ENDBRANCH  19  26
BRANCH  20  28
HETATM   28  C   UNL     1      22.433  49.836  48.430  1.00  0.00    -0.021 C 
HETATM   29  C   UNL     1      21.028  49.815  47.789  1.00  0.00     0.019 C 
HETATM   30  C   UNL     1      23.438  50.552  47.497  1.00  0.00     0.019 C 
HETATM   31  C   UNL     1      22.316  50.754  49.679  1.00  0.00     0.019 C 
ENDBRANCH  20  28
ENDBRANCH  14  16
ENDBRANCH  13  14
ENDBRANCH   1  13
BRANCH   6  32
HETATM   32  C   UNL     1      28.790  42.223  51.804  1.00  0.00     0.175 C 
BRANCH  32  33
HETATM   33  C   UNL     1      28.483  40.766  52.213  1.00  0.00     0.255 C 
BRANCH  33  34
HETATM   34  N   UNL     1      28.579  39.739  51.101  1.00  0.00    -0.070 N 
HETATM   35  H   UNL     1      27.743  39.148  51.233  1.00  0.00     0.279 HD
HETATM   36  C   UNL     1      28.442  40.295  49.699  1.00  0.00     0.235 C 
HETATM   37  C   UNL     1      28.238  39.143  48.724  1.00  0.00     0.028 C 
HETATM   38  C   UNL     1      29.351  38.105  48.826  1.00  0.00     0.003 C 
HETATM   39  C   UNL     1      29.536  37.619  50.260  1.00  0.00     0.028 C 
HETATM   40  C   UNL     1      29.744  38.779  51.226  1.00  0.00     0.235 C 
ENDBRANCH  33  34
ENDBRANCH  32  33
ENDBRANCH   6  32
TORSDOF 9
ENDMDL
MODEL 9
REMARK VINA RESULT:      -8.4      1.661      3.797
REMARK  9 active torsions:
REMARK  status: ('A' for Active; 'I' for Inactive)
REMARK    1  A    between atoms: C_2  and  C_3 
REMARK    2  A    between atoms: C_4  and  O_5 
REMARK    3  A    between atoms: C_6  and  C_7 
REMARK    4  A    between atoms: C_12  and  C_13 
REMARK    5  A    between atoms: C_13  and  C_14 
REMARK    6  A    between atoms: C_14  and  N_15 
REMARK    7  A    between atoms: N_20  and  C_21 
REMARK    8  A    between atoms: C_21  and  C_22 
REMARK    9  A    between atoms: C_22  and  N_23 
ROOT
HETATM    1  N   UNL     1      23.389  44.617  49.635  1.00  0.00    -0.174 N 
HETATM    2  C   UNL     1      22.467  45.156  48.763  1.00  0.00     0.681 A 
HETATM    3  N   UNL     1      21.505  44.452  48.158  1.00  0.00    -0.234 N 
HETATM    4  H   UNL     1      20.868  44.836  47.480  1.00  0.00     0.174 HD
HETATM    5  H   UNL     1      21.632  43.433  48.110  1.00  0.00     0.174 HD
HETATM    6  N   UNL     1      22.624  46.543  48.580  1.00  0.00    -0.180 N 
HETATM    7  C   UNL     1      23.823  46.854  49.307  1.00  0.00     0.079 A 
HETATM    8  C   UNL     1      24.271  45.686  49.955  1.00  0.00     0.079 A 
HETATM    9  C   UNL     1      24.524  48.036  49.434  1.00  0.00     0.032 A 
HETATM   10  C   UNL     1      25.665  48.039  50.247  1.00  0.00     0.002 A 
HETATM   11  C   UNL     1      26.090  46.874  50.907  1.00  0.00     0.002 A 
HETATM   12  C   UNL     1      25.391  45.676  50.762  1.00  0.00     0.032 A 
ENDROOT
BRANCH   1  13
HETATM   13  C   UNL     1      23.428  43.268  50.220  1.00  0.00     0.231 C 
BRANCH  13  14
HETATM   14  C   UNL     1      24.085  42.213  49.360  1.00  0.00     0.178 C 
HETATM   15  O   UNL     1      23.606  41.889  48.273  1.00  0.00    -0.290 OA
BRANCH  14  16
HETATM   16  C   UNL     1      25.310  41.547  49.897  1.00  0.00     0.013 A 
HETATM   17  C   UNL     1      25.983  42.092  50.994  1.00  0.00     0.026 A 
HETATM   18  C   UNL     1      27.177  41.534  51.474  1.00  0.00    -0.016 A 
HETATM   19  C   UNL     1      27.677  40.399  50.786  1.00  0.00     0.079 A 
HETATM   20  C   UNL     1      27.010  39.790  49.689  1.00  0.00    -0.016 A 
HETATM   21  C   UNL     1      25.800  40.393  49.278  1.00  0.00     0.026 A 
BRANCH  18  22
HETATM   22  C   UNL     1      27.910  42.176  52.686  1.00  0.00    -0.021 C 
HETATM   23  C   UNL     1      28.219  41.080  53.726  1.00  0.00     0.019 C 
HETATM   24  C   UNL     1      29.267  42.830  52.309  1.00  0.00     0.019 C 
HETATM   25  C   UNL     1      27.081  43.305  53.342  1.00  0.00     0.019 C 
ENDBRANCH  18  22
BRANCH  19  26
HETATM   26  O   UNL     1      28.890  39.938  51.211  1.00  0.00    -0.360 OA
HETATM   27  H   UNL     1      29.171  39.190  50.664  1.00  0.00     0.217 HD
ENDBRANCH  19  26
BRANCH  20  28
HETATM   28  C   UNL     1      27.551  38.541  48.936  1.00  0.00    -0.021 C 
HETATM   29  C   UNL     1      28.997  38.802  48.461  1.00  0.00     0.019 C 
HETATM   30  C   UNL     1      26.654  38.153  47.737  1.00  0.00     0.019 C 
HETATM   31  C   UNL     1      27.618  37.264  49.821  1.00  0.00     0.019 C 
ENDBRANCH  20  28
ENDBRANCH  14  16
ENDBRANCH  13  14
ENDBRANCH   1  13
BRANCH   6  32
HETATM   32  C   UNL     1      21.684  47.410  47.848  1.00  0.00     0.175 C 
BRANCH  32  33
HETATM   33  C   UNL     1      20.318  47.677  48.519  1.00  0.00     0.255 C 
BRANCH  33  34
HETATM   34  N   UNL     1      19.922  49.135  48.639  1.00  0.00    -0.070 N 
HETATM   35  H   UNL     1      18.973  49.104  49.044  1.00  0.00     0.279 HD
HETATM   36  C   UNL     1      20.737  49.944  49.626  1.00  0.00     0.235 C 
HETATM   37  C   UNL     1      20.039  51.274  49.878  1.00  0.00     0.028 C 
HETATM   38  C   UNL     1      19.780  52.037  48.582  1.00  0.00     0.003 C 
HETATM   39  C   UNL     1      19.034  51.178  47.564  1.00  0.00     0.028 C 
HETATM   40  C   UNL     1      19.743  49.853  47.317  1.00  0.00     0.235 C 
ENDBRANCH  33  34
ENDBRANCH  32  33
ENDBRANCH   6  32
TORSDOF 9
ENDMDL
MODEL 10
REMARK VINA RESULT:      -8.4      3.258      9.825
REMARK  9 active torsions:
REMARK  status: ('A' for Active; 'I' for Inactive)
REMARK    1  A    between atoms: C_2  and  C_3 
REMARK    2  A    between atoms: C_4  and  O_5 
REMARK    3  A    between atoms: C_6  and  C_7 
REMARK    4  A    between atoms: C_12  and  C_13 
REMARK    5  A    between atoms: C_13  and  C_14 
REMARK    6  A    between atoms: C_14  and  N_15 
REMARK    7  A    between atoms: N_20  and  C_21 
REMARK    8  A    between atoms: C_21  and  C_22 
REMARK    9  A    between atoms: C_22  and  N_23 
ROOT
HETATM    1  N   UNL     1      23.993  47.554  49.498  1.00  0.00    -0.174 N 
HETATM    2  C   UNL     1      24.457  46.367  50.023  1.00  0.00     0.681 A 
HETATM    3  N   UNL     1      23.669  45.397  50.497  1.00  0.00    -0.234 N 
HETATM    4  H   UNL     1      24.011  44.555  50.930  1.00  0.00     0.174 HD
HETATM    5  H   UNL     1      22.707  45.657  50.748  1.00  0.00     0.174 HD
HETATM    6  N   UNL     1      25.861  46.263  49.997  1.00  0.00    -0.180 N 
HETATM    7  C   UNL     1      26.295  47.550  49.529  1.00  0.00     0.079 A 
HETATM    8  C   UNL     1      25.157  48.320  49.215  1.00  0.00     0.079 A 
HETATM    9  C   UNL     1      27.561  48.076  49.370  1.00  0.00     0.032 A 
HETATM   10  C   UNL     1      27.672  49.376  48.859  1.00  0.00     0.002 A 
HETATM   11  C   UNL     1      26.532  50.127  48.528  1.00  0.00     0.002 A 
HETATM   12  C   UNL     1      25.253  49.600  48.709  1.00  0.00     0.032 A 
ENDROOT
BRANCH   1  13
HETATM   13  C   UNL     1      22.611  47.945  49.179  1.00  0.00     0.231 C 
BRANCH  13  14
HETATM   14  C   UNL     1      22.067  47.384  47.885  1.00  0.00     0.178 C 
HETATM   15  O   UNL     1      22.699  46.549  47.238  1.00  0.00    -0.290 OA
BRANCH  14  16
HETATM   16  C   UNL     1      20.757  47.914  47.398  1.00  0.00     0.013 A 
HETATM   17  C   UNL     1      20.036  47.218  46.424  1.00  0.00     0.026 A 
HETATM   18  C   UNL     1      18.842  47.726  45.891  1.00  0.00    -0.016 A 
HETATM   19  C   UNL     1      18.408  48.987  46.377  1.00  0.00     0.079 A 
HETATM   20  C   UNL     1      19.089  49.713  47.390  1.00  0.00    -0.016 A 
HETATM   21  C   UNL     1      20.271  49.126  47.896  1.00  0.00     0.026 A 
BRANCH  18  22
HETATM   22  C   UNL     1      18.072  46.935  44.796  1.00  0.00    -0.021 C 
HETATM   23  C   UNL     1      16.658  46.604  45.313  1.00  0.00     0.019 C 
HETATM   24  C   UNL     1      17.892  47.730  43.474  1.00  0.00     0.019 C 
HETATM   25  C   UNL     1      18.803  45.632  44.392  1.00  0.00     0.019 C 
ENDBRANCH  18  22
BRANCH  19  26
HETATM   26  O   UNL     1      17.299  49.503  45.771  1.00  0.00    -0.360 OA
HETATM   27  H   UNL     1      16.812  50.063  46.392  1.00  0.00     0.217 HD
ENDBRANCH  19  26
BRANCH  20  28
HETATM   28  C   UNL     1      18.614  51.092  47.931  1.00  0.00    -0.021 C 
HETATM   29  C   UNL     1      17.508  50.885  48.990  1.00  0.00     0.019 C 
HETATM   30  C   UNL     1      18.107  52.015  46.798  1.00  0.00     0.019 C 
HETATM   31  C   UNL     1      19.735  51.900  48.641  1.00  0.00     0.019 C 
ENDBRANCH  20  28
ENDBRANCH  14  16
ENDBRANCH  13  14
ENDBRANCH   1  13
BRANCH   6  32
HETATM   32  C   UNL     1      26.623  45.046  50.328  1.00  0.00     0.175 C 
BRANCH  32  33
HETATM   33  C   UNL     1      26.437  44.475  51.751  1.00  0.00     0.255 C 
BRANCH  33  34
HETATM   34  N   UNL     1      27.713  44.229  52.531  1.00  0.00    -0.070 N 
HETATM   35  H   UNL     1      28.366  44.946  52.177  1.00  0.00     0.279 HD
HETATM   36  C   UNL     1      27.619  44.493  54.019  1.00  0.00     0.235 C 
HETATM   37  C   UNL     1      29.022  44.518  54.611  1.00  0.00     0.028 C 
HETATM   38  C   UNL     1      29.795  43.239  54.301  1.00  0.00     0.003 C 
HETATM   39  C   UNL     1      29.805  42.938  52.805  1.00  0.00     0.028 C 
HETATM   40  C   UNL     1      28.397  42.912  52.224  1.00  0.00     0.235 C 
ENDBRANCH  33  34
ENDBRANCH  32  33
ENDBRANCH   6  32
TORSDOF 9
ENDMDL
