MODEL 1
REMARK VINA RESULT:      -8.2      0.000      0.000
REMARK  3 active torsions:
REMARK  status: ('A' for Active; 'I' for Inactive)
REMARK    1  A    between atoms: C_9  and  C_10 
REMARK    2  A    between atoms: C_16  and  C_17 
REMARK       I    between atoms: C_17  and  N_18 
REMARK    3  A    between atoms: N_18  and  C_19 
ROOT
HETATM    1  C   UNL     1      25.017  46.954  51.603  1.00  0.00     0.070 C 
HETATM    2  C   UNL     1      24.643  45.631  50.983  1.00  0.00     0.037 C 
HETATM    3  N   UNL     1      23.801  45.702  49.876  1.00  0.00    -0.191 N 
HETATM    4  C   UNL     1      23.197  44.620  49.343  1.00  0.00     0.735 A 
HETATM    5  N   UNL     1      23.515  43.377  49.814  1.00  0.00    -0.092 N 
HETATM    6  N   UNL     1      22.768  42.444  49.208  1.00  0.00     0.012 NA
HETATM    7  N   UNL     1      22.025  43.124  48.340  1.00  0.00     0.033 NA
HETATM    8  N   UNL     1      22.283  44.481  48.415  1.00  0.00     0.030 NA
HETATM    9  C   UNL     1      24.498  43.112  50.861  1.00  0.00     0.199 C 
HETATM   10  C   UNL     1      25.011  44.419  51.466  1.00  0.00     0.062 C 
HETATM   11  H   UNL     1      23.480  46.624  49.587  1.00  0.00     0.184 HD
ENDROOT
BRANCH  10  12
HETATM   12  C   UNL     1      25.850  44.228  52.679  1.00  0.00     0.256 C 
HETATM   13  N   UNL     1      27.202  44.273  52.426  1.00  0.00    -0.322 N 
HETATM   14  H   UNL     1      27.497  44.399  51.466  1.00  0.00     0.169 HD
HETATM   15  O   UNL     1      25.299  43.995  53.747  1.00  0.00    -0.267 OA
BRANCH  13  16
HETATM   16  C   UNL     1      28.236  44.155  53.380  1.00  0.00     0.052 A 
HETATM   17  C   UNL     1      28.391  44.963  54.502  1.00  0.00     0.145 A 
HETATM   18  N   UNL     1      29.404  44.838  55.397  1.00  0.00    -0.271 NA
HETATM   19  C   UNL     1      30.308  43.865  55.166  1.00  0.00     0.116 A 
HETATM   20  C   UNL     1      30.246  43.008  54.081  1.00  0.00     0.021 A 
HETATM   21  C   UNL     1      29.193  43.157  53.179  1.00  0.00     0.032 A 
ENDBRANCH  13  16
ENDBRANCH  10  12
BRANCH   9  22
HETATM   22  C   UNL     1      25.635  42.252  50.332  1.00  0.00    -0.011 A 
HETATM   23  C   UNL     1      26.383  42.611  49.213  1.00  0.00     0.125 A 
HETATM   24  N   UNL     1      27.436  41.905  48.745  1.00  0.00    -0.272 NA
HETATM   25  C   UNL     1      27.754  40.771  49.406  1.00  0.00     0.116 A 
HETATM   26  C   UNL     1      27.079  40.323  50.528  1.00  0.00     0.020 A 
HETATM   27  C   UNL     1      26.010  41.079  51.000  1.00  0.00     0.012 A 
ENDBRANCH   9  22
TORSDOF 3
ENDMDL
MODEL 2
REMARK VINA RESULT:      -7.9      2.662      6.688
REMARK  3 active torsions:
REMARK  status: ('A' for Active; 'I' for Inactive)
REMARK    1  A    between atoms: C_9  and  C_10 
REMARK    2  A    between atoms: C_16  and  C_17 
REMARK       I    between atoms: C_17  and  N_18 
REMARK    3  A    between atoms: N_18  and  C_19 
ROOT
HETATM    1  C   UNL     1      28.288  43.390  52.413  1.00  0.00     0.070 C 
HETATM    2  C   UNL     1      27.482  44.658  52.540  1.00  0.00     0.037 C 
HETATM    3  N   UNL     1      27.756  45.435  53.662  1.00  0.00    -0.191 N 
HETATM    4  C   UNL     1      26.982  46.473  54.043  1.00  0.00     0.735 A 
HETATM    5  N   UNL     1      25.958  46.874  53.233  1.00  0.00    -0.092 N 
HETATM    6  N   UNL     1      25.271  47.871  53.811  1.00  0.00     0.012 NA
HETATM    7  N   UNL     1      25.910  48.095  54.955  1.00  0.00     0.033 NA
HETATM    8  N   UNL     1      26.978  47.230  55.112  1.00  0.00     0.030 NA
HETATM    9  C   UNL     1      25.633  46.272  51.943  1.00  0.00     0.199 C 
HETATM   10  C   UNL     1      26.495  45.035  51.690  1.00  0.00     0.062 C 
HETATM   11  H   UNL     1      28.448  45.083  54.321  1.00  0.00     0.184 HD
ENDROOT
BRANCH  10  12
HETATM   12  C   UNL     1      26.076  44.247  50.502  1.00  0.00     0.256 C 
HETATM   13  N   UNL     1      24.968  43.462  50.724  1.00  0.00    -0.322 N 
HETATM   14  H   UNL     1      24.566  43.467  51.653  1.00  0.00     0.169 HD
HETATM   15  O   UNL     1      26.753  44.307  49.484  1.00  0.00    -0.267 OA
BRANCH  13  16
HETATM   16  C   UNL     1      24.326  42.632  49.779  1.00  0.00     0.052 A 
HETATM   17  C   UNL     1      22.985  42.715  49.415  1.00  0.00     0.145 A 
HETATM   18  N   UNL     1      22.388  41.895  48.513  1.00  0.00    -0.271 NA
HETATM   19  C   UNL     1      23.159  40.945  47.947  1.00  0.00     0.116 A 
HETATM   20  C   UNL     1      24.501  40.777  48.238  1.00  0.00     0.021 A 
HETATM   21  C   UNL     1      25.090  41.636  49.165  1.00  0.00     0.032 A 
ENDBRANCH  13  16
ENDBRANCH  10  12
BRANCH   9  22
HETATM   22  C   UNL     1      25.766  47.289  50.821  1.00  0.00    -0.011 A 
HETATM   23  C   UNL     1      24.660  47.816  50.156  1.00  0.00     0.125 A 
HETATM   24  N   UNL     1      24.732  48.762  49.194  1.00  0.00    -0.272 NA
HETATM   25  C   UNL     1      25.965  49.198  48.856  1.00  0.00     0.116 A 
HETATM   26  C   UNL     1      27.128  48.745  49.454  1.00  0.00     0.020 A 
HETATM   27  C   UNL     1      27.024  47.784  50.454  1.00  0.00     0.012 A 
ENDBRANCH   9  22
TORSDOF 3
ENDMDL
MODEL 3
REMARK VINA RESULT:      -7.8      2.142      5.768
REMARK  3 active torsions:
REMARK  status: ('A' for Active; 'I' for Inactive)
REMARK    1  A    between atoms: C_9  and  C_10 
REMARK    2  A    between atoms: C_16  and  C_17 
REMARK       I    between atoms: C_17  and  N_18 
REMARK    3  A    between atoms: N_18  and  C_19 
ROOT
HETATM    1  C   UNL     1      30.249  43.159  54.372  1.00  0.00     0.070 C 
HETATM    2  C   UNL     1      28.953  43.887  54.118  1.00  0.00     0.037 C 
HETATM    3  N   UNL     1      28.895  45.194  54.594  1.00  0.00    -0.191 N 
HETATM    4  C   UNL     1      27.749  45.904  54.650  1.00  0.00     0.735 A 
HETATM    5  N   UNL     1      26.613  45.383  54.098  1.00  0.00    -0.092 N 
HETATM    6  N   UNL     1      25.573  46.203  54.310  1.00  0.00     0.012 NA
HETATM    7  N   UNL     1      26.095  47.241  54.957  1.00  0.00     0.033 NA
HETATM    8  N   UNL     1      27.450  47.066  55.175  1.00  0.00     0.030 NA
HETATM    9  C   UNL     1      26.536  44.094  53.415  1.00  0.00     0.199 C 
HETATM   10  C   UNL     1      27.859  43.338  53.534  1.00  0.00     0.062 C 
HETATM   11  H   UNL     1      29.705  45.549  55.097  1.00  0.00     0.184 HD
ENDROOT
BRANCH  10  12
HETATM   12  C   UNL     1      27.791  41.934  53.052  1.00  0.00     0.256 C 
HETATM   13  N   UNL     1      27.937  41.812  51.689  1.00  0.00    -0.322 N 
HETATM   14  H   UNL     1      28.046  42.661  51.149  1.00  0.00     0.169 HD
HETATM   15  O   UNL     1      27.560  41.043  53.859  1.00  0.00    -0.267 OA
BRANCH  13  16
HETATM   16  C   UNL     1      27.947  40.608  50.953  1.00  0.00     0.052 A 
HETATM   17  C   UNL     1      29.005  39.704  50.902  1.00  0.00     0.145 A 
HETATM   18  N   UNL     1      28.994  38.559  50.174  1.00  0.00    -0.271 NA
HETATM   19  C   UNL     1      27.881  38.299  49.459  1.00  0.00     0.116 A 
HETATM   20  C   UNL     1      26.775  39.129  49.439  1.00  0.00     0.021 A 
HETATM   21  C   UNL     1      26.811  40.298  50.200  1.00  0.00     0.032 A 
ENDBRANCH  13  16
ENDBRANCH  10  12
BRANCH   9  22
HETATM   22  C   UNL     1      26.118  44.274  51.965  1.00  0.00    -0.011 A 
HETATM   23  C   UNL     1      24.928  43.752  51.461  1.00  0.00     0.125 A 
HETATM   24  N   UNL     1      24.494  43.938  50.194  1.00  0.00    -0.272 NA
HETATM   25  C   UNL     1      25.288  44.660  49.375  1.00  0.00     0.116 A 
HETATM   26  C   UNL     1      26.488  45.224  49.773  1.00  0.00     0.020 A 
HETATM   27  C   UNL     1      26.903  45.033  51.087  1.00  0.00     0.012 A 
ENDBRANCH   9  22
TORSDOF 3
ENDMDL
MODEL 4
REMARK VINA RESULT:      -7.7      5.401      8.084
REMARK  3 active torsions:
REMARK  status: ('A' for Active; 'I' for Inactive)
REMARK    1  A    between atoms: C_9  and  C_10 
REMARK    2  A    between atoms: C_16  and  C_17 
REMARK       I    between atoms: C_17  and  N_18 
REMARK    3  A    between atoms: N_18  and  C_19 
ROOT
HETATM    1  C   UNL     1      23.129  51.118  48.076  1.00  0.00     0.070 C 
HETATM    2  C   UNL     1      21.772  50.612  48.499  1.00  0.00     0.037 C 
HETATM    3  N   UNL     1      20.819  51.593  48.758  1.00  0.00    -0.191 N 
HETATM    4  C   UNL     1      19.638  51.328  49.354  1.00  0.00     0.735 A 
HETATM    5  N   UNL     1      19.290  50.030  49.600  1.00  0.00    -0.092 N 
HETATM    6  N   UNL     1      18.118  49.976  50.251  1.00  0.00     0.012 NA
HETATM    7  N   UNL     1      17.741  51.247  50.360  1.00  0.00     0.033 NA
HETATM    8  N   UNL     1      18.680  52.098  49.806  1.00  0.00     0.030 NA
HETATM    9  C   UNL     1      20.103  48.869  49.244  1.00  0.00     0.199 C 
HETATM   10  C   UNL     1      21.462  49.307  48.698  1.00  0.00     0.062 C 
HETATM   11  H   UNL     1      21.108  52.565  48.675  1.00  0.00     0.184 HD
ENDROOT
BRANCH  10  12
HETATM   12  C   UNL     1      22.422  48.187  48.516  1.00  0.00     0.256 C 
HETATM   13  N   UNL     1      23.175  47.920  49.636  1.00  0.00    -0.322 N 
HETATM   14  H   UNL     1      23.035  48.507  50.448  1.00  0.00     0.169 HD
HETATM   15  O   UNL     1      22.508  47.656  47.416  1.00  0.00    -0.267 OA
BRANCH  13  16
HETATM   16  C   UNL     1      24.142  46.900  49.770  1.00  0.00     0.052 A 
HETATM   17  C   UNL     1      23.879  45.534  49.741  1.00  0.00     0.145 A 
HETATM   18  N   UNL     1      24.826  44.572  49.888  1.00  0.00    -0.271 NA
HETATM   19  C   UNL     1      26.095  44.987  50.075  1.00  0.00     0.116 A 
HETATM   20  C   UNL     1      26.464  46.320  50.121  1.00  0.00     0.021 A 
HETATM   21  C   UNL     1      25.471  47.287  49.963  1.00  0.00     0.032 A 
ENDBRANCH  13  16
ENDBRANCH  10  12
BRANCH   9  22
HETATM   22  C   UNL     1      19.365  47.972  48.264  1.00  0.00    -0.011 A 
HETATM   23  C   UNL     1      18.950  46.684  48.598  1.00  0.00     0.125 A 
HETATM   24  N   UNL     1      18.244  45.876  47.776  1.00  0.00    -0.272 NA
HETATM   25  C   UNL     1      17.948  46.359  46.551  1.00  0.00     0.116 A 
HETATM   26  C   UNL     1      18.309  47.623  46.117  1.00  0.00     0.020 A 
HETATM   27  C   UNL     1      19.020  48.441  46.989  1.00  0.00     0.012 A 
ENDBRANCH   9  22
TORSDOF 3
ENDMDL
MODEL 5
REMARK VINA RESULT:      -7.6      4.355      8.289
REMARK  3 active torsions:
REMARK  status: ('A' for Active; 'I' for Inactive)
REMARK    1  A    between atoms: C_9  and  C_10 
REMARK    2  A    between atoms: C_16  and  C_17 
REMARK       I    between atoms: C_17  and  N_18 
REMARK    3  A    between atoms: N_18  and  C_19 
ROOT
HETATM    1  C   UNL     1      22.173  44.607  48.152  1.00  0.00     0.070 C 
HETATM    2  C   UNL     1      23.164  45.307  49.047  1.00  0.00     0.037 C 
HETATM    3  N   UNL     1      23.984  44.473  49.803  1.00  0.00    -0.191 N 
HETATM    4  C   UNL     1      24.763  44.925  50.808  1.00  0.00     0.735 A 
HETATM    5  N   UNL     1      24.863  46.271  51.022  1.00  0.00    -0.092 N 
HETATM    6  N   UNL     1      25.626  46.516  52.097  1.00  0.00     0.012 NA
HETATM    7  N   UNL     1      26.018  45.314  52.508  1.00  0.00     0.033 NA
HETATM    8  N   UNL     1      25.486  44.314  51.713  1.00  0.00     0.030 NA
HETATM    9  C   UNL     1      24.197  47.293  50.218  1.00  0.00     0.199 C 
HETATM   10  C   UNL     1      23.252  46.651  49.203  1.00  0.00     0.062 C 
HETATM   11  H   UNL     1      23.839  43.469  49.721  1.00  0.00     0.184 HD
ENDROOT
BRANCH  10  12
HETATM   12  C   UNL     1      22.380  47.627  48.497  1.00  0.00     0.256 C 
HETATM   13  N   UNL     1      21.552  48.335  49.338  1.00  0.00    -0.322 N 
HETATM   14  H   UNL     1      21.587  48.117  50.326  1.00  0.00     0.169 HD
HETATM   15  O   UNL     1      22.421  47.679  47.275  1.00  0.00    -0.267 OA
BRANCH  13  16
HETATM   16  C   UNL     1      20.641  49.345  48.961  1.00  0.00     0.052 A 
HETATM   17  C   UNL     1      19.306  49.139  48.625  1.00  0.00     0.145 A 
HETATM   18  N   UNL     1      18.454  50.127  48.251  1.00  0.00    -0.271 NA
HETATM   19  C   UNL     1      18.951  51.379  48.206  1.00  0.00     0.116 A 
HETATM   20  C   UNL     1      20.262  51.693  48.520  1.00  0.00     0.021 A 
HETATM   21  C   UNL     1      21.115  50.659  48.905  1.00  0.00     0.032 A 
ENDBRANCH  13  16
ENDBRANCH  10  12
BRANCH   9  22
HETATM   22  C   UNL     1      25.214  48.201  49.545  1.00  0.00    -0.011 A 
HETATM   23  C   UNL     1      24.844  49.360  48.866  1.00  0.00     0.125 A 
HETATM   24  N   UNL     1      25.719  50.222  48.304  1.00  0.00    -0.272 NA
HETATM   25  C   UNL     1      27.030  49.913  48.400  1.00  0.00     0.116 A 
HETATM   26  C   UNL     1      27.506  48.790  49.053  1.00  0.00     0.020 A 
HETATM   27  C   UNL     1      26.584  47.928  49.639  1.00  0.00     0.012 A 
ENDBRANCH   9  22
TORSDOF 3
ENDMDL
MODEL 6
REMARK VINA RESULT:      -7.4      2.935      7.582
REMARK  3 active torsions:
REMARK  status: ('A' for Active; 'I' for Inactive)
REMARK    1  A    between atoms: C_9  and  C_10 
REMARK    2  A    between atoms: C_16  and  C_17 
REMARK       I    between atoms: C_17  and  N_18 
REMARK    3  A    between atoms: N_18  and  C_19 
ROOT
HETATM    1  C   UNL     1      25.596  42.795  50.712  1.00  0.00     0.070 C 
HETATM    2  C   UNL     1      25.598  44.241  51.142  1.00  0.00     0.037 C 
HETATM    3  N   UNL     1      26.315  44.522  52.302  1.00  0.00    -0.191 N 
HETATM    4  C   UNL     1      26.238  45.706  52.943  1.00  0.00     0.735 A 
HETATM    5  N   UNL     1      25.534  46.729  52.374  1.00  0.00    -0.092 N 
HETATM    6  N   UNL     1      25.520  47.795  53.188  1.00  0.00     0.012 NA
HETATM    7  N   UNL     1      26.253  47.424  54.233  1.00  0.00     0.033 NA
HETATM    8  N   UNL     1      26.706  46.125  54.093  1.00  0.00     0.030 NA
HETATM    9  C   UNL     1      24.855  46.654  51.082  1.00  0.00     0.199 C 
HETATM   10  C   UNL     1      24.909  45.232  50.525  1.00  0.00     0.062 C 
HETATM   11  H   UNL     1      26.755  43.741  52.785  1.00  0.00     0.184 HD
ENDROOT
BRANCH  10  12
HETATM   12  C   UNL     1      24.059  45.029  49.322  1.00  0.00     0.256 C 
HETATM   13  N   UNL     1      22.782  45.522  49.460  1.00  0.00    -0.322 N 
HETATM   14  H   UNL     1      22.533  45.940  50.348  1.00  0.00     0.169 HD
HETATM   15  O   UNL     1      24.521  44.412  48.370  1.00  0.00    -0.267 OA
BRANCH  13  16
HETATM   16  C   UNL     1      21.766  45.501  48.480  1.00  0.00     0.052 A 
HETATM   17  C   UNL     1      20.596  44.751  48.552  1.00  0.00     0.145 A 
HETATM   18  N   UNL     1      19.640  44.737  47.588  1.00  0.00    -0.271 NA
HETATM   19  C   UNL     1      19.857  45.502  46.501  1.00  0.00     0.116 A 
HETATM   20  C   UNL     1      20.986  46.285  46.330  1.00  0.00     0.021 A 
HETATM   21  C   UNL     1      21.950  46.283  47.337  1.00  0.00     0.032 A 
ENDBRANCH  13  16
ENDBRANCH  10  12
BRANCH   9  22
HETATM   22  C   UNL     1      25.436  47.664  50.106  1.00  0.00    -0.011 A 
HETATM   23  C   UNL     1      24.641  48.585  49.425  1.00  0.00     0.125 A 
HETATM   24  N   UNL     1      25.124  49.535  48.593  1.00  0.00    -0.272 NA
HETATM   25  C   UNL     1      26.461  49.564  48.408  1.00  0.00     0.116 A 
HETATM   26  C   UNL     1      27.340  48.699  49.035  1.00  0.00     0.020 A 
HETATM   27  C   UNL     1      26.819  47.742  49.901  1.00  0.00     0.012 A 
ENDBRANCH   9  22
TORSDOF 3
ENDMDL
MODEL 7
REMARK VINA RESULT:      -7.4      2.232      6.159
REMARK  3 active torsions:
REMARK  status: ('A' for Active; 'I' for Inactive)
REMARK    1  A    between atoms: C_9  and  C_10 
REMARK    2  A    between atoms: C_16  and  C_17 
REMARK       I    between atoms: C_17  and  N_18 
REMARK    3  A    between atoms: N_18  and  C_19 
ROOT
HETATM    1  C   UNL     1      28.750  43.662  53.967  1.00  0.00     0.070 C 
HETATM    2  C   UNL     1      27.824  44.845  53.839  1.00  0.00     0.037 C 
HETATM    3  N   UNL     1      28.083  45.907  54.701  1.00  0.00    -0.191 N 
HETATM    4  C   UNL     1      27.228  46.937  54.873  1.00  0.00     0.735 A 
HETATM    5  N   UNL     1      26.120  47.026  54.079  1.00  0.00    -0.092 N 
HETATM    6  N   UNL     1      25.368  48.075  54.444  1.00  0.00     0.012 NA
HETATM    7  N   UNL     1      26.048  48.643  55.435  1.00  0.00     0.033 NA
HETATM    8  N   UNL     1      27.209  47.943  55.713  1.00  0.00     0.030 NA
HETATM    9  C   UNL     1      25.782  46.084  53.015  1.00  0.00     0.199 C 
HETATM   10  C   UNL     1      26.752  44.903  53.010  1.00  0.00     0.062 C 
HETATM   11  H   UNL     1      28.846  45.799  55.366  1.00  0.00     0.184 HD
ENDROOT
BRANCH  10  12
HETATM   12  C   UNL     1      26.347  43.800  52.098  1.00  0.00     0.256 C 
HETATM   13  N   UNL     1      27.338  43.416  51.224  1.00  0.00    -0.322 N 
HETATM   14  H   UNL     1      28.216  43.920  51.257  1.00  0.00     0.169 HD
HETATM   15  O   UNL     1      25.199  43.381  52.152  1.00  0.00    -0.267 OA
BRANCH  13  16
HETATM   16  C   UNL     1      27.256  42.382  50.267  1.00  0.00     0.052 A 
HETATM   17  C   UNL     1      26.557  42.452  49.065  1.00  0.00     0.145 A 
HETATM   18  N   UNL     1      26.481  41.436  48.168  1.00  0.00    -0.271 NA
HETATM   19  C   UNL     1      27.127  40.295  48.480  1.00  0.00     0.116 A 
HETATM   20  C   UNL     1      27.850  40.121  49.647  1.00  0.00     0.021 A 
HETATM   21  C   UNL     1      27.915  41.182  50.550  1.00  0.00     0.032 A 
ENDBRANCH  13  16
ENDBRANCH  10  12
BRANCH   9  22
HETATM   22  C   UNL     1      25.740  46.783  51.666  1.00  0.00    -0.011 A 
HETATM   23  C   UNL     1      24.597  46.794  50.867  1.00  0.00     0.125 A 
HETATM   24  N   UNL     1      24.501  47.450  49.690  1.00  0.00    -0.272 NA
HETATM   25  C   UNL     1      25.598  48.116  49.269  1.00  0.00     0.116 A 
HETATM   26  C   UNL     1      26.781  48.172  49.983  1.00  0.00     0.020 A 
HETATM   27  C   UNL     1      26.848  47.502  51.201  1.00  0.00     0.012 A 
ENDBRANCH   9  22
TORSDOF 3
ENDMDL
MODEL 8
REMARK VINA RESULT:      -7.3     13.566     15.049
REMARK  3 active torsions:
REMARK  status: ('A' for Active; 'I' for Inactive)
REMARK    1  A    between atoms: C_9  and  C_10 
REMARK    2  A    between atoms: C_16  and  C_17 
REMARK       I    between atoms: C_17  and  N_18 
REMARK    3  A    between atoms: N_18  and  C_19 
ROOT
HETATM    1  C   UNL     1      32.991  47.553  41.394  1.00  0.00     0.070 C 
HETATM    2  C   UNL     1      31.780  47.995  40.612  1.00  0.00     0.037 C 
HETATM    3  N   UNL     1      30.893  46.983  40.254  1.00  0.00    -0.191 N 
HETATM    4  C   UNL     1      29.887  47.166  39.374  1.00  0.00     0.735 A 
HETATM    5  N   UNL     1      29.632  48.424  38.904  1.00  0.00    -0.092 N 
HETATM    6  N   UNL     1      28.644  48.390  37.998  1.00  0.00     0.012 NA
HETATM    7  N   UNL     1      28.277  47.113  37.953  1.00  0.00     0.033 NA
HETATM    8  N   UNL     1      29.044  46.341  38.806  1.00  0.00     0.030 NA
HETATM    9  C   UNL     1      30.363  49.624  39.301  1.00  0.00     0.199 C 
HETATM   10  C   UNL     1      31.550  49.265  40.194  1.00  0.00     0.062 C 
HETATM   11  H   UNL     1      31.136  46.030  40.516  1.00  0.00     0.184 HD
ENDROOT
BRANCH  10  12
HETATM   12  C   UNL     1      32.465  50.405  40.462  1.00  0.00     0.256 C 
HETATM   13  N   UNL     1      33.253  50.744  39.386  1.00  0.00    -0.322 N 
HETATM   14  H   UNL     1      33.164  50.188  38.544  1.00  0.00     0.169 HD
HETATM   15  O   UNL     1      32.489  50.892  41.585  1.00  0.00    -0.267 OA
BRANCH  13  16
HETATM   16  C   UNL     1      34.190  51.798  39.333  1.00  0.00     0.052 A 
HETATM   17  C   UNL     1      33.873  53.153  39.282  1.00  0.00     0.145 A 
HETATM   18  N   UNL     1      34.795  54.148  39.217  1.00  0.00    -0.271 NA
HETATM   19  C   UNL     1      36.091  53.781  39.200  1.00  0.00     0.116 A 
HETATM   20  C   UNL     1      36.513  52.464  39.247  1.00  0.00     0.021 A 
HETATM   21  C   UNL     1      35.546  51.461  39.317  1.00  0.00     0.032 A 
ENDBRANCH  13  16
ENDBRANCH  10  12
BRANCH   9  22
HETATM   22  C   UNL     1      29.437  50.626  39.971  1.00  0.00    -0.011 A 
HETATM   23  C   UNL     1      28.617  50.282  41.044  1.00  0.00     0.125 A 
HETATM   24  N   UNL     1      27.823  51.155  41.703  1.00  0.00    -0.272 NA
HETATM   25  C   UNL     1      27.823  52.432  41.265  1.00  0.00     0.116 A 
HETATM   26  C   UNL     1      28.599  52.881  40.210  1.00  0.00     0.020 A 
HETATM   27  C   UNL     1      29.421  51.966  39.561  1.00  0.00     0.012 A 
ENDBRANCH   9  22
TORSDOF 3
ENDMDL
MODEL 9
REMARK VINA RESULT:      -7.3      2.154      6.932
REMARK  3 active torsions:
REMARK  status: ('A' for Active; 'I' for Inactive)
REMARK    1  A    between atoms: C_9  and  C_10 
REMARK    2  A    between atoms: C_16  and  C_17 
REMARK       I    between atoms: C_17  and  N_18 
REMARK    3  A    between atoms: N_18  and  C_19 
ROOT
HETATM    1  C   UNL     1      26.592  40.288  50.590  1.00  0.00     0.070 C 
HETATM    2  C   UNL     1      26.906  41.592  51.279  1.00  0.00     0.037 C 
HETATM    3  N   UNL     1      28.103  41.623  51.990  1.00  0.00    -0.191 N 
HETATM    4  C   UNL     1      28.427  42.622  52.837  1.00  0.00     0.735 A 
HETATM    5  N   UNL     1      27.619  43.721  52.914  1.00  0.00    -0.092 N 
HETATM    6  N   UNL     1      28.071  44.567  53.852  1.00  0.00     0.012 NA
HETATM    7  N   UNL     1      29.178  43.992  54.312  1.00  0.00     0.033 NA
HETATM    8  N   UNL     1      29.410  42.779  53.688  1.00  0.00     0.030 NA
HETATM    9  C   UNL     1      26.411  43.922  52.118  1.00  0.00     0.199 C 
HETATM   10  C   UNL     1      26.087  42.672  51.300  1.00  0.00     0.062 C 
HETATM   11  H   UNL     1      28.656  40.769  52.018  1.00  0.00     0.184 HD
ENDROOT
BRANCH  10  12
HETATM   12  C   UNL     1      24.759  42.721  50.633  1.00  0.00     0.256 C 
HETATM   13  N   UNL     1      24.832  42.692  49.259  1.00  0.00    -0.322 N 
HETATM   14  H   UNL     1      25.752  42.669  48.837  1.00  0.00     0.169 HD
HETATM   15  O   UNL     1      23.756  42.841  51.323  1.00  0.00    -0.267 OA
BRANCH  13  16
HETATM   16  C   UNL     1      23.742  42.696  48.363  1.00  0.00     0.052 A 
HETATM   17  C   UNL     1      22.912  41.608  48.102  1.00  0.00     0.145 A 
HETATM   18  N   UNL     1      21.878  41.634  47.223  1.00  0.00    -0.271 NA
HETATM   19  C   UNL     1      21.657  42.793  46.571  1.00  0.00     0.116 A 
HETATM   20  C   UNL     1      22.422  43.931  46.757  1.00  0.00     0.021 A 
HETATM   21  C   UNL     1      23.476  43.879  47.669  1.00  0.00     0.032 A 
ENDBRANCH  13  16
ENDBRANCH  10  12
BRANCH   9  22
HETATM   22  C   UNL     1      26.541  45.154  51.237  1.00  0.00    -0.011 A 
HETATM   23  C   UNL     1      27.339  45.173  50.095  1.00  0.00     0.125 A 
HETATM   24  N   UNL     1      27.438  46.227  49.255  1.00  0.00    -0.272 NA
HETATM   25  C   UNL     1      26.726  47.330  49.572  1.00  0.00     0.116 A 
HETATM   26  C   UNL     1      25.902  47.418  50.680  1.00  0.00     0.020 A 
HETATM   27  C   UNL     1      25.804  46.312  51.518  1.00  0.00     0.012 A 
ENDBRANCH   9  22
TORSDOF 3
ENDMDL
MODEL 10
REMARK VINA RESULT:      -7.2     12.212     14.547
REMARK  3 active torsions:
REMARK  status: ('A' for Active; 'I' for Inactive)
REMARK    1  A    between atoms: C_9  and  C_10 
REMARK    2  A    between atoms: C_16  and  C_17 
REMARK       I    between atoms: C_17  and  N_18 
REMARK    3  A    between atoms: N_18  and  C_19 
ROOT
HETATM    1  C   UNL     1      32.076  47.146  40.616  1.00  0.00     0.070 C 
HETATM    2  C   UNL     1      32.114  48.543  41.184  1.00  0.00     0.037 C 
HETATM    3  N   UNL     1      33.383  49.079  41.379  1.00  0.00    -0.191 N 
HETATM    4  C   UNL     1      33.602  50.213  42.077  1.00  0.00     0.735 A 
HETATM    5  N   UNL     1      32.534  50.949  42.505  1.00  0.00    -0.092 N 
HETATM    6  N   UNL     1      32.952  51.997  43.230  1.00  0.00     0.012 NA
HETATM    7  N   UNL     1      34.278  51.912  43.204  1.00  0.00     0.033 NA
HETATM    8  N   UNL     1      34.696  50.804  42.488  1.00  0.00     0.030 NA
HETATM    9  C   UNL     1      31.136  50.615  42.247  1.00  0.00     0.199 C 
HETATM   10  C   UNL     1      31.022  49.252  41.565  1.00  0.00     0.062 C 
HETATM   11  H   UNL     1      34.183  48.489  41.156  1.00  0.00     0.184 HD
ENDROOT
BRANCH  10  12
HETATM   12  C   UNL     1      29.627  48.747  41.465  1.00  0.00     0.256 C 
HETATM   13  N   UNL     1      29.099  48.839  40.197  1.00  0.00    -0.322 N 
HETATM   14  H   UNL     1      29.675  49.254  39.476  1.00  0.00     0.169 HD
HETATM   15  O   UNL     1      29.062  48.365  42.481  1.00  0.00    -0.267 OA
BRANCH  13  16
HETATM   16  C   UNL     1      27.815  48.414  39.793  1.00  0.00     0.052 A 
HETATM   17  C   UNL     1      27.484  47.121  39.397  1.00  0.00     0.145 A 
HETATM   18  N   UNL     1      26.243  46.741  38.998  1.00  0.00    -0.271 NA
HETATM   19  C   UNL     1      25.286  47.690  38.990  1.00  0.00     0.116 A 
HETATM   20  C   UNL     1      25.509  49.003  39.365  1.00  0.00     0.021 A 
HETATM   21  C   UNL     1      26.792  49.366  39.774  1.00  0.00     0.032 A 
ENDBRANCH  13  16
ENDBRANCH  10  12
BRANCH   9  22
HETATM   22  C   UNL     1      30.458  51.708  41.436  1.00  0.00    -0.011 A 
HETATM   23  C   UNL     1      31.010  52.216  40.261  1.00  0.00     0.125 A 
HETATM   24  N   UNL     1      30.414  53.146  39.483  1.00  0.00    -0.272 NA
HETATM   25  C   UNL     1      29.218  53.614  39.897  1.00  0.00     0.116 A 
HETATM   26  C   UNL     1      28.580  53.178  41.045  1.00  0.00     0.020 A 
HETATM   27  C   UNL     1      29.207  52.207  41.819  1.00  0.00     0.012 A 
ENDBRANCH   9  22
TORSDOF 3
ENDMDL
