MODEL 1
REMARK VINA RESULT:      -7.5      0.000      0.000
REMARK  3 active torsions:
REMARK  status: ('A' for Active; 'I' for Inactive)
REMARK    1  A    between atoms: C_2  and  N_3 
REMARK    2  A    between atoms: N_10  and  C_11 
REMARK    3  A    between atoms: C_11  and  C_12 
ROOT
HETATM    1  N   UNL     1      29.677  44.928  56.007  1.00  0.00    -0.063 N 
HETATM    2  H   UNL     1      28.900  44.299  56.286  1.00  0.00     0.280 HD
HETATM    3  C   UNL     1      28.976  45.958  55.128  1.00  0.00     0.277 C 
HETATM    4  C   UNL     1      27.896  45.280  54.259  1.00  0.00     0.132 C 
HETATM    5  O   UNL     1      27.081  44.516  55.190  1.00  0.00    -0.373 OA
HETATM    6  C   UNL     1      25.882  44.015  54.571  1.00  0.00     0.199 C 
HETATM    7  C   UNL     1      25.019  45.166  54.031  1.00  0.00     0.299 C 
HETATM    8  N   UNL     1      25.739  46.032  53.085  1.00  0.00     0.097 N 
HETATM    9  C   UNL     1      27.054  46.415  53.602  1.00  0.00     0.314 C 
HETATM   10  C   UNL     1      28.570  44.355  53.218  1.00  0.00     0.209 C 
HETATM   11  O   UNL     1      28.853  43.065  53.746  1.00  0.00    -0.386 OA
HETATM   12  C   UNL     1      29.977  42.865  54.586  1.00  0.00     0.195 C 
HETATM   13  C   UNL     1      30.659  44.081  55.214  1.00  0.00     0.261 C 
ENDROOT
BRANCH   1  14
HETATM   14  C   UNL     1      30.277  45.468  57.300  1.00  0.00     0.180 C 
HETATM   15  C   UNL     1      31.173  44.420  57.956  1.00  0.00     0.039 C 
HETATM   16  C   UNL     1      29.189  45.970  58.243  1.00  0.00     0.039 C 
ENDBRANCH   1  14
BRANCH   8  17
HETATM   17  C   UNL     1      25.709  45.559  51.702  1.00  0.00     0.311 C 
BRANCH  17  18
HETATM   18  C   UNL     1      25.525  46.719  50.748  1.00  0.00    -0.030 A 
HETATM   19  C   UNL     1      24.232  47.085  50.332  1.00  0.00     0.012 A 
HETATM   20  C   UNL     1      24.046  48.151  49.452  1.00  0.00     0.043 A 
HETATM   21  C   UNL     1      25.152  48.850  48.980  1.00  0.00     0.116 A 
HETATM   22  F   UNL     1      24.974  49.873  48.137  1.00  0.00    -0.206 F 
HETATM   23  C   UNL     1      26.439  48.496  49.370  1.00  0.00     0.043 A 
HETATM   24  C   UNL     1      26.627  47.429  50.252  1.00  0.00     0.012 A 
ENDBRANCH  17  18
ENDBRANCH   8  17
TORSDOF 3
ENDMDL
MODEL 2
REMARK VINA RESULT:      -7.3      4.137      8.124
REMARK  3 active torsions:
REMARK  status: ('A' for Active; 'I' for Inactive)
REMARK    1  A    between atoms: C_2  and  N_3 
REMARK    2  A    between atoms: N_10  and  C_11 
REMARK    3  A    between atoms: C_11  and  C_12 
ROOT
HETATM    1  N   UNL     1      24.087  49.031  49.193  1.00  0.00    -0.063 N 
HETATM    2  H   UNL     1      24.368  49.295  50.157  1.00  0.00     0.280 HD
HETATM    3  C   UNL     1      24.165  47.509  49.226  1.00  0.00     0.277 C 
HETATM    4  C   UNL     1      25.379  47.048  50.059  1.00  0.00     0.132 C 
HETATM    5  O   UNL     1      25.259  47.748  51.328  1.00  0.00    -0.373 OA
HETATM    6  C   UNL     1      26.183  47.245  52.310  1.00  0.00     0.199 C 
HETATM    7  C   UNL     1      25.946  45.751  52.576  1.00  0.00     0.299 C 
HETATM    8  N   UNL     1      26.023  44.929  51.359  1.00  0.00     0.097 N 
HETATM    9  C   UNL     1      25.239  45.510  50.269  1.00  0.00     0.314 C 
HETATM   10  C   UNL     1      26.688  47.436  49.330  1.00  0.00     0.209 C 
HETATM   11  O   UNL     1      27.089  48.770  49.615  1.00  0.00    -0.386 OA
HETATM   12  C   UNL     1      26.458  49.862  48.968  1.00  0.00     0.195 C 
HETATM   13  C   UNL     1      25.123  49.632  48.258  1.00  0.00     0.261 C 
ENDROOT
BRANCH   1  14
HETATM   14  C   UNL     1      22.694  49.612  48.979  1.00  0.00     0.180 C 
HETATM   15  C   UNL     1      21.898  48.751  48.002  1.00  0.00     0.039 C 
HETATM   16  C   UNL     1      22.768  51.070  48.538  1.00  0.00     0.039 C 
ENDBRANCH   1  14
BRANCH   8  17
HETATM   17  C   UNL     1      27.377  44.499  51.014  1.00  0.00     0.311 C 
BRANCH  17  18
HETATM   18  C   UNL     1      27.756  43.261  51.797  1.00  0.00    -0.030 A 
HETATM   19  C   UNL     1      28.537  43.380  52.960  1.00  0.00     0.012 A 
HETATM   20  C   UNL     1      28.897  42.248  53.692  1.00  0.00     0.043 A 
HETATM   21  C   UNL     1      28.481  40.993  53.260  1.00  0.00     0.116 A 
HETATM   22  F   UNL     1      28.824  39.908  53.962  1.00  0.00    -0.206 F 
HETATM   23  C   UNL     1      27.719  40.854  52.106  1.00  0.00     0.043 A 
HETATM   24  C   UNL     1      27.358  41.986  51.372  1.00  0.00     0.012 A 
ENDBRANCH  17  18
ENDBRANCH   8  17
TORSDOF 3
ENDMDL
MODEL 3
REMARK VINA RESULT:      -7.3      3.857      8.167
REMARK  3 active torsions:
REMARK  status: ('A' for Active; 'I' for Inactive)
REMARK    1  A    between atoms: C_2  and  N_3 
REMARK    2  A    between atoms: N_10  and  C_11 
REMARK    3  A    between atoms: C_11  and  C_12 
ROOT
HETATM    1  N   UNL     1      23.081  45.437  48.682  1.00  0.00    -0.063 N 
HETATM    2  H   UNL     1      23.863  44.992  48.163  1.00  0.00     0.280 HD
HETATM    3  C   UNL     1      23.755  45.906  49.967  1.00  0.00     0.277 C 
HETATM    4  C   UNL     1      24.789  44.865  50.446  1.00  0.00     0.132 C 
HETATM    5  O   UNL     1      25.635  44.610  49.291  1.00  0.00    -0.373 OA
HETATM    6  C   UNL     1      26.801  43.839  49.637  1.00  0.00     0.199 C 
HETATM    7  C   UNL     1      27.652  44.570  50.687  1.00  0.00     0.299 C 
HETATM    8  N   UNL     1      26.901  44.905  51.907  1.00  0.00     0.097 N 
HETATM    9  C   UNL     1      25.614  45.526  51.590  1.00  0.00     0.314 C 
HETATM   10  C   UNL     1      24.060  43.577  50.899  1.00  0.00     0.209 C 
HETATM   11  O   UNL     1      23.786  42.701  49.813  1.00  0.00    -0.386 OA
HETATM   12  C   UNL     1      22.698  42.957  48.942  1.00  0.00     0.195 C 
HETATM   13  C   UNL     1      22.057  44.346  48.945  1.00  0.00     0.261 C 
ENDROOT
BRANCH   1  14
HETATM   14  C   UNL     1      22.544  46.544  47.782  1.00  0.00     0.180 C 
HETATM   15  C   UNL     1      22.414  47.852  48.559  1.00  0.00     0.039 C 
HETATM   16  C   UNL     1      21.233  46.129  47.123  1.00  0.00     0.039 C 
ENDBRANCH   1  14
BRANCH   8  17
HETATM   17  C   UNL     1      26.866  43.832  52.899  1.00  0.00     0.311 C 
BRANCH  17  18
HETATM   18  C   UNL     1      28.080  43.901  53.799  1.00  0.00    -0.030 A 
HETATM   19  C   UNL     1      28.263  45.010  54.644  1.00  0.00     0.012 A 
HETATM   20  C   UNL     1      29.379  45.090  55.478  1.00  0.00     0.043 A 
HETATM   21  C   UNL     1      30.317  44.063  55.465  1.00  0.00     0.116 A 
HETATM   22  F   UNL     1      31.386  44.138  56.266  1.00  0.00    -0.206 F 
HETATM   23  C   UNL     1      30.160  42.965  54.628  1.00  0.00     0.043 A 
HETATM   24  C   UNL     1      29.044  42.883  53.792  1.00  0.00     0.012 A 
ENDBRANCH  17  18
ENDBRANCH   8  17
TORSDOF 3
ENDMDL
MODEL 4
REMARK VINA RESULT:      -7.2      4.259      8.194
REMARK  3 active torsions:
REMARK  status: ('A' for Active; 'I' for Inactive)
REMARK    1  A    between atoms: C_2  and  N_3 
REMARK    2  A    between atoms: N_10  and  C_11 
REMARK    3  A    between atoms: C_11  and  C_12 
ROOT
HETATM    1  N   UNL     1      23.028  43.330  48.838  1.00  0.00    -0.063 N 
HETATM    2  H   UNL     1      23.881  43.638  48.332  1.00  0.00     0.280 HD
HETATM    3  C   UNL     1      23.360  43.660  50.289  1.00  0.00     0.277 C 
HETATM    4  C   UNL     1      24.845  43.358  50.585  1.00  0.00     0.132 C 
HETATM    5  O   UNL     1      25.589  44.048  49.544  1.00  0.00    -0.373 OA
HETATM    6  C   UNL     1      27.003  44.066  49.815  1.00  0.00     0.199 C 
HETATM    7  C   UNL     1      27.300  44.770  51.148  1.00  0.00     0.299 C 
HETATM    8  N   UNL     1      26.586  44.173  52.287  1.00  0.00     0.097 N 
HETATM    9  C   UNL     1      25.170  43.965  51.983  1.00  0.00     0.314 C 
HETATM   10  C   UNL     1      25.087  41.830  50.524  1.00  0.00     0.209 C 
HETATM   11  O   UNL     1      25.331  41.375  49.200  1.00  0.00    -0.386 OA
HETATM   12  C   UNL     1      24.257  41.196  48.293  1.00  0.00     0.195 C 
HETATM   13  C   UNL     1      22.904  41.832  48.612  1.00  0.00     0.261 C 
ENDROOT
BRANCH   1  14
HETATM   14  C   UNL     1      21.867  44.115  48.236  1.00  0.00     0.180 C 
HETATM   15  C   UNL     1      21.595  43.658  46.805  1.00  0.00     0.039 C 
HETATM   16  C   UNL     1      22.113  45.617  48.327  1.00  0.00     0.039 C 
ENDBRANCH   1  14
BRANCH   8  17
HETATM   17  C   UNL     1      27.281  43.043  52.901  1.00  0.00     0.311 C 
BRANCH  17  18
HETATM   18  C   UNL     1      28.330  43.532  53.875  1.00  0.00    -0.030 A 
HETATM   19  C   UNL     1      29.500  42.778  54.080  1.00  0.00     0.012 A 
HETATM   20  C   UNL     1      30.476  43.214  54.976  1.00  0.00     0.043 A 
HETATM   21  C   UNL     1      30.283  44.402  55.675  1.00  0.00     0.116 A 
HETATM   22  F   UNL     1      31.219  44.821  56.532  1.00  0.00    -0.206 F 
HETATM   23  C   UNL     1      29.128  45.154  55.495  1.00  0.00     0.043 A 
HETATM   24  C   UNL     1      28.150  44.719  54.598  1.00  0.00     0.012 A 
ENDBRANCH  17  18
ENDBRANCH   8  17
TORSDOF 3
ENDMDL
MODEL 5
REMARK VINA RESULT:      -6.9      6.848     11.533
REMARK  3 active torsions:
REMARK  status: ('A' for Active; 'I' for Inactive)
REMARK    1  A    between atoms: C_2  and  N_3 
REMARK    2  A    between atoms: N_10  and  C_11 
REMARK    3  A    between atoms: C_11  and  C_12 
ROOT
HETATM    1  N   UNL     1      17.433  51.016  47.322  1.00  0.00    -0.063 N 
HETATM    2  H   UNL     1      17.236  50.078  47.720  1.00  0.00     0.280 HD
HETATM    3  C   UNL     1      18.929  50.953  47.037  1.00  0.00     0.277 C 
HETATM    4  C   UNL     1      19.661  50.186  48.158  1.00  0.00     0.132 C 
HETATM    5  O   UNL     1      18.942  48.929  48.292  1.00  0.00    -0.373 OA
HETATM    6  C   UNL     1      19.643  47.994  49.133  1.00  0.00     0.199 C 
HETATM    7  C   UNL     1      21.035  47.678  48.564  1.00  0.00     0.299 C 
HETATM    8  N   UNL     1      21.861  48.878  48.362  1.00  0.00     0.097 N 
HETATM    9  C   UNL     1      21.118  49.931  47.669  1.00  0.00     0.314 C 
HETATM   10  C   UNL     1      19.603  51.003  49.471  1.00  0.00     0.209 C 
HETATM   11  O   UNL     1      18.401  50.776  50.196  1.00  0.00    -0.386 OA
HETATM   12  C   UNL     1      17.195  51.408  49.802  1.00  0.00     0.195 C 
HETATM   13  C   UNL     1      17.105  52.028  48.407  1.00  0.00     0.261 C 
ENDROOT
BRANCH   1  14
HETATM   14  C   UNL     1      16.537  51.157  46.096  1.00  0.00     0.180 C 
HETATM   15  C   UNL     1      17.371  51.459  44.853  1.00  0.00     0.039 C 
HETATM   16  C   UNL     1      15.448  52.199  46.328  1.00  0.00     0.039 C 
ENDBRANCH   1  14
BRANCH   8  17
HETATM   17  C   UNL     1      22.605  49.296  49.549  1.00  0.00     0.311 C 
BRANCH  17  18
HETATM   18  C   UNL     1      24.088  49.067  49.354  1.00  0.00    -0.030 A 
HETATM   19  C   UNL     1      24.832  49.945  48.546  1.00  0.00     0.012 A 
HETATM   20  C   UNL     1      26.200  49.746  48.355  1.00  0.00     0.043 A 
HETATM   21  C   UNL     1      26.826  48.665  48.967  1.00  0.00     0.116 A 
HETATM   22  F   UNL     1      28.137  48.475  48.785  1.00  0.00    -0.206 F 
HETATM   23  C   UNL     1      26.105  47.779  49.759  1.00  0.00     0.043 A 
HETATM   24  C   UNL     1      24.736  47.977  49.952  1.00  0.00     0.012 A 
ENDBRANCH  17  18
ENDBRANCH   8  17
TORSDOF 3
ENDMDL
MODEL 6
REMARK VINA RESULT:      -6.9     12.709     14.711
REMARK  3 active torsions:
REMARK  status: ('A' for Active; 'I' for Inactive)
REMARK    1  A    between atoms: C_2  and  N_3 
REMARK    2  A    between atoms: N_10  and  C_11 
REMARK    3  A    between atoms: C_11  and  C_12 
ROOT
HETATM    1  N   UNL     1      26.459  47.907  39.341  1.00  0.00    -0.063 N 
HETATM    2  H   UNL     1      27.079  48.284  38.599  1.00  0.00     0.280 HD
HETATM    3  C   UNL     1      26.975  48.602  40.596  1.00  0.00     0.277 C 
HETATM    4  C   UNL     1      28.514  48.708  40.560  1.00  0.00     0.132 C 
HETATM    5  O   UNL     1      28.824  49.312  39.274  1.00  0.00    -0.373 OA
HETATM    6  C   UNL     1      30.207  49.702  39.182  1.00  0.00     0.199 C 
HETATM    7  C   UNL     1      30.567  50.720  40.275  1.00  0.00     0.299 C 
HETATM    8  N   UNL     1      30.280  50.233  41.633  1.00  0.00     0.097 N 
HETATM    9  C   UNL     1      28.939  49.654  41.723  1.00  0.00     0.314 C 
HETATM   10  C   UNL     1      29.137  47.296  40.678  1.00  0.00     0.209 C 
HETATM   11  O   UNL     1      29.223  46.638  39.420  1.00  0.00    -0.386 OA
HETATM   12  C   UNL     1      28.076  46.036  38.845  1.00  0.00     0.195 C 
HETATM   13  C   UNL     1      26.695  46.406  39.387  1.00  0.00     0.261 C 
ENDROOT
BRANCH   1  14
HETATM   14  C   UNL     1      25.035  48.267  38.931  1.00  0.00     0.180 C 
HETATM   15  C   UNL     1      24.912  49.768  38.680  1.00  0.00     0.039 C 
HETATM   16  C   UNL     1      24.024  47.767  39.958  1.00  0.00     0.039 C 
ENDBRANCH   1  14
BRANCH   8  17
HETATM   17  C   UNL     1      31.359  49.442  42.223  1.00  0.00     0.311 C 
BRANCH  17  18
HETATM   18  C   UNL     1      32.439  50.347  42.776  1.00  0.00    -0.030 A 
HETATM   19  C   UNL     1      33.698  50.397  42.151  1.00  0.00     0.012 A 
HETATM   20  C   UNL     1      34.704  51.225  42.649  1.00  0.00     0.043 A 
HETATM   21  C   UNL     1      34.456  52.001  43.777  1.00  0.00     0.116 A 
HETATM   22  F   UNL     1      35.420  52.796  44.254  1.00  0.00    -0.206 F 
HETATM   23  C   UNL     1      33.222  51.956  44.416  1.00  0.00     0.043 A 
HETATM   24  C   UNL     1      32.214  51.128  43.918  1.00  0.00     0.012 A 
ENDBRANCH  17  18
ENDBRANCH   8  17
TORSDOF 3
ENDMDL
MODEL 7
REMARK VINA RESULT:      -6.8     15.382     17.701
REMARK  3 active torsions:
REMARK  status: ('A' for Active; 'I' for Inactive)
REMARK    1  A    between atoms: C_2  and  N_3 
REMARK    2  A    between atoms: N_10  and  C_11 
REMARK    3  A    between atoms: C_11  and  C_12 
ROOT
HETATM    1  N   UNL     1      38.090  47.863  65.985  1.00  0.00    -0.063 N 
HETATM    2  H   UNL     1      37.580  47.758  65.087  1.00  0.00     0.280 HD
HETATM    3  C   UNL     1      39.037  46.668  65.975  1.00  0.00     0.277 C 
HETATM    4  C   UNL     1      38.336  45.428  65.379  1.00  0.00     0.132 C 
HETATM    5  O   UNL     1      37.792  45.873  64.106  1.00  0.00    -0.373 OA
HETATM    6  C   UNL     1      37.313  44.773  63.311  1.00  0.00     0.199 C 
HETATM    7  C   UNL     1      38.442  43.775  63.014  1.00  0.00     0.299 C 
HETATM    8  N   UNL     1      39.092  43.260  64.229  1.00  0.00     0.097 N 
HETATM    9  C   UNL     1      39.430  44.342  65.155  1.00  0.00     0.314 C 
HETATM   10  C   UNL     1      37.211  44.958  66.332  1.00  0.00     0.209 C 
HETATM   11  O   UNL     1      35.994  45.662  66.119  1.00  0.00    -0.386 OA
HETATM   12  C   UNL     1      35.822  46.971  66.635  1.00  0.00     0.195 C 
HETATM   13  C   UNL     1      37.054  47.755  67.090  1.00  0.00     0.261 C 
ENDROOT
BRANCH   1  14
HETATM   14  C   UNL     1      38.761  49.231  65.938  1.00  0.00     0.180 C 
HETATM   15  C   UNL     1      37.728  50.342  66.110  1.00  0.00     0.039 C 
HETATM   16  C   UNL     1      39.583  49.397  64.664  1.00  0.00     0.039 C 
ENDBRANCH   1  14
BRANCH   8  17
HETATM   17  C   UNL     1      38.425  42.101  64.817  1.00  0.00     0.311 C 
BRANCH  17  18
HETATM   18  C   UNL     1      39.223  40.841  64.559  1.00  0.00    -0.030 A 
HETATM   19  C   UNL     1      40.007  40.286  65.586  1.00  0.00     0.012 A 
HETATM   20  C   UNL     1      40.750  39.127  65.363  1.00  0.00     0.043 A 
HETATM   21  C   UNL     1      40.716  38.522  64.111  1.00  0.00     0.116 A 
HETATM   22  F   UNL     1      41.426  37.410  63.897  1.00  0.00    -0.206 F 
HETATM   23  C   UNL     1      39.956  39.062  63.079  1.00  0.00     0.043 A 
HETATM   24  C   UNL     1      39.212  40.223  63.300  1.00  0.00     0.012 A 
ENDBRANCH  17  18
ENDBRANCH   8  17
TORSDOF 3
ENDMDL
MODEL 8
REMARK VINA RESULT:      -6.8     13.379     15.000
REMARK  3 active torsions:
REMARK  status: ('A' for Active; 'I' for Inactive)
REMARK    1  A    between atoms: C_2  and  N_3 
REMARK    2  A    between atoms: N_10  and  C_11 
REMARK    3  A    between atoms: C_11  and  C_12 
ROOT
HETATM    1  N   UNL     1      34.151  51.796  41.298  1.00  0.00    -0.063 N 
HETATM    2  H   UNL     1      33.843  52.765  41.505  1.00  0.00     0.280 HD
HETATM    3  C   UNL     1      33.069  51.295  40.348  1.00  0.00     0.277 C 
HETATM    4  C   UNL     1      31.684  51.816  40.784  1.00  0.00     0.132 C 
HETATM    5  O   UNL     1      31.846  53.253  40.929  1.00  0.00    -0.373 OA
HETATM    6  C   UNL     1      30.583  53.923  41.100  1.00  0.00     0.199 C 
HETATM    7  C   UNL     1      29.662  53.676  39.895  1.00  0.00     0.299 C 
HETATM    8  N   UNL     1      29.432  52.248  39.628  1.00  0.00     0.097 N 
HETATM    9  C   UNL     1      30.685  51.493  39.632  1.00  0.00     0.314 C 
HETATM   10  C   UNL     1      31.280  51.161  42.127  1.00  0.00     0.209 C 
HETATM   11  O   UNL     1      31.816  51.854  43.247  1.00  0.00    -0.386 OA
HETATM   12  C   UNL     1      33.172  51.677  43.620  1.00  0.00     0.195 C 
HETATM   13  C   UNL     1      34.138  51.043  42.618  1.00  0.00     0.261 C 
ENDROOT
BRANCH   1  14
HETATM   14  C   UNL     1      35.549  51.910  40.699  1.00  0.00     0.180 C 
HETATM   15  C   UNL     1      35.543  52.853  39.499  1.00  0.00     0.039 C 
HETATM   16  C   UNL     1      36.112  50.536  40.353  1.00  0.00     0.039 C 
ENDBRANCH   1  14
BRANCH   8  17
HETATM   17  C   UNL     1      28.333  51.667  40.397  1.00  0.00     0.311 C 
BRANCH  17  18
HETATM   18  C   UNL     1      27.749  50.475  39.671  1.00  0.00    -0.030 A 
HETATM   19  C   UNL     1      27.121  50.653  38.426  1.00  0.00     0.012 A 
HETATM   20  C   UNL     1      26.576  49.564  37.745  1.00  0.00     0.043 A 
HETATM   21  C   UNL     1      26.653  48.295  38.310  1.00  0.00     0.116 A 
HETATM   22  F   UNL     1      26.132  47.251  37.657  1.00  0.00    -0.206 F 
HETATM   23  C   UNL     1      27.259  48.101  39.546  1.00  0.00     0.043 A 
HETATM   24  C   UNL     1      27.805  49.190  40.229  1.00  0.00     0.012 A 
ENDBRANCH  17  18
ENDBRANCH   8  17
TORSDOF 3
ENDMDL
MODEL 9
REMARK VINA RESULT:      -6.8     12.285     13.753
REMARK  3 active torsions:
REMARK  status: ('A' for Active; 'I' for Inactive)
REMARK    1  A    between atoms: C_2  and  N_3 
REMARK    2  A    between atoms: N_10  and  C_11 
REMARK    3  A    between atoms: C_11  and  C_12 
ROOT
HETATM    1  N   UNL     1      31.678  51.506  42.257  1.00  0.00    -0.063 N 
HETATM    2  H   UNL     1      31.949  51.545  41.256  1.00  0.00     0.280 HD
HETATM    3  C   UNL     1      31.181  50.074  42.416  1.00  0.00     0.277 C 
HETATM    4  C   UNL     1      30.391  49.635  41.164  1.00  0.00     0.132 C 
HETATM    5  O   UNL     1      31.265  49.929  40.040  1.00  0.00    -0.373 OA
HETATM    6  C   UNL     1      30.775  49.357  38.813  1.00  0.00     0.199 C 
HETATM    7  C   UNL     1      30.657  47.829  38.926  1.00  0.00     0.299 C 
HETATM    8  N   UNL     1      29.807  47.398  40.047  1.00  0.00     0.097 N 
HETATM    9  C   UNL     1      30.154  48.099  41.283  1.00  0.00     0.314 C 
HETATM   10  C   UNL     1      29.073  50.440  41.072  1.00  0.00     0.209 C 
HETATM   11  O   UNL     1      29.252  51.697  40.432  1.00  0.00    -0.386 OA
HETATM   12  C   UNL     1      29.816  52.788  41.138  1.00  0.00     0.195 C 
HETATM   13  C   UNL     1      30.560  52.518  42.446  1.00  0.00     0.261 C 
ENDROOT
BRANCH   1  14
HETATM   14  C   UNL     1      32.931  51.858  43.053  1.00  0.00     0.180 C 
HETATM   15  C   UNL     1      34.099  50.969  42.633  1.00  0.00     0.039 C 
HETATM   16  C   UNL     1      32.666  51.794  44.553  1.00  0.00     0.039 C 
ENDBRANCH   1  14
BRANCH   8  17
HETATM   17  C   UNL     1      28.383  47.334  39.725  1.00  0.00     0.311 C 
BRANCH  17  18
HETATM   18  C   UNL     1      27.741  46.136  40.391  1.00  0.00    -0.030 A 
HETATM   19  C   UNL     1      28.133  44.837  40.022  1.00  0.00     0.012 A 
HETATM   20  C   UNL     1      27.550  43.722  40.625  1.00  0.00     0.043 A 
HETATM   21  C   UNL     1      26.570  43.903  41.595  1.00  0.00     0.116 A 
HETATM   22  F   UNL     1      26.012  42.835  42.174  1.00  0.00    -0.206 F 
HETATM   23  C   UNL     1      26.160  45.179  41.964  1.00  0.00     0.043 A 
HETATM   24  C   UNL     1      26.743  46.296  41.362  1.00  0.00     0.012 A 
ENDBRANCH  17  18
ENDBRANCH   8  17
TORSDOF 3
ENDMDL
MODEL 10
REMARK VINA RESULT:      -6.7      6.400      8.739
REMARK  3 active torsions:
REMARK  status: ('A' for Active; 'I' for Inactive)
REMARK    1  A    between atoms: C_2  and  N_3 
REMARK    2  A    between atoms: N_10  and  C_11 
REMARK    3  A    between atoms: C_11  and  C_12 
ROOT
HETATM    1  N   UNL     1      26.731  38.432  47.751  1.00  0.00    -0.063 N 
HETATM    2  H   UNL     1      25.918  39.043  47.546  1.00  0.00     0.280 HD
HETATM    3  C   UNL     1      27.140  38.876  49.151  1.00  0.00     0.277 C 
HETATM    4  C   UNL     1      26.997  40.406  49.296  1.00  0.00     0.132 C 
HETATM    5  O   UNL     1      25.643  40.705  48.858  1.00  0.00    -0.373 OA
HETATM    6  C   UNL     1      25.267  42.062  49.158  1.00  0.00     0.199 C 
HETATM    7  C   UNL     1      25.341  42.332  50.668  1.00  0.00     0.299 C 
HETATM    8  N   UNL     1      26.665  42.048  51.242  1.00  0.00     0.097 N 
HETATM    9  C   UNL     1      27.169  40.745  50.807  1.00  0.00     0.314 C 
HETATM   10  C   UNL     1      28.042  41.113  48.400  1.00  0.00     0.209 C 
HETATM   11  O   UNL     1      27.588  41.268  47.061  1.00  0.00    -0.386 OA
HETATM   12  C   UNL     1      27.623  40.174  46.161  1.00  0.00     0.195 C 
HETATM   13  C   UNL     1      27.796  38.761  46.718  1.00  0.00     0.261 C 
ENDROOT
BRANCH   1  14
HETATM   14  C   UNL     1      26.226  36.997  47.640  1.00  0.00     0.180 C 
HETATM   15  C   UNL     1      27.256  36.120  46.932  1.00  0.00     0.039 C 
HETATM   16  C   UNL     1      24.860  36.946  46.964  1.00  0.00     0.039 C 
ENDBRANCH   1  14
BRANCH   8  17
HETATM   17  C   UNL     1      27.607  43.162  51.148  1.00  0.00     0.311 C 
BRANCH  17  18
HETATM   18  C   UNL     1      28.361  43.330  52.449  1.00  0.00    -0.030 A 
HETATM   19  C   UNL     1      27.792  44.076  53.496  1.00  0.00     0.012 A 
HETATM   20  C   UNL     1      28.475  44.242  54.701  1.00  0.00     0.043 A 
HETATM   21  C   UNL     1      29.732  43.668  54.860  1.00  0.00     0.116 A 
HETATM   22  F   UNL     1      30.387  43.825  56.015  1.00  0.00    -0.206 F 
HETATM   23  C   UNL     1      30.317  42.937  53.832  1.00  0.00     0.043 A 
HETATM   24  C   UNL     1      29.634  42.770  52.625  1.00  0.00     0.012 A 
ENDBRANCH  17  18
ENDBRANCH   8  17
TORSDOF 3
ENDMDL
