MODEL 1
REMARK VINA RESULT:      -9.4      0.000      0.000
REMARK  4 active torsions:
REMARK  status: ('A' for Active; 'I' for Inactive)
REMARK    1  A    between atoms: C_2  and  C_3 
REMARK    2  A    between atoms: C_3  and  C_4 
REMARK       I    between atoms: C_4  and  N_5 
REMARK    3  A    between atoms: N_5  and  C_6 
REMARK    4  A    between atoms: C_13  and  C_14 
REMARK       I    between atoms: C_14  and  N_15 
ROOT
HETATM    1  C   UNL     1      25.220  47.073  50.791  1.00  0.00     0.035 A 
HETATM    2  C   UNL     1      24.250  47.611  49.946  1.00  0.00     0.046 A 
HETATM    3  C   UNL     1      24.599  48.622  49.021  1.00  0.00     0.030 A 
HETATM    4  C   UNL     1      25.922  49.029  48.938  1.00  0.00     0.063 A 
HETATM    5  N   UNL     1      25.940  50.007  47.982  1.00  0.00    -0.277 N 
HETATM    6  H   UNL     1      26.743  50.534  47.657  1.00  0.00     0.189 HD
HETATM    7  N   UNL     1      24.735  50.299  47.462  1.00  0.00    -0.168 NA
HETATM    8  C   UNL     1      23.895  49.448  48.095  1.00  0.00     0.156 A 
HETATM    9  C   UNL     1      26.931  48.491  49.735  1.00  0.00     0.034 A 
HETATM   10  C   UNL     1      26.545  47.523  50.675  1.00  0.00     0.032 A 
ENDROOT
BRANCH   1  11
HETATM   11  N   UNL     1      24.952  46.191  51.848  1.00  0.00    -0.326 N 
HETATM   12  C   UNL     1      25.294  44.891  52.136  1.00  0.00     0.235 C 
HETATM   13  O   UNL     1      24.660  44.314  53.022  1.00  0.00    -0.272 OA
HETATM   14  H   UNL     1      24.321  46.540  52.560  1.00  0.00     0.169 HD
BRANCH  12  15
HETATM   15  C   UNL     1      26.521  44.221  51.564  1.00  0.00     0.068 A 
HETATM   16  C   UNL     1      26.785  44.201  50.062  1.00  0.00     0.026 A 
HETATM   17  C   UNL     1      26.238  42.973  50.690  1.00  0.00     0.026 A 
BRANCH  15  18
HETATM   18  C   UNL     1      27.663  44.009  52.568  1.00  0.00    -0.040 A 
HETATM   19  C   UNL     1      27.661  44.694  53.800  1.00  0.00     0.010 A 
HETATM   20  C   UNL     1      28.685  44.532  54.737  1.00  0.00     0.024 A 
HETATM   21  C   UNL     1      29.746  43.683  54.449  1.00  0.00     0.034 A 
HETATM   22  C   UNL     1      29.785  42.997  53.237  1.00  0.00     0.024 A 
HETATM   23 CL   UNL     1      31.014  43.481  55.593  1.00  0.00    -0.084 Cl
HETATM   24  C   UNL     1      28.752  43.160  52.307  1.00  0.00     0.010 A 
ENDBRANCH  15  18
ENDBRANCH  12  15
ENDBRANCH   1  11
BRANCH   8  25
HETATM   25  C   UNL     1      22.449  49.462  47.839  1.00  0.00     0.270 C 
HETATM   26  N   UNL     1      21.838  50.651  48.126  1.00  0.00    -0.365 N 
HETATM   27  H   UNL     1      22.399  51.408  48.503  1.00  0.00     0.159 HD
HETATM   28  H   UNL     1      20.840  50.740  48.023  1.00  0.00     0.159 HD
HETATM   29  O   UNL     1      21.812  48.500  47.420  1.00  0.00    -0.266 OA
ENDBRANCH   8  25
TORSDOF 4
ENDMDL
MODEL 2
REMARK VINA RESULT:      -9.2      5.802      7.811
REMARK  4 active torsions:
REMARK  status: ('A' for Active; 'I' for Inactive)
REMARK    1  A    between atoms: C_2  and  C_3 
REMARK    2  A    between atoms: C_3  and  C_4 
REMARK       I    between atoms: C_4  and  N_5 
REMARK    3  A    between atoms: N_5  and  C_6 
REMARK    4  A    between atoms: C_13  and  C_14 
REMARK       I    between atoms: C_14  and  N_15 
ROOT
HETATM    1  C   UNL     1      27.301  41.704  51.352  1.00  0.00     0.035 A 
HETATM    2  C   UNL     1      28.011  40.518  51.165  1.00  0.00     0.046 A 
HETATM    3  C   UNL     1      28.186  39.996  49.863  1.00  0.00     0.030 A 
HETATM    4  C   UNL     1      27.684  40.705  48.782  1.00  0.00     0.063 A 
HETATM    5  N   UNL     1      27.993  39.953  47.681  1.00  0.00    -0.277 N 
HETATM    6  H   UNL     1      27.779  40.164  46.713  1.00  0.00     0.189 HD
HETATM    7  N   UNL     1      28.620  38.796  47.957  1.00  0.00    -0.168 NA
HETATM    8  C   UNL     1      28.747  38.810  49.303  1.00  0.00     0.156 A 
HETATM    9  C   UNL     1      27.002  41.913  48.919  1.00  0.00     0.034 A 
HETATM   10  C   UNL     1      26.805  42.382  50.227  1.00  0.00     0.032 A 
ENDROOT
BRANCH   1  11
HETATM   11  N   UNL     1      26.932  42.220  52.603  1.00  0.00    -0.326 N 
HETATM   12  C   UNL     1      27.618  42.687  53.699  1.00  0.00     0.235 C 
HETATM   13  O   UNL     1      26.994  42.811  54.756  1.00  0.00    -0.272 OA
HETATM   14  H   UNL     1      25.939  42.216  52.802  1.00  0.00     0.169 HD
BRANCH  12  15
HETATM   15  C   UNL     1      29.023  43.234  53.614  1.00  0.00     0.068 A 
HETATM   16  C   UNL     1      29.724  43.409  52.271  1.00  0.00     0.026 A 
HETATM   17  C   UNL     1      30.086  42.230  53.096  1.00  0.00     0.026 A 
BRANCH  15  18
HETATM   18  C   UNL     1      29.484  44.017  54.851  1.00  0.00    -0.040 A 
HETATM   19  C   UNL     1      28.905  45.266  55.156  1.00  0.00     0.010 A 
HETATM   20  C   UNL     1      29.303  46.011  56.270  1.00  0.00     0.024 A 
HETATM   21  C   UNL     1      30.304  45.521  57.098  1.00  0.00     0.034 A 
HETATM   22  C   UNL     1      30.904  44.295  56.822  1.00  0.00     0.024 A 
HETATM   23 CL   UNL     1      30.803  46.433  58.468  1.00  0.00    -0.084 Cl
HETATM   24  C   UNL     1      30.495  43.551  55.708  1.00  0.00     0.010 A 
ENDBRANCH  15  18
ENDBRANCH  12  15
ENDBRANCH   1  11
BRANCH   8  25
HETATM   25  C   UNL     1      29.360  37.690  50.029  1.00  0.00     0.270 C 
HETATM   26  N   UNL     1      28.476  36.722  50.421  1.00  0.00    -0.365 N 
HETATM   27  H   UNL     1      27.491  36.849  50.210  1.00  0.00     0.159 HD
HETATM   28  H   UNL     1      28.798  35.938  50.964  1.00  0.00     0.159 HD
HETATM   29  O   UNL     1      30.555  37.608  50.293  1.00  0.00    -0.266 OA
ENDBRANCH   8  25
TORSDOF 4
ENDMDL
MODEL 3
REMARK VINA RESULT:      -9.2      4.438      6.412
REMARK  4 active torsions:
REMARK  status: ('A' for Active; 'I' for Inactive)
REMARK    1  A    between atoms: C_2  and  C_3 
REMARK    2  A    between atoms: C_3  and  C_4 
REMARK       I    between atoms: C_4  and  N_5 
REMARK    3  A    between atoms: N_5  and  C_6 
REMARK    4  A    between atoms: C_13  and  C_14 
REMARK       I    between atoms: C_14  and  N_15 
ROOT
HETATM    1  C   UNL     1      25.639  43.208  51.558  1.00  0.00     0.035 A 
HETATM    2  C   UNL     1      26.579  42.181  51.480  1.00  0.00     0.046 A 
HETATM    3  C   UNL     1      27.061  41.757  50.220  1.00  0.00     0.030 A 
HETATM    4  C   UNL     1      26.620  42.408  49.078  1.00  0.00     0.063 A 
HETATM    5  N   UNL     1      27.241  41.774  48.037  1.00  0.00    -0.277 N 
HETATM    6  H   UNL     1      27.154  41.984  47.049  1.00  0.00     0.189 HD
HETATM    7  N   UNL     1      28.020  40.740  48.401  1.00  0.00    -0.168 NA
HETATM    8  C   UNL     1      27.918  40.718  49.750  1.00  0.00     0.156 A 
HETATM    9  C   UNL     1      25.711  43.464  49.112  1.00  0.00     0.034 A 
HETATM   10  C   UNL     1      25.217  43.832  50.374  1.00  0.00     0.032 A 
ENDROOT
BRANCH   1  11
HETATM   11  N   UNL     1      24.979  43.593  52.734  1.00  0.00    -0.326 N 
HETATM   12  C   UNL     1      25.314  44.356  53.828  1.00  0.00     0.235 C 
HETATM   13  O   UNL     1      24.597  44.270  54.828  1.00  0.00    -0.272 OA
HETATM   14  H   UNL     1      24.057  43.194  52.869  1.00  0.00     0.169 HD
BRANCH  12  15
HETATM   15  C   UNL     1      26.381  45.424  53.785  1.00  0.00     0.068 A 
HETATM   16  C   UNL     1      26.024  46.890  53.566  1.00  0.00     0.026 A 
HETATM   17  C   UNL     1      26.552  46.123  52.411  1.00  0.00     0.026 A 
BRANCH  15  18
HETATM   18  C   UNL     1      27.715  45.025  54.430  1.00  0.00    -0.040 A 
HETATM   19  C   UNL     1      28.296  43.772  54.142  1.00  0.00     0.010 A 
HETATM   20  C   UNL     1      29.505  43.371  54.714  1.00  0.00     0.024 A 
HETATM   21  C   UNL     1      30.156  44.217  55.603  1.00  0.00     0.034 A 
HETATM   22  C   UNL     1      29.606  45.458  55.917  1.00  0.00     0.024 A 
HETATM   23 CL   UNL     1      31.643  43.730  56.316  1.00  0.00    -0.084 Cl
HETATM   24  C   UNL     1      28.397  45.856  55.334  1.00  0.00     0.010 A 
ENDBRANCH  15  18
ENDBRANCH  12  15
ENDBRANCH   1  11
BRANCH   8  25
HETATM   25  C   UNL     1      28.602  39.698  50.556  1.00  0.00     0.270 C 
HETATM   26  N   UNL     1      29.041  40.145  51.773  1.00  0.00    -0.365 N 
HETATM   27  H   UNL     1      28.889  41.117  52.017  1.00  0.00     0.159 HD
HETATM   28  H   UNL     1      29.560  39.528  52.376  1.00  0.00     0.159 HD
HETATM   29  O   UNL     1      28.795  38.543  50.192  1.00  0.00    -0.266 OA
ENDBRANCH   8  25
TORSDOF 4
ENDMDL
MODEL 4
REMARK VINA RESULT:      -9.0      4.287      7.507
REMARK  4 active torsions:
REMARK  status: ('A' for Active; 'I' for Inactive)
REMARK    1  A    between atoms: C_2  and  C_3 
REMARK    2  A    between atoms: C_3  and  C_4 
REMARK       I    between atoms: C_4  and  N_5 
REMARK    3  A    between atoms: N_5  and  C_6 
REMARK    4  A    between atoms: C_13  and  C_14 
REMARK       I    between atoms: C_14  and  N_15 
ROOT
HETATM    1  C   UNL     1      26.059  44.316  53.590  1.00  0.00     0.035 A 
HETATM    2  C   UNL     1      27.293  43.901  54.090  1.00  0.00     0.046 A 
HETATM    3  C   UNL     1      28.143  44.828  54.735  1.00  0.00     0.030 A 
HETATM    4  C   UNL     1      27.710  46.134  54.901  1.00  0.00     0.063 A 
HETATM    5  N   UNL     1      28.737  46.779  55.534  1.00  0.00    -0.277 N 
HETATM    6  H   UNL     1      28.772  47.753  55.816  1.00  0.00     0.189 HD
HETATM    7  N   UNL     1      29.819  46.013  55.759  1.00  0.00    -0.168 NA
HETATM    8  C   UNL     1      29.465  44.802  55.271  1.00  0.00     0.156 A 
HETATM    9  C   UNL     1      26.469  46.584  54.451  1.00  0.00     0.034 A 
HETATM   10  C   UNL     1      25.667  45.651  53.776  1.00  0.00     0.032 A 
ENDROOT
BRANCH   1  11
HETATM   11  N   UNL     1      25.216  43.524  52.797  1.00  0.00    -0.326 N 
HETATM   12  C   UNL     1      24.861  43.515  51.469  1.00  0.00     0.235 C 
HETATM   13  O   UNL     1      23.874  42.851  51.143  1.00  0.00    -0.272 OA
HETATM   14  H   UNL     1      24.690  42.813  53.292  1.00  0.00     0.169 HD
BRANCH  12  15
HETATM   15  C   UNL     1      25.730  44.109  50.385  1.00  0.00     0.068 A 
HETATM   16  C   UNL     1      26.493  43.221  49.408  1.00  0.00     0.026 A 
HETATM   17  C   UNL     1      27.247  43.825  50.535  1.00  0.00     0.026 A 
BRANCH  15  18
HETATM   18  C   UNL     1      25.421  45.573  50.043  1.00  0.00    -0.040 A 
HETATM   19  C   UNL     1      24.109  45.958  49.696  1.00  0.00     0.010 A 
HETATM   20  C   UNL     1      23.789  47.279  49.372  1.00  0.00     0.024 A 
HETATM   21  C   UNL     1      24.787  48.245  49.378  1.00  0.00     0.034 A 
HETATM   22  C   UNL     1      26.095  47.898  49.708  1.00  0.00     0.024 A 
HETATM   23 CL   UNL     1      24.405  49.873  48.976  1.00  0.00    -0.084 Cl
HETATM   24  C   UNL     1      26.407  46.573  50.038  1.00  0.00     0.010 A 
ENDBRANCH  15  18
ENDBRANCH  12  15
ENDBRANCH   1  11
BRANCH   8  25
HETATM   25  C   UNL     1      30.394  43.664  55.289  1.00  0.00     0.270 C 
HETATM   26  N   UNL     1      31.011  43.461  56.493  1.00  0.00    -0.365 N 
HETATM   27  H   UNL     1      30.810  44.099  57.256  1.00  0.00     0.159 HD
HETATM   28  H   UNL     1      31.698  42.731  56.588  1.00  0.00     0.159 HD
HETATM   29  O   UNL     1      30.630  42.949  54.321  1.00  0.00    -0.266 OA
ENDBRANCH   8  25
TORSDOF 4
ENDMDL
MODEL 5
REMARK VINA RESULT:      -8.8      4.570      7.154
REMARK  4 active torsions:
REMARK  status: ('A' for Active; 'I' for Inactive)
REMARK    1  A    between atoms: C_2  and  C_3 
REMARK    2  A    between atoms: C_3  and  C_4 
REMARK       I    between atoms: C_4  and  N_5 
REMARK    3  A    between atoms: N_5  and  C_6 
REMARK    4  A    between atoms: C_13  and  C_14 
REMARK       I    between atoms: C_14  and  N_15 
ROOT
HETATM    1  C   UNL     1      26.079  44.322  53.736  1.00  0.00     0.035 A 
HETATM    2  C   UNL     1      27.325  43.874  54.172  1.00  0.00     0.046 A 
HETATM    3  C   UNL     1      28.198  44.757  54.848  1.00  0.00     0.030 A 
HETATM    4  C   UNL     1      27.775  46.052  55.107  1.00  0.00     0.063 A 
HETATM    5  N   UNL     1      28.823  46.654  55.748  1.00  0.00    -0.277 N 
HETATM    6  H   UNL     1      28.869  47.608  56.089  1.00  0.00     0.189 HD
HETATM    7  N   UNL     1      29.908  45.873  55.894  1.00  0.00    -0.168 NA
HETATM    8  C   UNL     1      29.535  44.696  55.342  1.00  0.00     0.156 A 
HETATM    9  C   UNL     1      26.523  46.530  54.723  1.00  0.00     0.034 A 
HETATM   10  C   UNL     1      25.697  45.643  54.015  1.00  0.00     0.032 A 
ENDROOT
BRANCH   1  11
HETATM   11  N   UNL     1      25.210  43.582  52.920  1.00  0.00    -0.326 N 
HETATM   12  C   UNL     1      25.058  43.418  51.564  1.00  0.00     0.235 C 
HETATM   13  O   UNL     1      24.010  42.908  51.161  1.00  0.00    -0.272 OA
HETATM   14  H   UNL     1      24.478  43.077  53.406  1.00  0.00     0.169 HD
BRANCH  12  15
HETATM   15  C   UNL     1      26.182  43.645  50.581  1.00  0.00     0.068 A 
HETATM   16  C   UNL     1      26.814  45.022  50.405  1.00  0.00     0.026 A 
HETATM   17  C   UNL     1      25.831  44.572  49.388  1.00  0.00     0.026 A 
BRANCH  15  18
HETATM   18  C   UNL     1      26.932  42.374  50.157  1.00  0.00    -0.040 A 
HETATM   19  C   UNL     1      27.637  41.615  51.114  1.00  0.00     0.010 A 
HETATM   20  C   UNL     1      28.337  40.457  50.767  1.00  0.00     0.024 A 
HETATM   21  C   UNL     1      28.355  40.040  49.442  1.00  0.00     0.034 A 
HETATM   22  C   UNL     1      27.677  40.771  48.469  1.00  0.00     0.024 A 
HETATM   23 CL   UNL     1      29.217  38.618  49.003  1.00  0.00    -0.084 Cl
HETATM   24  C   UNL     1      26.972  41.927  48.826  1.00  0.00     0.010 A 
ENDBRANCH  15  18
ENDBRANCH  12  15
ENDBRANCH   1  11
BRANCH   8  25
HETATM   25  C   UNL     1      30.459  43.557  55.262  1.00  0.00     0.270 C 
HETATM   26  N   UNL     1      31.125  43.290  56.427  1.00  0.00    -0.365 N 
HETATM   27  H   UNL     1      30.958  43.887  57.230  1.00  0.00     0.159 HD
HETATM   28  H   UNL     1      31.812  42.555  56.455  1.00  0.00     0.159 HD
HETATM   29  O   UNL     1      30.653  42.893  54.249  1.00  0.00    -0.266 OA
ENDBRANCH   8  25
TORSDOF 4
ENDMDL
MODEL 6
REMARK VINA RESULT:      -8.6      5.578      7.695
REMARK  4 active torsions:
REMARK  status: ('A' for Active; 'I' for Inactive)
REMARK    1  A    between atoms: C_2  and  C_3 
REMARK    2  A    between atoms: C_3  and  C_4 
REMARK       I    between atoms: C_4  and  N_5 
REMARK    3  A    between atoms: N_5  and  C_6 
REMARK    4  A    between atoms: C_13  and  C_14 
REMARK       I    between atoms: C_14  and  N_15 
ROOT
HETATM    1  C   UNL     1      27.225  41.612  51.304  1.00  0.00     0.035 A 
HETATM    2  C   UNL     1      28.013  40.551  50.857  1.00  0.00     0.046 A 
HETATM    3  C   UNL     1      28.185  40.333  49.471  1.00  0.00     0.030 A 
HETATM    4  C   UNL     1      27.599  41.213  48.575  1.00  0.00     0.063 A 
HETATM    5  N   UNL     1      27.927  40.738  47.334  1.00  0.00    -0.277 N 
HETATM    6  H   UNL     1      27.668  41.133  46.437  1.00  0.00     0.189 HD
HETATM    7  N   UNL     1      28.645  39.601  47.346  1.00  0.00    -0.168 NA
HETATM    8  C   UNL     1      28.812  39.339  48.662  1.00  0.00     0.156 A 
HETATM    9  C   UNL     1      26.835  42.308  48.977  1.00  0.00     0.034 A 
HETATM   10  C   UNL     1      26.646  42.472  50.359  1.00  0.00     0.032 A 
ENDROOT
BRANCH   1  11
HETATM   11  N   UNL     1      26.860  41.820  52.643  1.00  0.00    -0.326 N 
HETATM   12  C   UNL     1      27.439  42.448  53.719  1.00  0.00     0.235 C 
HETATM   13  O   UNL     1      26.979  42.211  54.838  1.00  0.00    -0.272 OA
HETATM   14  H   UNL     1      25.997  41.375  52.935  1.00  0.00     0.169 HD
BRANCH  12  15
HETATM   15  C   UNL     1      28.462  43.550  53.571  1.00  0.00     0.068 A 
HETATM   16  C   UNL     1      29.601  43.442  52.563  1.00  0.00     0.026 A 
HETATM   17  C   UNL     1      29.904  43.164  53.989  1.00  0.00     0.026 A 
BRANCH  15  18
HETATM   18  C   UNL     1      28.019  44.915  54.118  1.00  0.00    -0.040 A 
HETATM   19  C   UNL     1      26.944  45.604  53.519  1.00  0.00     0.010 A 
HETATM   20  C   UNL     1      26.516  46.850  53.984  1.00  0.00     0.024 A 
HETATM   21  C   UNL     1      27.171  47.441  55.057  1.00  0.00     0.034 A 
HETATM   22  C   UNL     1      28.243  46.793  55.666  1.00  0.00     0.024 A 
HETATM   23 CL   UNL     1      26.655  48.977  55.633  1.00  0.00    -0.084 Cl
HETATM   24  C   UNL     1      28.661  45.541  55.199  1.00  0.00     0.010 A 
ENDBRANCH  15  18
ENDBRANCH  12  15
ENDBRANCH   1  11
BRANCH   8  25
HETATM   25  C   UNL     1      29.528  38.142  49.123  1.00  0.00     0.270 C 
HETATM   26  N   UNL     1      28.716  37.084  49.429  1.00  0.00    -0.365 N 
HETATM   27  H   UNL     1      27.712  37.201  49.341  1.00  0.00     0.159 HD
HETATM   28  H   UNL     1      29.115  36.235  49.796  1.00  0.00     0.159 HD
HETATM   29  O   UNL     1      30.746  38.070  49.250  1.00  0.00    -0.266 OA
ENDBRANCH   8  25
TORSDOF 4
ENDMDL
MODEL 7
REMARK VINA RESULT:      -8.6      4.233      7.447
REMARK  4 active torsions:
REMARK  status: ('A' for Active; 'I' for Inactive)
REMARK    1  A    between atoms: C_2  and  C_3 
REMARK    2  A    between atoms: C_3  and  C_4 
REMARK       I    between atoms: C_4  and  N_5 
REMARK    3  A    between atoms: N_5  and  C_6 
REMARK    4  A    between atoms: C_13  and  C_14 
REMARK       I    between atoms: C_14  and  N_15 
ROOT
HETATM    1  C   UNL     1      26.157  41.655  50.027  1.00  0.00     0.035 A 
HETATM    2  C   UNL     1      27.173  40.789  50.434  1.00  0.00     0.046 A 
HETATM    3  C   UNL     1      27.826  39.971  49.484  1.00  0.00     0.030 A 
HETATM    4  C   UNL     1      27.474  40.079  48.148  1.00  0.00     0.063 A 
HETATM    5  N   UNL     1      28.256  39.169  47.492  1.00  0.00    -0.277 N 
HETATM    6  H   UNL     1      28.269  38.972  46.497  1.00  0.00     0.189 HD
HETATM    7  N   UNL     1      29.061  38.449  48.293  1.00  0.00    -0.168 NA
HETATM    8  C   UNL     1      28.806  38.935  49.529  1.00  0.00     0.156 A 
HETATM    9  C   UNL     1      26.492  40.958  47.692  1.00  0.00     0.034 A 
HETATM   10  C   UNL     1      25.830  41.724  48.665  1.00  0.00     0.032 A 
ENDROOT
BRANCH   1  11
HETATM   11  N   UNL     1      25.339  42.385  50.903  1.00  0.00    -0.326 N 
HETATM   12  C   UNL     1      25.552  43.388  51.818  1.00  0.00     0.235 C 
HETATM   13  O   UNL     1      24.655  43.623  52.631  1.00  0.00    -0.272 OA
HETATM   14  H   UNL     1      24.366  42.101  50.932  1.00  0.00     0.169 HD
BRANCH  12  15
HETATM   15  C   UNL     1      26.730  44.330  51.741  1.00  0.00     0.068 A 
HETATM   16  C   UNL     1      26.607  45.699  51.081  1.00  0.00     0.026 A 
HETATM   17  C   UNL     1      27.252  44.610  50.308  1.00  0.00     0.026 A 
BRANCH  15  18
HETATM   18  C   UNL     1      27.853  44.037  52.746  1.00  0.00    -0.040 A 
HETATM   19  C   UNL     1      27.912  44.740  53.967  1.00  0.00     0.010 A 
HETATM   20  C   UNL     1      28.923  44.507  54.904  1.00  0.00     0.024 A 
HETATM   21  C   UNL     1      29.907  43.567  54.628  1.00  0.00     0.034 A 
HETATM   22  C   UNL     1      29.884  42.861  53.428  1.00  0.00     0.024 A 
HETATM   23 CL   UNL     1      31.157  43.276  55.772  1.00  0.00    -0.084 Cl
HETATM   24  C   UNL     1      28.865  43.095  52.496  1.00  0.00     0.010 A 
ENDBRANCH  15  18
ENDBRANCH  12  15
ENDBRANCH   1  11
BRANCH   8  25
HETATM   25  C   UNL     1      29.465  38.387  50.722  1.00  0.00     0.270 C 
HETATM   26  N   UNL     1      29.488  39.239  51.793  1.00  0.00    -0.365 N 
HETATM   27  H   UNL     1      29.083  40.163  51.687  1.00  0.00     0.159 HD
HETATM   28  H   UNL     1      29.958  38.966  52.641  1.00  0.00     0.159 HD
HETATM   29  O   UNL     1      29.977  37.274  50.780  1.00  0.00    -0.266 OA
ENDBRANCH   8  25
TORSDOF 4
ENDMDL
MODEL 8
REMARK VINA RESULT:      -8.5     11.161     12.954
REMARK  4 active torsions:
REMARK  status: ('A' for Active; 'I' for Inactive)
REMARK    1  A    between atoms: C_2  and  C_3 
REMARK    2  A    between atoms: C_3  and  C_4 
REMARK       I    between atoms: C_4  and  N_5 
REMARK    3  A    between atoms: N_5  and  C_6 
REMARK    4  A    between atoms: C_13  and  C_14 
REMARK       I    between atoms: C_14  and  N_15 
ROOT
HETATM    1  C   UNL     1      29.360  48.169  40.929  1.00  0.00     0.035 A 
HETATM    2  C   UNL     1      29.990  49.190  41.640  1.00  0.00     0.046 A 
HETATM    3  C   UNL     1      31.399  49.298  41.622  1.00  0.00     0.030 A 
HETATM    4  C   UNL     1      32.132  48.406  40.855  1.00  0.00     0.063 A 
HETATM    5  N   UNL     1      33.441  48.751  41.050  1.00  0.00    -0.277 N 
HETATM    6  H   UNL     1      34.260  48.312  40.644  1.00  0.00     0.189 HD
HETATM    7  N   UNL     1      33.626  49.768  41.911  1.00  0.00    -0.168 NA
HETATM    8  C   UNL     1      32.370  50.116  42.272  1.00  0.00     0.156 A 
HETATM    9  C   UNL     1      31.542  47.395  40.099  1.00  0.00     0.034 A 
HETATM   10  C   UNL     1      30.144  47.285  40.172  1.00  0.00     0.032 A 
ENDROOT
BRANCH   1  11
HETATM   11  N   UNL     1      27.990  47.874  41.009  1.00  0.00    -0.326 N 
HETATM   12  C   UNL     1      26.838  48.502  40.599  1.00  0.00     0.235 C 
HETATM   13  O   UNL     1      25.770  48.108  41.072  1.00  0.00    -0.272 OA
HETATM   14  H   UNL     1      27.752  47.036  41.526  1.00  0.00     0.169 HD
BRANCH  12  15
HETATM   15  C   UNL     1      26.809  49.498  39.463  1.00  0.00     0.068 A 
HETATM   16  C   UNL     1      25.663  49.518  38.458  1.00  0.00     0.026 A 
HETATM   17  C   UNL     1      26.938  48.880  38.047  1.00  0.00     0.026 A 
BRANCH  15  18
HETATM   18  C   UNL     1      27.700  50.732  39.667  1.00  0.00    -0.040 A 
HETATM   19  C   UNL     1      27.546  51.536  40.815  1.00  0.00     0.010 A 
HETATM   20  C   UNL     1      28.333  52.669  41.033  1.00  0.00     0.024 A 
HETATM   21  C   UNL     1      29.290  53.029  40.091  1.00  0.00     0.034 A 
HETATM   22  C   UNL     1      29.463  52.262  38.942  1.00  0.00     0.024 A 
HETATM   23 CL   UNL     1      30.260  54.425  40.348  1.00  0.00    -0.084 Cl
HETATM   24  C   UNL     1      28.674  51.123  38.734  1.00  0.00     0.010 A 
ENDBRANCH  15  18
ENDBRANCH  12  15
ENDBRANCH   1  11
BRANCH   8  25
HETATM   25  C   UNL     1      32.120  51.187  43.247  1.00  0.00     0.270 C 
HETATM   26  N   UNL     1      31.812  52.397  42.687  1.00  0.00    -0.365 N 
HETATM   27  H   UNL     1      31.799  52.475  41.676  1.00  0.00     0.159 HD
HETATM   28  H   UNL     1      31.668  53.200  43.277  1.00  0.00     0.159 HD
HETATM   29  O   UNL     1      32.190  51.045  44.464  1.00  0.00    -0.266 OA
ENDBRANCH   8  25
TORSDOF 4
ENDMDL
MODEL 9
REMARK VINA RESULT:      -8.5      4.677      7.717
REMARK  4 active torsions:
REMARK  status: ('A' for Active; 'I' for Inactive)
REMARK    1  A    between atoms: C_2  and  C_3 
REMARK    2  A    between atoms: C_3  and  C_4 
REMARK       I    between atoms: C_4  and  N_5 
REMARK    3  A    between atoms: N_5  and  C_6 
REMARK    4  A    between atoms: C_13  and  C_14 
REMARK       I    between atoms: C_14  and  N_15 
ROOT
HETATM    1  C   UNL     1      27.031  43.348  53.172  1.00  0.00     0.035 A 
HETATM    2  C   UNL     1      27.457  44.298  54.100  1.00  0.00     0.046 A 
HETATM    3  C   UNL     1      28.747  44.202  54.670  1.00  0.00     0.030 A 
HETATM    4  C   UNL     1      29.589  43.181  54.256  1.00  0.00     0.063 A 
HETATM    5  N   UNL     1      30.737  43.342  54.983  1.00  0.00    -0.277 N 
HETATM    6  H   UNL     1      31.576  42.773  54.943  1.00  0.00     0.189 HD
HETATM    7  N   UNL     1      30.700  44.358  55.864  1.00  0.00    -0.168 NA
HETATM    8  C   UNL     1      29.474  44.899  55.680  1.00  0.00     0.156 A 
HETATM    9  C   UNL     1      29.220  42.233  53.304  1.00  0.00     0.034 A 
HETATM   10  C   UNL     1      27.917  42.329  52.790  1.00  0.00     0.032 A 
ENDROOT
BRANCH   1  11
HETATM   11  N   UNL     1      25.723  43.257  52.672  1.00  0.00    -0.326 N 
HETATM   12  C   UNL     1      25.111  43.605  51.491  1.00  0.00     0.235 C 
HETATM   13  O   UNL     1      23.879  43.645  51.474  1.00  0.00    -0.272 OA
HETATM   14  H   UNL     1      25.030  42.904  53.321  1.00  0.00     0.169 HD
BRANCH  12  15
HETATM   15  C   UNL     1      25.863  43.742  50.188  1.00  0.00     0.068 A 
HETATM   16  C   UNL     1      26.834  44.893  49.951  1.00  0.00     0.026 A 
HETATM   17  C   UNL     1      25.484  44.984  49.342  1.00  0.00     0.026 A 
BRANCH  15  18
HETATM   18  C   UNL     1      25.952  42.452  49.360  1.00  0.00    -0.040 A 
HETATM   19  C   UNL     1      27.206  41.860  49.103  1.00  0.00     0.010 A 
HETATM   20  C   UNL     1      27.329  40.690  48.348  1.00  0.00     0.024 A 
HETATM   21  C   UNL     1      26.190  40.093  47.823  1.00  0.00     0.034 A 
HETATM   22  C   UNL     1      24.936  40.656  48.050  1.00  0.00     0.024 A 
HETATM   23 CL   UNL     1      26.331  38.656  46.889  1.00  0.00    -0.084 Cl
HETATM   24  C   UNL     1      24.820  41.824  48.813  1.00  0.00     0.010 A 
ENDBRANCH  15  18
ENDBRANCH  12  15
ENDBRANCH   1  11
BRANCH   8  25
HETATM   25  C   UNL     1      29.006  46.036  56.485  1.00  0.00     0.270 C 
HETATM   26  N   UNL     1      29.465  46.038  57.774  1.00  0.00    -0.365 N 
HETATM   27  H   UNL     1      30.057  45.273  58.081  1.00  0.00     0.159 HD
HETATM   28  H   UNL     1      29.161  46.755  58.413  1.00  0.00     0.159 HD
HETATM   29  O   UNL     1      28.255  46.913  56.073  1.00  0.00    -0.266 OA
ENDBRANCH   8  25
TORSDOF 4
ENDMDL
MODEL 10
REMARK VINA RESULT:      -8.4      1.501      2.153
REMARK  4 active torsions:
REMARK  status: ('A' for Active; 'I' for Inactive)
REMARK    1  A    between atoms: C_2  and  C_3 
REMARK    2  A    between atoms: C_3  and  C_4 
REMARK       I    between atoms: C_4  and  N_5 
REMARK    3  A    between atoms: N_5  and  C_6 
REMARK    4  A    between atoms: C_13  and  C_14 
REMARK       I    between atoms: C_14  and  N_15 
ROOT
HETATM    1  C   UNL     1      25.359  46.330  50.889  1.00  0.00     0.035 A 
HETATM    2  C   UNL     1      24.598  47.360  50.335  1.00  0.00     0.046 A 
HETATM    3  C   UNL     1      25.195  48.277  49.440  1.00  0.00     0.030 A 
HETATM    4  C   UNL     1      26.526  48.107  49.091  1.00  0.00     0.063 A 
HETATM    5  N   UNL     1      26.812  49.138  48.240  1.00  0.00    -0.277 N 
HETATM    6  H   UNL     1      27.697  49.332  47.784  1.00  0.00     0.189 HD
HETATM    7  N   UNL     1      25.791  49.989  48.034  1.00  0.00    -0.168 NA
HETATM    8  C   UNL     1      24.783  49.468  48.771  1.00  0.00     0.156 A 
HETATM    9  C   UNL     1      27.312  47.070  49.590  1.00  0.00     0.034 A 
HETATM   10  C   UNL     1      26.704  46.202  50.511  1.00  0.00     0.032 A 
ENDROOT
BRANCH   1  11
HETATM   11  N   UNL     1      24.912  45.470  51.903  1.00  0.00    -0.326 N 
HETATM   12  C   UNL     1      25.384  45.105  53.141  1.00  0.00     0.235 C 
HETATM   13  O   UNL     1      24.891  44.106  53.672  1.00  0.00    -0.272 OA
HETATM   14  H   UNL     1      24.076  44.938  51.690  1.00  0.00     0.169 HD
BRANCH  12  15
HETATM   15  C   UNL     1      26.317  45.974  53.951  1.00  0.00     0.068 A 
HETATM   16  C   UNL     1      25.823  47.243  54.636  1.00  0.00     0.026 A 
HETATM   17  C   UNL     1      26.571  47.386  53.363  1.00  0.00     0.026 A 
BRANCH  15  18
HETATM   18  C   UNL     1      27.602  45.275  54.418  1.00  0.00    -0.040 A 
HETATM   19  C   UNL     1      28.290  45.744  55.557  1.00  0.00     0.010 A 
HETATM   20  C   UNL     1      29.465  45.139  56.010  1.00  0.00     0.024 A 
HETATM   21  C   UNL     1      29.985  44.052  55.318  1.00  0.00     0.034 A 
HETATM   22  C   UNL     1      29.336  43.568  54.185  1.00  0.00     0.024 A 
HETATM   23 CL   UNL     1      31.433  43.303  55.865  1.00  0.00    -0.084 Cl
HETATM   24  C   UNL     1      28.155  44.175  53.741  1.00  0.00     0.010 A 
ENDBRANCH  15  18
ENDBRANCH  12  15
ENDBRANCH   1  11
BRANCH   8  25
HETATM   25  C   UNL     1      23.471  50.124  48.853  1.00  0.00     0.270 C 
HETATM   26  N   UNL     1      22.469  49.460  48.202  1.00  0.00    -0.365 N 
HETATM   27  H   UNL     1      22.694  48.604  47.707  1.00  0.00     0.159 HD
HETATM   28  H   UNL     1      21.544  49.858  48.166  1.00  0.00     0.159 HD
HETATM   29  O   UNL     1      23.264  51.185  49.433  1.00  0.00    -0.266 OA
ENDBRANCH   8  25
TORSDOF 4
ENDMDL
