MODEL 1
REMARK VINA RESULT:      -7.8      0.000      0.000
REMARK  2 active torsions:
REMARK  status: ('A' for Active; 'I' for Inactive)
REMARK    1  A    between atoms: C_2  and  C_3 
REMARK    2  A    between atoms: C_6  and  C_7 
ROOT
HETATM    1  C   UNL     1      20.476  48.928  47.587  1.00  0.00     0.119 C 
HETATM    2  S   UNL     1      19.556  50.385  48.137  1.00  0.00    -0.141 SA
HETATM    3  C   UNL     1      18.203  49.745  49.160  1.00  0.00     0.136 C 
HETATM    4  C   UNL     1      17.066  49.105  48.374  1.00  0.00     0.031 C 
HETATM    5  C   UNL     1      18.674  48.936  50.350  1.00  0.00     0.236 C 
HETATM    6  O   UNL     1      18.595  49.322  51.508  1.00  0.00    -0.272 OA
HETATM    7  N   UNL     1      19.155  47.601  50.217  1.00  0.00    -0.311 N 
HETATM    8  C   UNL     1      19.463  46.989  49.027  1.00  0.00     0.134 C 
HETATM    9  C   UNL     1      19.959  47.556  47.870  1.00  0.00     0.032 C 
HETATM   10  N   UNL     1      19.374  45.644  48.796  1.00  0.00    -0.262 N 
HETATM   11  H   UNL     1      19.098  44.910  49.439  1.00  0.00     0.191 HD
HETATM   12  N   UNL     1      19.589  45.310  47.521  1.00  0.00    -0.178 NA
HETATM   13  C   UNL     1      19.972  46.455  46.947  1.00  0.00     0.062 C 
HETATM   14  C   UNL     1      20.370  46.451  45.513  1.00  0.00     0.073 C 
HETATM   15  H   UNL     1      19.199  47.080  51.086  1.00  0.00     0.170 HD
ENDROOT
BRANCH   1  16
HETATM   16  C   UNL     1      21.920  48.916  48.080  1.00  0.00    -0.040 A 
HETATM   17  C   UNL     1      22.459  47.864  48.843  1.00  0.00     0.009 A 
HETATM   18  C   UNL     1      23.803  47.864  49.227  1.00  0.00     0.007 A 
HETATM   19  C   UNL     1      24.645  48.920  48.868  1.00  0.00    -0.059 A 
HETATM   20  C   UNL     1      24.118  49.983  48.129  1.00  0.00     0.007 A 
HETATM   21  C   UNL     1      22.774  49.982  47.745  1.00  0.00     0.009 A 
BRANCH  19  22
HETATM   22  C   UNL     1      26.105  48.897  49.242  1.00  0.00     0.034 C 
HETATM   23  C   UNL     1      26.901  49.922  48.449  1.00  0.00     0.010 C 
ENDBRANCH  19  22
ENDBRANCH   1  16
TORSDOF 2
ENDMDL
MODEL 2
REMARK VINA RESULT:      -7.8      7.474      9.164
REMARK  2 active torsions:
REMARK  status: ('A' for Active; 'I' for Inactive)
REMARK    1  A    between atoms: C_2  and  C_3 
REMARK    2  A    between atoms: C_6  and  C_7 
ROOT
HETATM    1  C   UNL     1      27.780  43.367  50.574  1.00  0.00     0.119 C 
HETATM    2  S   UNL     1      27.030  44.975  50.220  1.00  0.00    -0.141 SA
HETATM    3  C   UNL     1      25.255  44.651  50.042  1.00  0.00     0.136 C 
HETATM    4  C   UNL     1      24.864  43.981  48.731  1.00  0.00     0.031 C 
HETATM    5  C   UNL     1      24.626  44.033  51.273  1.00  0.00     0.236 C 
HETATM    6  O   UNL     1      23.856  44.628  52.013  1.00  0.00    -0.272 OA
HETATM    7  N   UNL     1      24.805  42.659  51.607  1.00  0.00    -0.311 N 
HETATM    8  C   UNL     1      25.718  41.818  51.020  1.00  0.00     0.134 C 
HETATM    9  C   UNL     1      26.963  42.120  50.507  1.00  0.00     0.032 C 
HETATM   10  N   UNL     1      25.557  40.466  50.887  1.00  0.00    -0.262 N 
HETATM   11  H   UNL     1      24.786  39.887  51.200  1.00  0.00     0.191 HD
HETATM   12  N   UNL     1      26.514  39.889  50.155  1.00  0.00    -0.178 NA
HETATM   13  C   UNL     1      27.393  40.873  49.937  1.00  0.00     0.062 C 
HETATM   14  C   UNL     1      28.649  40.575  49.197  1.00  0.00     0.073 C 
HETATM   15  H   UNL     1      24.147  42.302  52.291  1.00  0.00     0.170 HD
ENDROOT
BRANCH   1  16
HETATM   16  C   UNL     1      28.465  43.319  51.937  1.00  0.00    -0.040 A 
HETATM   17  C   UNL     1      29.582  42.507  52.203  1.00  0.00     0.009 A 
HETATM   18  C   UNL     1      30.216  42.535  53.449  1.00  0.00     0.007 A 
HETATM   19  C   UNL     1      29.744  43.367  54.468  1.00  0.00    -0.059 A 
HETATM   20  C   UNL     1      28.621  44.164  54.224  1.00  0.00     0.007 A 
HETATM   21  C   UNL     1      27.989  44.136  52.979  1.00  0.00     0.009 A 
BRANCH  19  22
HETATM   22  C   UNL     1      30.456  43.431  55.795  1.00  0.00     0.034 C 
HETATM   23  C   UNL     1      30.663  44.869  56.249  1.00  0.00     0.010 C 
ENDBRANCH  19  22
ENDBRANCH   1  16
TORSDOF 2
ENDMDL
MODEL 3
REMARK VINA RESULT:      -7.7      7.159      9.098
REMARK  2 active torsions:
REMARK  status: ('A' for Active; 'I' for Inactive)
REMARK    1  A    between atoms: C_2  and  C_3 
REMARK    2  A    between atoms: C_6  and  C_7 
ROOT
HETATM    1  C   UNL     1      25.987  44.388  52.490  1.00  0.00     0.119 C 
HETATM    2  S   UNL     1      25.250  42.846  51.896  1.00  0.00    -0.141 SA
HETATM    3  C   UNL     1      25.128  43.031  50.096  1.00  0.00     0.136 C 
HETATM    4  C   UNL     1      24.008  43.953  49.632  1.00  0.00     0.031 C 
HETATM    5  C   UNL     1      26.460  43.276  49.421  1.00  0.00     0.236 C 
HETATM    6  O   UNL     1      27.027  42.451  48.717  1.00  0.00    -0.272 OA
HETATM    7  N   UNL     1      27.114  44.541  49.469  1.00  0.00    -0.311 N 
HETATM    8  C   UNL     1      26.757  45.582  50.291  1.00  0.00     0.134 C 
HETATM    9  C   UNL     1      26.206  45.531  51.555  1.00  0.00     0.032 C 
HETATM   10  N   UNL     1      26.947  46.905  50.000  1.00  0.00    -0.262 N 
HETATM   11  H   UNL     1      27.376  47.316  49.178  1.00  0.00     0.191 HD
HETATM   12  N   UNL     1      26.387  47.728  50.890  1.00  0.00    -0.178 NA
HETATM   13  C   UNL     1      25.954  46.913  51.858  1.00  0.00     0.062 C 
HETATM   14  C   UNL     1      25.326  47.497  53.074  1.00  0.00     0.073 C 
HETATM   15  H   UNL     1      27.853  44.661  48.785  1.00  0.00     0.170 HD
ENDROOT
BRANCH   1  16
HETATM   16  C   UNL     1      27.333  44.176  53.178  1.00  0.00    -0.040 A 
HETATM   17  C   UNL     1      27.750  44.929  54.291  1.00  0.00     0.009 A 
HETATM   18  C   UNL     1      28.966  44.664  54.928  1.00  0.00     0.007 A 
HETATM   19  C   UNL     1      29.805  43.647  54.464  1.00  0.00    -0.059 A 
HETATM   20  C   UNL     1      29.414  42.906  53.345  1.00  0.00     0.007 A 
HETATM   21  C   UNL     1      28.198  43.170  52.710  1.00  0.00     0.009 A 
BRANCH  19  22
HETATM   22  C   UNL     1      31.094  43.333  55.180  1.00  0.00     0.034 C 
HETATM   23  C   UNL     1      31.089  43.874  56.602  1.00  0.00     0.010 C 
ENDBRANCH  19  22
ENDBRANCH   1  16
TORSDOF 2
ENDMDL
MODEL 4
REMARK VINA RESULT:      -7.7     12.054     12.931
REMARK  2 active torsions:
REMARK  status: ('A' for Active; 'I' for Inactive)
REMARK    1  A    between atoms: C_2  and  C_3 
REMARK    2  A    between atoms: C_6  and  C_7 
ROOT
HETATM    1  C   UNL     1      29.007  50.368  40.790  1.00  0.00     0.119 C 
HETATM    2  S   UNL     1      28.167  48.822  41.212  1.00  0.00    -0.141 SA
HETATM    3  C   UNL     1      28.518  47.690  39.839  1.00  0.00     0.136 C 
HETATM    4  C   UNL     1      27.731  47.979  38.567  1.00  0.00     0.031 C 
HETATM    5  C   UNL     1      29.996  47.447  39.618  1.00  0.00     0.236 C 
HETATM    6  O   UNL     1      30.556  46.389  39.872  1.00  0.00    -0.272 OA
HETATM    7  N   UNL     1      30.838  48.410  38.990  1.00  0.00    -0.311 N 
HETATM    8  C   UNL     1      30.489  49.714  38.733  1.00  0.00     0.134 C 
HETATM    9  C   UNL     1      29.649  50.538  39.453  1.00  0.00     0.032 C 
HETATM   10  N   UNL     1      30.981  50.462  37.699  1.00  0.00    -0.262 N 
HETATM   11  H   UNL     1      31.663  50.199  36.997  1.00  0.00     0.191 HD
HETATM   12  N   UNL     1      30.383  51.649  37.574  1.00  0.00    -0.178 NA
HETATM   13  C   UNL     1      29.588  51.727  38.647  1.00  0.00     0.062 C 
HETATM   14  C   UNL     1      28.803  52.968  38.882  1.00  0.00     0.073 C 
HETATM   15  H   UNL     1      31.730  48.047  38.671  1.00  0.00     0.170 HD
ENDROOT
BRANCH   1  16
HETATM   16  C   UNL     1      30.086  50.752  41.799  1.00  0.00    -0.040 A 
HETATM   17  C   UNL     1      30.962  49.815  42.376  1.00  0.00     0.009 A 
HETATM   18  C   UNL     1      31.974  50.216  43.252  1.00  0.00     0.007 A 
HETATM   19  C   UNL     1      32.133  51.564  43.586  1.00  0.00    -0.059 A 
HETATM   20  C   UNL     1      31.256  52.504  43.038  1.00  0.00     0.007 A 
HETATM   21  C   UNL     1      30.245  52.102  42.161  1.00  0.00     0.009 A 
BRANCH  19  22
HETATM   22  C   UNL     1      33.254  52.001  44.495  1.00  0.00     0.034 C 
HETATM   23  C   UNL     1      34.598  51.963  43.781  1.00  0.00     0.010 C 
ENDBRANCH  19  22
ENDBRANCH   1  16
TORSDOF 2
ENDMDL
MODEL 5
REMARK VINA RESULT:      -7.7     10.940     12.219
REMARK  2 active torsions:
REMARK  status: ('A' for Active; 'I' for Inactive)
REMARK    1  A    between atoms: C_2  and  C_3 
REMARK    2  A    between atoms: C_6  and  C_7 
ROOT
HETATM    1  C   UNL     1      30.618  50.522  39.976  1.00  0.00     0.119 C 
HETATM    2  S   UNL     1      29.970  52.011  39.177  1.00  0.00    -0.141 SA
HETATM    3  C   UNL     1      28.175  51.947  39.421  1.00  0.00     0.136 C 
HETATM    4  C   UNL     1      27.453  50.941  38.533  1.00  0.00     0.031 C 
HETATM    5  C   UNL     1      27.763  51.905  40.877  1.00  0.00     0.236 C 
HETATM    6  O   UNL     1      27.227  52.839  41.459  1.00  0.00    -0.272 OA
HETATM    7  N   UNL     1      27.873  50.721  41.663  1.00  0.00    -0.311 N 
HETATM    8  C   UNL     1      28.555  49.589  41.290  1.00  0.00     0.134 C 
HETATM    9  C   UNL     1      29.687  49.484  40.508  1.00  0.00     0.032 C 
HETATM   10  N   UNL     1      28.240  48.321  41.695  1.00  0.00    -0.262 N 
HETATM   11  H   UNL     1      27.499  48.023  42.320  1.00  0.00     0.191 HD
HETATM   12  N   UNL     1      28.960  47.376  41.085  1.00  0.00    -0.178 NA
HETATM   13  C   UNL     1      29.864  48.063  40.379  1.00  0.00     0.062 C 
HETATM   14  C   UNL     1      30.901  47.323  39.610  1.00  0.00     0.073 C 
HETATM   15  H   UNL     1      27.343  50.737  42.527  1.00  0.00     0.170 HD
ENDROOT
BRANCH   1  16
HETATM   16  C   UNL     1      31.567  50.832  41.130  1.00  0.00    -0.040 A 
HETATM   17  C   UNL     1      32.858  50.282  41.229  1.00  0.00     0.009 A 
HETATM   18  C   UNL     1      33.717  50.637  42.272  1.00  0.00     0.007 A 
HETATM   19  C   UNL     1      33.308  51.544  43.254  1.00  0.00    -0.059 A 
HETATM   20  C   UNL     1      32.020  52.082  43.180  1.00  0.00     0.007 A 
HETATM   21  C   UNL     1      31.161  51.728  42.136  1.00  0.00     0.009 A 
BRANCH  19  22
HETATM   22  C   UNL     1      34.252  51.962  44.352  1.00  0.00     0.034 C 
HETATM   23  C   UNL     1      35.631  52.299  43.803  1.00  0.00     0.010 C 
ENDBRANCH  19  22
ENDBRANCH   1  16
TORSDOF 2
ENDMDL
MODEL 6
REMARK VINA RESULT:      -7.4      2.763      3.819
REMARK  2 active torsions:
REMARK  status: ('A' for Active; 'I' for Inactive)
REMARK    1  A    between atoms: C_2  and  C_3 
REMARK    2  A    between atoms: C_6  and  C_7 
ROOT
HETATM    1  C   UNL     1      19.558  49.640  48.956  1.00  0.00     0.119 C 
HETATM    2  S   UNL     1      19.128  48.013  49.619  1.00  0.00    -0.141 SA
HETATM    3  C   UNL     1      17.983  47.288  48.414  1.00  0.00     0.136 C 
HETATM    4  C   UNL     1      16.576  47.872  48.450  1.00  0.00     0.031 C 
HETATM    5  C   UNL     1      18.570  47.155  47.025  1.00  0.00     0.236 C 
HETATM    6  O   UNL     1      18.873  46.085  46.515  1.00  0.00    -0.272 OA
HETATM    7  N   UNL     1      18.719  48.274  46.154  1.00  0.00    -0.311 N 
HETATM    8  C   UNL     1      18.579  49.588  46.528  1.00  0.00     0.134 C 
HETATM    9  C   UNL     1      18.864  50.172  47.746  1.00  0.00     0.032 C 
HETATM   10  N   UNL     1      18.162  50.593  45.700  1.00  0.00    -0.262 N 
HETATM   11  H   UNL     1      17.917  50.542  44.717  1.00  0.00     0.191 HD
HETATM   12  N   UNL     1      17.969  51.753  46.332  1.00  0.00    -0.178 NA
HETATM   13  C   UNL     1      18.415  51.526  47.572  1.00  0.00     0.062 C 
HETATM   14  C   UNL     1      18.421  52.639  48.558  1.00  0.00     0.073 C 
HETATM   15  H   UNL     1      18.879  48.033  45.182  1.00  0.00     0.170 HD
ENDROOT
BRANCH   1  16
HETATM   16  C   UNL     1      21.047  49.783  48.652  1.00  0.00    -0.040 A 
HETATM   17  C   UNL     1      21.710  51.024  48.637  1.00  0.00     0.009 A 
HETATM   18  C   UNL     1      23.087  51.105  48.411  1.00  0.00     0.007 A 
HETATM   19  C   UNL     1      23.840  49.949  48.183  1.00  0.00    -0.059 A 
HETATM   20  C   UNL     1      23.191  48.711  48.174  1.00  0.00     0.007 A 
HETATM   21  C   UNL     1      21.814  48.631  48.401  1.00  0.00     0.009 A 
BRANCH  19  22
HETATM   22  C   UNL     1      25.332  50.035  47.986  1.00  0.00     0.034 C 
HETATM   23  C   UNL     1      26.074  49.113  48.943  1.00  0.00     0.010 C 
ENDBRANCH  19  22
ENDBRANCH   1  16
TORSDOF 2
ENDMDL
MODEL 7
REMARK VINA RESULT:      -7.4     11.411     12.911
REMARK  2 active torsions:
REMARK  status: ('A' for Active; 'I' for Inactive)
REMARK    1  A    between atoms: C_2  and  C_3 
REMARK    2  A    between atoms: C_6  and  C_7 
ROOT
HETATM    1  C   UNL     1      29.018  50.569  41.383  1.00  0.00     0.119 C 
HETATM    2  S   UNL     1      28.161  52.144  41.144  1.00  0.00    -0.141 SA
HETATM    3  C   UNL     1      29.191  53.084  39.984  1.00  0.00     0.136 C 
HETATM    4  C   UNL     1      30.461  53.663  40.595  1.00  0.00     0.031 C 
HETATM    5  C   UNL     1      29.397  52.387  38.657  1.00  0.00     0.236 C 
HETATM    6  O   UNL     1      28.890  52.760  37.608  1.00  0.00    -0.272 OA
HETATM    7  N   UNL     1      30.295  51.290  38.506  1.00  0.00    -0.311 N 
HETATM    8  C   UNL     1      30.880  50.603  39.542  1.00  0.00     0.134 C 
HETATM    9  C   UNL     1      30.376  50.351  40.802  1.00  0.00     0.032 C 
HETATM   10  N   UNL     1      32.096  49.981  39.475  1.00  0.00    -0.262 N 
HETATM   11  H   UNL     1      32.728  49.911  38.685  1.00  0.00     0.191 HD
HETATM   12  N   UNL     1      32.513  49.506  40.652  1.00  0.00    -0.178 NA
HETATM   13  C   UNL     1      31.469  49.697  41.466  1.00  0.00     0.062 C 
HETATM   14  C   UNL     1      31.547  49.216  42.872  1.00  0.00     0.073 C 
HETATM   15  H   UNL     1      30.540  51.073  37.546  1.00  0.00     0.170 HD
ENDROOT
BRANCH   1  16
HETATM   16  C   UNL     1      28.194  49.369  40.923  1.00  0.00    -0.040 A 
HETATM   17  C   UNL     1      28.357  48.079  41.458  1.00  0.00     0.009 A 
HETATM   18  C   UNL     1      27.541  47.019  41.050  1.00  0.00     0.007 A 
HETATM   19  C   UNL     1      26.548  47.216  40.087  1.00  0.00    -0.059 A 
HETATM   20  C   UNL     1      26.389  48.488  39.530  1.00  0.00     0.007 A 
HETATM   21  C   UNL     1      27.204  49.548  39.939  1.00  0.00     0.009 A 
BRANCH  19  22
HETATM   22  C   UNL     1      25.639  46.083  39.683  1.00  0.00     0.034 C 
HETATM   23  C   UNL     1      26.387  45.026  38.884  1.00  0.00     0.010 C 
ENDBRANCH  19  22
ENDBRANCH   1  16
TORSDOF 2
ENDMDL
MODEL 8
REMARK VINA RESULT:      -7.2     23.532     25.020
REMARK  2 active torsions:
REMARK  status: ('A' for Active; 'I' for Inactive)
REMARK    1  A    between atoms: C_2  and  C_3 
REMARK    2  A    between atoms: C_6  and  C_7 
ROOT
HETATM    1  C   UNL     1      38.812  45.997  66.501  1.00  0.00     0.119 C 
HETATM    2  S   UNL     1      40.481  45.548  67.035  1.00  0.00    -0.141 SA
HETATM    3  C   UNL     1      41.213  44.659  65.635  1.00  0.00     0.136 C 
HETATM    4  C   UNL     1      40.697  43.237  65.452  1.00  0.00     0.031 C 
HETATM    5  C   UNL     1      41.265  45.474  64.360  1.00  0.00     0.236 C 
HETATM    6  O   UNL     1      42.300  45.912  63.877  1.00  0.00    -0.272 OA
HETATM    7  N   UNL     1      40.110  45.706  63.560  1.00  0.00    -0.311 N 
HETATM    8  C   UNL     1      38.818  45.437  63.944  1.00  0.00     0.134 C 
HETATM    9  C   UNL     1      38.268  45.486  65.209  1.00  0.00     0.032 C 
HETATM   10  N   UNL     1      37.803  45.111  63.087  1.00  0.00    -0.262 N 
HETATM   11  H   UNL     1      37.828  45.035  62.076  1.00  0.00     0.191 HD
HETATM   12  N   UNL     1      36.678  44.755  63.712  1.00  0.00    -0.178 NA
HETATM   13  C   UNL     1      36.931  45.002  65.002  1.00  0.00     0.062 C 
HETATM   14  C   UNL     1      35.856  44.785  66.008  1.00  0.00     0.073 C 
HETATM   15  H   UNL     1      40.305  46.037  62.621  1.00  0.00     0.170 HD
ENDROOT
BRANCH   1  16
HETATM   16  C   UNL     1      38.589  47.506  66.455  1.00  0.00    -0.040 A 
HETATM   17  C   UNL     1      39.510  48.398  65.878  1.00  0.00     0.009 A 
HETATM   18  C   UNL     1      39.241  49.768  65.804  1.00  0.00     0.007 A 
HETATM   19  C   UNL     1      38.049  50.287  66.316  1.00  0.00    -0.059 A 
HETATM   20  C   UNL     1      37.133  49.415  66.912  1.00  0.00     0.007 A 
HETATM   21  C   UNL     1      37.402  48.046  66.984  1.00  0.00     0.009 A 
BRANCH  19  22
HETATM   22  C   UNL     1      37.739  51.757  66.194  1.00  0.00     0.034 C 
HETATM   23  C   UNL     1      37.699  52.434  67.556  1.00  0.00     0.010 C 
ENDBRANCH  19  22
ENDBRANCH   1  16
TORSDOF 2
ENDMDL
MODEL 9
REMARK VINA RESULT:      -7.1     10.498     12.863
REMARK  2 active torsions:
REMARK  status: ('A' for Active; 'I' for Inactive)
REMARK    1  A    between atoms: C_2  and  C_3 
REMARK    2  A    between atoms: C_6  and  C_7 
ROOT
HETATM    1  C   UNL     1      29.318  50.052  38.938  1.00  0.00     0.119 C 
HETATM    2  S   UNL     1      30.598  48.778  39.048  1.00  0.00    -0.141 SA
HETATM    3  C   UNL     1      31.644  49.264  40.447  1.00  0.00     0.136 C 
HETATM    4  C   UNL     1      32.580  50.432  40.160  1.00  0.00     0.031 C 
HETATM    5  C   UNL     1      30.892  49.373  41.756  1.00  0.00     0.236 C 
HETATM    6  O   UNL     1      31.020  48.582  42.681  1.00  0.00    -0.272 OA
HETATM    7  N   UNL     1      30.044  50.479  42.055  1.00  0.00    -0.311 N 
HETATM    8  C   UNL     1      29.632  51.423  41.147  1.00  0.00     0.134 C 
HETATM    9  C   UNL     1      29.389  51.271  39.797  1.00  0.00     0.032 C 
HETATM   10  N   UNL     1      29.329  52.721  41.456  1.00  0.00    -0.262 N 
HETATM   11  H   UNL     1      29.341  53.174  42.363  1.00  0.00     0.191 HD
HETATM   12  N   UNL     1      29.093  53.478  40.382  1.00  0.00    -0.178 NA
HETATM   13  C   UNL     1      29.098  52.610  39.365  1.00  0.00     0.062 C 
HETATM   14  C   UNL     1      28.793  53.098  37.992  1.00  0.00     0.073 C 
HETATM   15  H   UNL     1      29.801  50.572  43.035  1.00  0.00     0.170 HD
ENDROOT
BRANCH   1  16
HETATM   16  C   UNL     1      27.911  49.499  39.152  1.00  0.00    -0.040 A 
HETATM   17  C   UNL     1      27.607  48.541  40.136  1.00  0.00     0.009 A 
HETATM   18  C   UNL     1      26.295  48.104  40.337  1.00  0.00     0.007 A 
HETATM   19  C   UNL     1      25.250  48.603  39.554  1.00  0.00    -0.059 A 
HETATM   20  C   UNL     1      25.541  49.540  38.558  1.00  0.00     0.007 A 
HETATM   21  C   UNL     1      26.853  49.977  38.357  1.00  0.00     0.009 A 
BRANCH  19  22
HETATM   22  C   UNL     1      23.829  48.165  39.803  1.00  0.00     0.034 C 
HETATM   23  C   UNL     1      22.838  49.272  39.472  1.00  0.00     0.010 C 
ENDBRANCH  19  22
ENDBRANCH   1  16
TORSDOF 2
ENDMDL
MODEL 10
REMARK VINA RESULT:      -6.9      5.440      7.842
REMARK  2 active torsions:
REMARK  status: ('A' for Active; 'I' for Inactive)
REMARK    1  A    between atoms: C_2  and  C_3 
REMARK    2  A    between atoms: C_6  and  C_7 
ROOT
HETATM    1  C   UNL     1      26.347  45.782  50.949  1.00  0.00     0.119 C 
HETATM    2  S   UNL     1      27.284  44.640  49.903  1.00  0.00    -0.141 SA
HETATM    3  C   UNL     1      27.290  43.062  50.795  1.00  0.00     0.136 C 
HETATM    4  C   UNL     1      28.230  43.017  51.993  1.00  0.00     0.031 C 
HETATM    5  C   UNL     1      25.904  42.515  51.067  1.00  0.00     0.236 C 
HETATM    6  O   UNL     1      25.439  41.534  50.504  1.00  0.00    -0.272 OA
HETATM    7  N   UNL     1      25.066  43.047  52.090  1.00  0.00    -0.311 N 
HETATM    8  C   UNL     1      25.297  44.218  52.768  1.00  0.00     0.134 C 
HETATM    9  C   UNL     1      25.910  45.369  52.316  1.00  0.00     0.032 C 
HETATM   10  N   UNL     1      24.892  44.469  54.050  1.00  0.00    -0.262 N 
HETATM   11  H   UNL     1      24.365  43.869  54.676  1.00  0.00     0.191 HD
HETATM   12  N   UNL     1      25.360  45.621  54.537  1.00  0.00    -0.178 NA
HETATM   13  C   UNL     1      25.960  46.196  53.489  1.00  0.00     0.062 C 
HETATM   14  C   UNL     1      26.548  47.554  53.644  1.00  0.00     0.073 C 
HETATM   15  H   UNL     1      24.285  42.453  52.347  1.00  0.00     0.170 HD
ENDROOT
BRANCH   1  16
HETATM   16  C   UNL     1      25.085  46.307  50.272  1.00  0.00    -0.040 A 
HETATM   17  C   UNL     1      24.699  47.660  50.317  1.00  0.00     0.009 A 
HETATM   18  C   UNL     1      23.566  48.111  49.634  1.00  0.00     0.007 A 
HETATM   19  C   UNL     1      22.780  47.222  48.896  1.00  0.00    -0.059 A 
HETATM   20  C   UNL     1      23.139  45.872  48.859  1.00  0.00     0.007 A 
HETATM   21  C   UNL     1      24.273  45.422  49.541  1.00  0.00     0.009 A 
BRANCH  19  22
HETATM   22  C   UNL     1      21.585  47.719  48.122  1.00  0.00     0.034 C 
HETATM   23  C   UNL     1      21.675  49.215  47.857  1.00  0.00     0.010 C 
ENDBRANCH  19  22
ENDBRANCH   1  16
TORSDOF 2
ENDMDL
