MODEL 1
REMARK VINA RESULT:      -9.2      0.000      0.000
REMARK  7 active torsions:
REMARK  status: ('A' for Active; 'I' for Inactive)
REMARK    1  A    between atoms: C_7  and  C_8 
REMARK    2  A    between atoms: C_8  and  N_9 
REMARK    3  A    between atoms: C_13  and  C_14 
REMARK    4  A    between atoms: C_14  and  C_15 
REMARK    5  A    between atoms: C_15  and  C_16 
REMARK    6  A    between atoms: N_26  and  C_27 
REMARK    7  A    between atoms: C_27  and  C_28 
ROOT
HETATM    1  C   UNL     1      26.652  43.150  51.100  1.00  0.00     0.123 C 
HETATM    2  N   UNL     1      26.570  43.047  49.652  1.00  0.00    -0.324 N 
HETATM    3  C   UNL     1      27.233  41.953  49.144  1.00  0.00     0.326 C 
HETATM    4  O   UNL     1      27.425  41.763  47.959  1.00  0.00    -0.247 OA
HETATM    5  N   UNL     1      27.578  41.151  50.182  1.00  0.00    -0.268 N 
HETATM    6  C   UNL     1      27.188  41.719  51.354  1.00  0.00     0.257 C 
HETATM    7  O   UNL     1      27.262  41.189  52.455  1.00  0.00    -0.270 OA
HETATM    8  H   UNL     1      26.406  43.834  49.028  1.00  0.00     0.165 HD
ENDROOT
BRANCH   1   9
HETATM    9  C   UNL     1      25.245  43.454  51.713  1.00  0.00     0.027 C 
HETATM   10  C   UNL     1      24.011  42.953  50.949  1.00  0.00     0.035 C 
HETATM   11  C   UNL     1      23.537  43.805  49.779  1.00  0.00     0.235 C 
HETATM   12  N   UNL     1      23.554  45.290  50.056  1.00  0.00    -0.067 N 
HETATM   13  H   UNL     1      22.673  45.502  50.541  1.00  0.00     0.280 HD
HETATM   14  C   UNL     1      24.677  45.822  50.906  1.00  0.00     0.235 C 
HETATM   15  C   UNL     1      24.983  44.924  52.088  1.00  0.00     0.035 C 
BRANCH  12  16
HETATM   16  C   UNL     1      23.513  46.092  48.757  1.00  0.00     0.277 C 
BRANCH  16  17
HETATM   17  C   UNL     1      22.940  47.452  48.875  1.00  0.00     0.011 A 
HETATM   18  C   UNL     1      23.589  48.676  48.979  1.00  0.00     0.035 A 
HETATM   19  C   UNL     1      25.036  49.014  48.996  1.00  0.00     0.070 C 
HETATM   20  N   UNL     1      22.592  49.626  48.981  1.00  0.00    -0.278 N 
HETATM   21  C   UNL     1      22.713  51.067  48.953  1.00  0.00     0.179 C 
HETATM   22  N   UNL     1      21.360  49.091  48.931  1.00  0.00    -0.185 NA
HETATM   23  C   UNL     1      21.569  47.786  48.821  1.00  0.00     0.149 A 
ENDBRANCH  16  17
ENDBRANCH  12  16
ENDBRANCH   1   9
BRANCH   1  24
HETATM   24  C   UNL     1      27.819  44.096  51.526  1.00  0.00     0.082 C 
BRANCH  24  25
HETATM   25  C   UNL     1      28.620  43.850  52.794  1.00  0.00    -0.034 A 
HETATM   26  C   UNL     1      28.407  44.487  54.029  1.00  0.00     0.040 A 
HETATM   27 CL   UNL     1      27.139  45.619  54.298  1.00  0.00    -0.084 Cl
HETATM   28  C   UNL     1      29.266  44.257  55.113  1.00  0.00     0.024 A 
HETATM   29  C   UNL     1      30.366  43.412  54.981  1.00  0.00     0.002 A 
HETATM   30  C   UNL     1      30.610  42.791  53.765  1.00  0.00     0.001 A 
HETATM   31  C   UNL     1      29.749  43.008  52.685  1.00  0.00     0.009 A 
ENDBRANCH  24  25
ENDBRANCH   1  24
BRANCH   5  32
HETATM   32  C   UNL     1      28.244  39.873  50.052  1.00  0.00     0.141 C 
BRANCH  32  33
HETATM   33  C   UNL     1      27.271  38.831  49.589  1.00  0.00     0.004 A 
HETATM   34  C   UNL     1      27.473  38.086  48.292  1.00  0.00     0.007 A 
HETATM   35  C   UNL     1      27.659  37.374  49.602  1.00  0.00     0.007 A 
ENDBRANCH  32  33
ENDBRANCH   5  32
TORSDOF 7
ENDMDL
MODEL 2
REMARK VINA RESULT:      -9.0      2.614      7.117
REMARK  7 active torsions:
REMARK  status: ('A' for Active; 'I' for Inactive)
REMARK    1  A    between atoms: C_7  and  C_8 
REMARK    2  A    between atoms: C_8  and  N_9 
REMARK    3  A    between atoms: C_13  and  C_14 
REMARK    4  A    between atoms: C_14  and  C_15 
REMARK    5  A    between atoms: C_15  and  C_16 
REMARK    6  A    between atoms: N_26  and  C_27 
REMARK    7  A    between atoms: C_27  and  C_28 
ROOT
HETATM    1  C   UNL     1      27.101  42.755  51.559  1.00  0.00     0.123 C 
HETATM    2  N   UNL     1      26.045  43.080  52.503  1.00  0.00    -0.324 N 
HETATM    3  C   UNL     1      25.151  44.011  52.023  1.00  0.00     0.326 C 
HETATM    4  O   UNL     1      24.290  44.539  52.699  1.00  0.00    -0.247 OA
HETATM    5  N   UNL     1      25.392  44.181  50.700  1.00  0.00    -0.268 N 
HETATM    6  C   UNL     1      26.445  43.411  50.318  1.00  0.00     0.257 C 
HETATM    7  O   UNL     1      26.834  43.266  49.167  1.00  0.00    -0.270 OA
HETATM    8  H   UNL     1      26.123  42.973  53.512  1.00  0.00     0.165 HD
ENDROOT
BRANCH   1   9
HETATM    9  C   UNL     1      27.303  41.206  51.466  1.00  0.00     0.027 C 
HETATM   10  C   UNL     1      28.554  40.692  50.741  1.00  0.00     0.035 C 
HETATM   11  C   UNL     1      28.492  40.639  49.220  1.00  0.00     0.235 C 
HETATM   12  N   UNL     1      27.182  40.115  48.679  1.00  0.00    -0.067 N 
HETATM   13  H   UNL     1      27.255  39.091  48.691  1.00  0.00     0.280 HD
HETATM   14  C   UNL     1      25.927  40.488  49.423  1.00  0.00     0.235 C 
HETATM   15  C   UNL     1      26.102  40.407  50.927  1.00  0.00     0.035 C 
BRANCH  12  16
HETATM   16  C   UNL     1      27.002  40.499  47.211  1.00  0.00     0.277 C 
BRANCH  16  17
HETATM   17  C   UNL     1      27.609  39.563  46.237  1.00  0.00     0.011 A 
HETATM   18  C   UNL     1      28.020  39.795  44.931  1.00  0.00     0.035 A 
HETATM   19  C   UNL     1      27.995  41.030  44.104  1.00  0.00     0.070 C 
HETATM   20  N   UNL     1      28.585  38.614  44.504  1.00  0.00    -0.278 N 
HETATM   21  C   UNL     1      29.276  38.335  43.265  1.00  0.00     0.179 C 
HETATM   22  N   UNL     1      28.520  37.640  45.428  1.00  0.00    -0.185 NA
HETATM   23  C   UNL     1      27.975  38.223  46.488  1.00  0.00     0.149 A 
ENDBRANCH  16  17
ENDBRANCH  12  16
ENDBRANCH   1   9
BRANCH   1  24
HETATM   24  C   UNL     1      28.378  43.610  51.836  1.00  0.00     0.082 C 
BRANCH  24  25
HETATM   25  C   UNL     1      28.951  43.753  53.237  1.00  0.00    -0.034 A 
HETATM   26  C   UNL     1      28.591  44.742  54.168  1.00  0.00     0.040 A 
HETATM   27 CL   UNL     1      27.376  45.923  53.863  1.00  0.00    -0.084 Cl
HETATM   28  C   UNL     1      29.251  44.843  55.400  1.00  0.00     0.024 A 
HETATM   29  C   UNL     1      30.296  43.980  55.719  1.00  0.00     0.002 A 
HETATM   30  C   UNL     1      30.686  43.010  54.806  1.00  0.00     0.001 A 
HETATM   31  C   UNL     1      30.023  42.899  53.581  1.00  0.00     0.009 A 
ENDBRANCH  24  25
ENDBRANCH   1  24
BRANCH   5  32
HETATM   32  C   UNL     1      24.624  45.041  49.825  1.00  0.00     0.141 C 
BRANCH  32  33
HETATM   33  C   UNL     1      25.324  46.354  49.649  1.00  0.00     0.004 A 
HETATM   34  C   UNL     1      24.624  47.663  49.923  1.00  0.00     0.007 A 
HETATM   35  C   UNL     1      25.702  47.179  50.853  1.00  0.00     0.007 A 
ENDBRANCH  32  33
ENDBRANCH   5  32
TORSDOF 7
ENDMDL
MODEL 3
REMARK VINA RESULT:      -8.7     11.497     13.947
REMARK  7 active torsions:
REMARK  status: ('A' for Active; 'I' for Inactive)
REMARK    1  A    between atoms: C_7  and  C_8 
REMARK    2  A    between atoms: C_8  and  N_9 
REMARK    3  A    between atoms: C_13  and  C_14 
REMARK    4  A    between atoms: C_14  and  C_15 
REMARK    5  A    between atoms: C_15  and  C_16 
REMARK    6  A    between atoms: N_26  and  C_27 
REMARK    7  A    between atoms: C_27  and  C_28 
ROOT
HETATM    1  C   UNL     1      27.289  49.996  39.519  1.00  0.00     0.123 C 
HETATM    2  N   UNL     1      26.934  51.032  40.475  1.00  0.00    -0.324 N 
HETATM    3  C   UNL     1      27.922  51.972  40.654  1.00  0.00     0.326 C 
HETATM    4  O   UNL     1      27.899  52.829  41.516  1.00  0.00    -0.247 OA
HETATM    5  N   UNL     1      28.863  51.781  39.696  1.00  0.00    -0.268 N 
HETATM    6  C   UNL     1      28.525  50.714  38.924  1.00  0.00     0.257 C 
HETATM    7  O   UNL     1      29.117  50.358  37.913  1.00  0.00    -0.270 OA
HETATM    8  H   UNL     1      26.248  50.917  41.218  1.00  0.00     0.165 HD
ENDROOT
BRANCH   1   9
HETATM    9  C   UNL     1      26.116  49.744  38.516  1.00  0.00     0.027 C 
HETATM   10  C   UNL     1      24.732  49.429  39.101  1.00  0.00     0.035 C 
HETATM   11  C   UNL     1      24.484  47.993  39.542  1.00  0.00     0.235 C 
HETATM   12  N   UNL     1      25.019  46.957  38.581  1.00  0.00    -0.067 N 
HETATM   13  H   UNL     1      24.300  46.837  37.858  1.00  0.00     0.280 HD
HETATM   14  C   UNL     1      26.316  47.266  37.882  1.00  0.00     0.235 C 
HETATM   15  C   UNL     1      26.391  48.705  37.413  1.00  0.00     0.035 C 
BRANCH  12  16
HETATM   16  C   UNL     1      25.152  45.595  39.261  1.00  0.00     0.277 C 
BRANCH  16  17
HETATM   17  C   UNL     1      26.513  45.012  39.239  1.00  0.00     0.011 A 
HETATM   18  C   UNL     1      27.132  44.256  38.252  1.00  0.00     0.035 A 
HETATM   19  C   UNL     1      26.647  43.804  36.921  1.00  0.00     0.070 C 
HETATM   20  N   UNL     1      28.416  44.039  38.699  1.00  0.00    -0.278 N 
HETATM   21  C   UNL     1      29.523  43.410  38.013  1.00  0.00     0.179 C 
HETATM   22  N   UNL     1      28.640  44.563  39.917  1.00  0.00    -0.185 NA
HETATM   23  C   UNL     1      27.511  45.188  40.222  1.00  0.00     0.149 A 
ENDBRANCH  16  17
ENDBRANCH  12  16
ENDBRANCH   1   9
BRANCH   1  24
HETATM   24  C   UNL     1      27.867  48.741  40.247  1.00  0.00     0.082 C 
BRANCH  24  25
HETATM   25  C   UNL     1      29.322  48.675  40.684  1.00  0.00    -0.034 A 
HETATM   26  C   UNL     1      30.356  48.036  39.979  1.00  0.00     0.040 A 
HETATM   27 CL   UNL     1      30.123  47.272  38.454  1.00  0.00    -0.084 Cl
HETATM   28  C   UNL     1      31.647  47.951  40.518  1.00  0.00     0.024 A 
HETATM   29  C   UNL     1      31.927  48.475  41.778  1.00  0.00     0.002 A 
HETATM   30  C   UNL     1      30.916  49.089  42.504  1.00  0.00     0.001 A 
HETATM   31  C   UNL     1      29.631  49.186  41.964  1.00  0.00     0.009 A 
ENDBRANCH  24  25
ENDBRANCH   1  24
BRANCH   5  32
HETATM   32  C   UNL     1      30.037  52.607  39.516  1.00  0.00     0.141 C 
BRANCH  32  33
HETATM   33  C   UNL     1      31.249  51.901  40.047  1.00  0.00     0.004 A 
HETATM   34  C   UNL     1      32.295  51.330  39.121  1.00  0.00     0.007 A 
HETATM   35  C   UNL     1      32.607  52.548  39.944  1.00  0.00     0.007 A 
ENDBRANCH  32  33
ENDBRANCH   5  32
TORSDOF 7
ENDMDL
MODEL 4
REMARK VINA RESULT:      -8.7      2.424      5.264
REMARK  7 active torsions:
REMARK  status: ('A' for Active; 'I' for Inactive)
REMARK    1  A    between atoms: C_7  and  C_8 
REMARK    2  A    between atoms: C_8  and  N_9 
REMARK    3  A    between atoms: C_13  and  C_14 
REMARK    4  A    between atoms: C_14  and  C_15 
REMARK    5  A    between atoms: C_15  and  C_16 
REMARK    6  A    between atoms: N_26  and  C_27 
REMARK    7  A    between atoms: C_27  and  C_28 
ROOT
HETATM    1  C   UNL     1      26.254  43.370  51.122  1.00  0.00     0.123 C 
HETATM    2  N   UNL     1      25.169  44.000  51.856  1.00  0.00    -0.324 N 
HETATM    3  C   UNL     1      25.475  44.252  53.174  1.00  0.00     0.326 C 
HETATM    4  O   UNL     1      24.667  44.625  54.001  1.00  0.00    -0.247 OA
HETATM    5  N   UNL     1      26.804  44.045  53.343  1.00  0.00    -0.268 N 
HETATM    6  C   UNL     1      27.360  43.629  52.175  1.00  0.00     0.257 C 
HETATM    7  O   UNL     1      28.557  43.464  51.981  1.00  0.00    -0.270 OA
HETATM    8  H   UNL     1      24.186  43.929  51.602  1.00  0.00     0.165 HD
ENDROOT
BRANCH   1   9
HETATM    9  C   UNL     1      26.469  44.074  49.741  1.00  0.00     0.027 C 
HETATM   10  C   UNL     1      27.205  45.422  49.735  1.00  0.00     0.035 C 
HETATM   11  C   UNL     1      26.381  46.654  50.084  1.00  0.00     0.235 C 
HETATM   12  N   UNL     1      25.011  46.674  49.447  1.00  0.00    -0.067 N 
HETATM   13  H   UNL     1      25.139  47.053  48.501  1.00  0.00     0.280 HD
HETATM   14  C   UNL     1      24.290  45.359  49.315  1.00  0.00     0.235 C 
HETATM   15  C   UNL     1      25.210  44.239  48.871  1.00  0.00     0.035 C 
BRANCH  12  16
HETATM   16  C   UNL     1      24.087  47.658  50.164  1.00  0.00     0.277 C 
BRANCH  16  17
HETATM   17  C   UNL     1      23.422  48.649  49.287  1.00  0.00     0.011 A 
HETATM   18  C   UNL     1      22.145  48.625  48.740  1.00  0.00     0.035 A 
HETATM   19  C   UNL     1      21.051  47.627  48.862  1.00  0.00     0.070 C 
HETATM   20  N   UNL     1      22.004  49.822  48.074  1.00  0.00    -0.278 N 
HETATM   21  C   UNL     1      20.831  50.366  47.426  1.00  0.00     0.179 C 
HETATM   22  N   UNL     1      23.113  50.580  48.120  1.00  0.00    -0.185 NA
HETATM   23  C   UNL     1      23.951  49.896  48.888  1.00  0.00     0.149 A 
ENDBRANCH  16  17
ENDBRANCH  12  16
ENDBRANCH   1   9
BRANCH   1  24
HETATM   24  C   UNL     1      26.081  41.819  51.095  1.00  0.00     0.082 C 
BRANCH  24  25
HETATM   25  C   UNL     1      26.687  40.970  49.989  1.00  0.00    -0.034 A 
HETATM   26  C   UNL     1      25.999  40.487  48.862  1.00  0.00     0.040 A 
HETATM   27 CL   UNL     1      24.347  40.850  48.542  1.00  0.00    -0.084 Cl
HETATM   28  C   UNL     1      26.629  39.631  47.948  1.00  0.00     0.024 A 
HETATM   29  C   UNL     1      27.943  39.218  48.151  1.00  0.00     0.002 A 
HETATM   30  C   UNL     1      28.636  39.663  49.269  1.00  0.00     0.001 A 
HETATM   31  C   UNL     1      28.015  40.526  50.176  1.00  0.00     0.009 A 
ENDBRANCH  24  25
ENDBRANCH   1  24
BRANCH   5  32
HETATM   32  C   UNL     1      27.522  44.259  54.582  1.00  0.00     0.141 C 
BRANCH  32  33
HETATM   33  C   UNL     1      28.174  45.609  54.573  1.00  0.00     0.004 A 
HETATM   34  C   UNL     1      27.861  46.641  55.629  1.00  0.00     0.007 A 
HETATM   35  C   UNL     1      29.202  45.960  55.619  1.00  0.00     0.007 A 
ENDBRANCH  32  33
ENDBRANCH   5  32
TORSDOF 7
ENDMDL
MODEL 5
REMARK VINA RESULT:      -8.6     13.193     15.996
REMARK  7 active torsions:
REMARK  status: ('A' for Active; 'I' for Inactive)
REMARK    1  A    between atoms: C_7  and  C_8 
REMARK    2  A    between atoms: C_8  and  N_9 
REMARK    3  A    between atoms: C_13  and  C_14 
REMARK    4  A    between atoms: C_14  and  C_15 
REMARK    5  A    between atoms: C_15  and  C_16 
REMARK    6  A    between atoms: N_26  and  C_27 
REMARK    7  A    between atoms: C_27  and  C_28 
ROOT
HETATM    1  C   UNL     1      34.031  51.243  41.443  1.00  0.00     0.123 C 
HETATM    2  N   UNL     1      33.787  51.634  42.822  1.00  0.00    -0.324 N 
HETATM    3  C   UNL     1      32.671  51.041  43.367  1.00  0.00     0.326 C 
HETATM    4  O   UNL     1      32.197  51.345  44.445  1.00  0.00    -0.247 OA
HETATM    5  N   UNL     1      32.252  50.071  42.518  1.00  0.00    -0.268 N 
HETATM    6  C   UNL     1      33.047  50.047  41.416  1.00  0.00     0.257 C 
HETATM    7  O   UNL     1      32.990  49.213  40.521  1.00  0.00    -0.270 OA
HETATM    8  H   UNL     1      34.117  52.500  43.240  1.00  0.00     0.165 HD
ENDROOT
BRANCH   1   9
HETATM    9  C   UNL     1      35.536  50.873  41.231  1.00  0.00     0.027 C 
HETATM   10  C   UNL     1      36.392  50.623  42.482  1.00  0.00     0.035 C 
HETATM   11  C   UNL     1      36.933  51.853  43.199  1.00  0.00     0.235 C 
HETATM   12  N   UNL     1      37.462  52.920  42.269  1.00  0.00    -0.067 N 
HETATM   13  H   UNL     1      38.427  52.652  42.043  1.00  0.00     0.280 HD
HETATM   14  C   UNL     1      36.733  53.127  40.968  1.00  0.00     0.235 C 
HETATM   15  C   UNL     1      36.335  51.819  40.315  1.00  0.00     0.035 C 
BRANCH  12  16
HETATM   16  C   UNL     1      37.563  54.268  42.982  1.00  0.00     0.277 C 
BRANCH  16  17
HETATM   17  C   UNL     1      38.188  54.223  44.324  1.00  0.00     0.011 A 
HETATM   18  C   UNL     1      39.482  53.869  44.683  1.00  0.00     0.035 A 
HETATM   19  C   UNL     1      40.639  53.437  43.856  1.00  0.00     0.070 C 
HETATM   20  N   UNL     1      39.562  54.078  46.041  1.00  0.00    -0.278 N 
HETATM   21  C   UNL     1      40.716  53.980  46.908  1.00  0.00     0.179 C 
HETATM   22  N   UNL     1      38.401  54.495  46.575  1.00  0.00    -0.185 NA
HETATM   23  C   UNL     1      37.587  54.627  45.536  1.00  0.00     0.149 A 
ENDBRANCH  16  17
ENDBRANCH  12  16
ENDBRANCH   1   9
BRANCH   1  24
HETATM   24  C   UNL     1      33.422  52.285  40.452  1.00  0.00     0.082 C 
BRANCH  24  25
HETATM   25  C   UNL     1      31.931  52.324  40.157  1.00  0.00    -0.034 A 
HETATM   26  C   UNL     1      31.316  51.820  38.998  1.00  0.00     0.040 A 
HETATM   27 CL   UNL     1      32.183  51.013  37.748  1.00  0.00    -0.084 Cl
HETATM   28  C   UNL     1      29.942  51.993  38.781  1.00  0.00     0.024 A 
HETATM   29  C   UNL     1      29.161  52.693  39.697  1.00  0.00     0.002 A 
HETATM   30  C   UNL     1      29.750  53.221  40.837  1.00  0.00     0.001 A 
HETATM   31  C   UNL     1      31.117  53.040  41.063  1.00  0.00     0.009 A 
ENDBRANCH  24  25
ENDBRANCH   1  24
BRANCH   5  32
HETATM   32  C   UNL     1      31.136  49.184  42.764  1.00  0.00     0.141 C 
BRANCH  32  33
HETATM   33  C   UNL     1      29.942  49.626  41.973  1.00  0.00     0.004 A 
HETATM   34  C   UNL     1      29.501  48.886  40.734  1.00  0.00     0.007 A 
HETATM   35  C   UNL     1      28.676  48.806  41.989  1.00  0.00     0.007 A 
ENDBRANCH  32  33
ENDBRANCH   5  32
TORSDOF 7
ENDMDL
MODEL 6
REMARK VINA RESULT:      -8.5     11.386     13.340
REMARK  7 active torsions:
REMARK  status: ('A' for Active; 'I' for Inactive)
REMARK    1  A    between atoms: C_7  and  C_8 
REMARK    2  A    between atoms: C_8  and  N_9 
REMARK    3  A    between atoms: C_13  and  C_14 
REMARK    4  A    between atoms: C_14  and  C_15 
REMARK    5  A    between atoms: C_15  and  C_16 
REMARK    6  A    between atoms: N_26  and  C_27 
REMARK    7  A    between atoms: C_27  and  C_28 
ROOT
HETATM    1  C   UNL     1      29.632  48.378  40.137  1.00  0.00     0.123 C 
HETATM    2  N   UNL     1      30.931  47.741  39.992  1.00  0.00    -0.324 N 
HETATM    3  C   UNL     1      31.825  48.095  40.977  1.00  0.00     0.326 C 
HETATM    4  O   UNL     1      33.006  47.805  40.960  1.00  0.00    -0.247 OA
HETATM    5  N   UNL     1      31.147  48.765  41.940  1.00  0.00    -0.268 N 
HETATM    6  C   UNL     1      29.840  48.888  41.585  1.00  0.00     0.257 C 
HETATM    7  O   UNL     1      28.955  49.348  42.295  1.00  0.00    -0.270 OA
HETATM    8  H   UNL     1      31.306  47.395  39.112  1.00  0.00     0.165 HD
ENDROOT
BRANCH   1   9
HETATM    9  C   UNL     1      28.481  47.334  39.957  1.00  0.00     0.027 C 
HETATM   10  C   UNL     1      28.011  47.031  38.527  1.00  0.00     0.035 C 
HETATM   11  C   UNL     1      27.032  48.017  37.904  1.00  0.00     0.235 C 
HETATM   12  N   UNL     1      25.945  48.479  38.847  1.00  0.00    -0.067 N 
HETATM   13  H   UNL     1      25.212  47.761  38.814  1.00  0.00     0.280 HD
HETATM   14  C   UNL     1      26.320  48.676  40.292  1.00  0.00     0.235 C 
HETATM   15  C   UNL     1      27.222  47.573  40.810  1.00  0.00     0.035 C 
BRANCH  12  16
HETATM   16  C   UNL     1      25.290  49.763  38.342  1.00  0.00     0.277 C 
BRANCH  16  17
HETATM   17  C   UNL     1      23.842  49.657  38.050  1.00  0.00     0.011 A 
HETATM   18  C   UNL     1      23.186  48.865  37.117  1.00  0.00     0.035 A 
HETATM   19  C   UNL     1      23.710  47.879  36.135  1.00  0.00     0.070 C 
HETATM   20  N   UNL     1      21.843  49.090  37.315  1.00  0.00    -0.278 N 
HETATM   21  C   UNL     1      20.712  48.435  36.695  1.00  0.00     0.179 C 
HETATM   22  N   UNL     1      21.602  50.001  38.274  1.00  0.00    -0.185 NA
HETATM   23  C   UNL     1      22.802  50.308  38.749  1.00  0.00     0.149 A 
ENDBRANCH  16  17
ENDBRANCH  12  16
ENDBRANCH   1   9
BRANCH   1  24
HETATM   24  C   UNL     1      29.545  49.671  39.266  1.00  0.00     0.082 C 
BRANCH  24  25
HETATM   25  C   UNL     1      30.139  50.988  39.736  1.00  0.00    -0.034 A 
HETATM   26  C   UNL     1      29.423  52.036  40.340  1.00  0.00     0.040 A 
HETATM   27 CL   UNL     1      27.741  51.945  40.693  1.00  0.00    -0.084 Cl
HETATM   28  C   UNL     1      30.052  53.250  40.650  1.00  0.00     0.024 A 
HETATM   29  C   UNL     1      31.395  53.454  40.342  1.00  0.00     0.002 A 
HETATM   30  C   UNL     1      32.117  52.443  39.724  1.00  0.00     0.001 A 
HETATM   31  C   UNL     1      31.497  51.227  39.424  1.00  0.00     0.009 A 
ENDBRANCH  24  25
ENDBRANCH   1  24
BRANCH   5  32
HETATM   32  C   UNL     1      31.729  49.256  43.170  1.00  0.00     0.141 C 
BRANCH  32  33
HETATM   33  C   UNL     1      31.962  50.734  43.076  1.00  0.00     0.004 A 
HETATM   34  C   UNL     1      32.483  51.525  44.252  1.00  0.00     0.007 A 
HETATM   35  C   UNL     1      33.368  51.280  43.061  1.00  0.00     0.007 A 
ENDBRANCH  32  33
ENDBRANCH   5  32
TORSDOF 7
ENDMDL
MODEL 7
REMARK VINA RESULT:      -8.5      6.681     12.383
REMARK  7 active torsions:
REMARK  status: ('A' for Active; 'I' for Inactive)
REMARK    1  A    between atoms: C_7  and  C_8 
REMARK    2  A    between atoms: C_8  and  N_9 
REMARK    3  A    between atoms: C_13  and  C_14 
REMARK    4  A    between atoms: C_14  and  C_15 
REMARK    5  A    between atoms: C_15  and  C_16 
REMARK    6  A    between atoms: N_26  and  C_27 
REMARK    7  A    between atoms: C_27  and  C_28 
ROOT
HETATM    1  C   UNL     1      17.948  50.773  48.776  1.00  0.00     0.123 C 
HETATM    2  N   UNL     1      16.775  49.966  48.481  1.00  0.00    -0.324 N 
HETATM    3  C   UNL     1      16.699  49.574  47.164  1.00  0.00     0.326 C 
HETATM    4  O   UNL     1      15.729  49.033  46.670  1.00  0.00    -0.247 OA
HETATM    5  N   UNL     1      17.882  49.866  46.569  1.00  0.00    -0.268 N 
HETATM    6  C   UNL     1      18.710  50.473  47.461  1.00  0.00     0.257 C 
HETATM    7  O   UNL     1      19.882  50.759  47.255  1.00  0.00    -0.270 OA
HETATM    8  H   UNL     1      15.912  49.989  49.020  1.00  0.00     0.165 HD
ENDROOT
BRANCH   1   9
HETATM    9  C   UNL     1      18.649  50.272  50.081  1.00  0.00     0.027 C 
HETATM   10  C   UNL     1      20.039  50.837  50.407  1.00  0.00     0.035 C 
HETATM   11  C   UNL     1      21.222  50.202  49.689  1.00  0.00     0.235 C 
HETATM   12  N   UNL     1      21.152  48.696  49.606  1.00  0.00    -0.067 N 
HETATM   13  H   UNL     1      21.527  48.341  50.495  1.00  0.00     0.280 HD
HETATM   14  C   UNL     1      19.793  48.076  49.410  1.00  0.00     0.235 C 
HETATM   15  C   UNL     1      18.726  48.744  50.255  1.00  0.00     0.035 C 
BRANCH  12  16
HETATM   16  C   UNL     1      22.085  48.161  48.521  1.00  0.00     0.277 C 
BRANCH  16  17
HETATM   17  C   UNL     1      23.492  47.970  48.940  1.00  0.00     0.011 A 
HETATM   18  C   UNL     1      24.593  48.792  48.735  1.00  0.00     0.035 A 
HETATM   19  C   UNL     1      24.714  50.106  48.052  1.00  0.00     0.070 C 
HETATM   20  N   UNL     1      25.638  48.187  49.396  1.00  0.00    -0.278 N 
HETATM   21  C   UNL     1      26.983  48.674  49.605  1.00  0.00     0.179 C 
HETATM   22  N   UNL     1      25.290  47.019  49.965  1.00  0.00    -0.185 NA
HETATM   23  C   UNL     1      23.989  46.911  49.731  1.00  0.00     0.149 A 
ENDBRANCH  16  17
ENDBRANCH  12  16
ENDBRANCH   1   9
BRANCH   1  24
HETATM   24  C   UNL     1      17.610  52.295  48.705  1.00  0.00     0.082 C 
BRANCH  24  25
HETATM   25  C   UNL     1      16.222  52.818  49.038  1.00  0.00    -0.034 A 
HETATM   26  C   UNL     1      15.214  53.109  48.102  1.00  0.00     0.040 A 
HETATM   27 CL   UNL     1      15.398  52.851  46.410  1.00  0.00    -0.084 Cl
HETATM   28  C   UNL     1      13.999  53.678  48.509  1.00  0.00     0.024 A 
HETATM   29  C   UNL     1      13.774  53.993  49.847  1.00  0.00     0.002 A 
HETATM   30  C   UNL     1      14.764  53.737  50.786  1.00  0.00     0.001 A 
HETATM   31  C   UNL     1      15.971  53.158  50.386  1.00  0.00     0.009 A 
ENDBRANCH  24  25
ENDBRANCH   1  24
BRANCH   5  32
HETATM   32  C   UNL     1      18.215  49.555  45.196  1.00  0.00     0.141 C 
BRANCH  32  33
HETATM   33  C   UNL     1      18.136  50.793  44.354  1.00  0.00     0.004 A 
HETATM   34  C   UNL     1      18.638  50.810  42.931  1.00  0.00     0.007 A 
HETATM   35  C   UNL     1      17.161  50.868  43.206  1.00  0.00     0.007 A 
ENDBRANCH  32  33
ENDBRANCH   5  32
TORSDOF 7
ENDMDL
MODEL 8
REMARK VINA RESULT:      -8.4      2.775      6.369
REMARK  7 active torsions:
REMARK  status: ('A' for Active; 'I' for Inactive)
REMARK    1  A    between atoms: C_7  and  C_8 
REMARK    2  A    between atoms: C_8  and  N_9 
REMARK    3  A    between atoms: C_13  and  C_14 
REMARK    4  A    between atoms: C_14  and  C_15 
REMARK    5  A    between atoms: C_15  and  C_16 
REMARK    6  A    between atoms: N_26  and  C_27 
REMARK    7  A    between atoms: C_27  and  C_28 
ROOT
HETATM    1  C   UNL     1      27.009  42.761  51.298  1.00  0.00     0.123 C 
HETATM    2  N   UNL     1      25.848  43.153  52.079  1.00  0.00    -0.324 N 
HETATM    3  C   UNL     1      25.000  44.003  51.407  1.00  0.00     0.326 C 
HETATM    4  O   UNL     1      24.059  44.574  51.924  1.00  0.00    -0.247 OA
HETATM    5  N   UNL     1      25.385  44.042  50.108  1.00  0.00    -0.268 N 
HETATM    6  C   UNL     1      26.487  43.266  49.930  1.00  0.00     0.257 C 
HETATM    7  O   UNL     1      27.006  43.013  48.851  1.00  0.00    -0.270 OA
HETATM    8  H   UNL     1      25.813  43.153  53.096  1.00  0.00     0.165 HD
ENDROOT
BRANCH   1   9
HETATM    9  C   UNL     1      27.244  41.217  51.393  1.00  0.00     0.027 C 
HETATM   10  C   UNL     1      28.509  40.646  50.735  1.00  0.00     0.035 C 
HETATM   11  C   UNL     1      28.452  40.409  49.232  1.00  0.00     0.235 C 
HETATM   12  N   UNL     1      27.156  39.795  48.758  1.00  0.00    -0.067 N 
HETATM   13  H   UNL     1      27.251  38.781  48.894  1.00  0.00     0.280 HD
HETATM   14  C   UNL     1      25.891  40.227  49.452  1.00  0.00     0.235 C 
HETATM   15  C   UNL     1      26.063  40.332  50.954  1.00  0.00     0.035 C 
BRANCH  12  16
HETATM   16  C   UNL     1      26.971  39.995  47.255  1.00  0.00     0.277 C 
BRANCH  16  17
HETATM   17  C   UNL     1      25.776  39.339  46.676  1.00  0.00     0.011 A 
HETATM   18  C   UNL     1      24.677  39.908  46.045  1.00  0.00     0.035 A 
HETATM   19  C   UNL     1      24.352  41.326  45.743  1.00  0.00     0.070 C 
HETATM   20  N   UNL     1      23.900  38.851  45.627  1.00  0.00    -0.278 N 
HETATM   21  C   UNL     1      22.702  38.870  44.818  1.00  0.00     0.179 C 
HETATM   22  N   UNL     1      24.403  37.657  45.988  1.00  0.00    -0.185 NA
HETATM   23  C   UNL     1      25.555  37.948  46.578  1.00  0.00     0.149 A 
ENDBRANCH  16  17
ENDBRANCH  12  16
ENDBRANCH   1   9
BRANCH   1  24
HETATM   24  C   UNL     1      28.233  43.675  51.622  1.00  0.00     0.082 C 
BRANCH  24  25
HETATM   25  C   UNL     1      28.812  43.760  53.025  1.00  0.00    -0.034 A 
HETATM   26  C   UNL     1      28.412  44.670  54.019  1.00  0.00     0.040 A 
HETATM   27 CL   UNL     1      27.136  45.805  53.796  1.00  0.00    -0.084 Cl
HETATM   28  C   UNL     1      29.079  44.728  55.250  1.00  0.00     0.024 A 
HETATM   29  C   UNL     1      30.170  43.902  55.507  1.00  0.00     0.002 A 
HETATM   30  C   UNL     1      30.599  43.011  54.533  1.00  0.00     0.001 A 
HETATM   31  C   UNL     1      29.929  42.943  53.308  1.00  0.00     0.009 A 
ENDBRANCH  24  25
ENDBRANCH   1  24
BRANCH   5  32
HETATM   32  C   UNL     1      24.707  44.784  49.068  1.00  0.00     0.141 C 
BRANCH  32  33
HETATM   33  C   UNL     1      23.648  43.933  48.435  1.00  0.00     0.004 A 
HETATM   34  C   UNL     1      22.183  44.159  48.719  1.00  0.00     0.007 A 
HETATM   35  C   UNL     1      22.748  44.510  47.371  1.00  0.00     0.007 A 
ENDBRANCH  32  33
ENDBRANCH   5  32
TORSDOF 7
ENDMDL
MODEL 9
REMARK VINA RESULT:      -8.4     17.759     21.000
REMARK  7 active torsions:
REMARK  status: ('A' for Active; 'I' for Inactive)
REMARK    1  A    between atoms: C_7  and  C_8 
REMARK    2  A    between atoms: C_8  and  N_9 
REMARK    3  A    between atoms: C_13  and  C_14 
REMARK    4  A    between atoms: C_14  and  C_15 
REMARK    5  A    between atoms: C_15  and  C_16 
REMARK    6  A    between atoms: N_26  and  C_27 
REMARK    7  A    between atoms: C_27  and  C_28 
ROOT
HETATM    1  C   UNL     1      38.664  44.754  64.864  1.00  0.00     0.123 C 
HETATM    2  N   UNL     1      37.602  45.294  64.030  1.00  0.00    -0.324 N 
HETATM    3  C   UNL     1      37.129  46.510  64.468  1.00  0.00     0.326 C 
HETATM    4  O   UNL     1      36.144  47.060  64.015  1.00  0.00    -0.247 OA
HETATM    5  N   UNL     1      37.966  46.964  65.433  1.00  0.00    -0.268 N 
HETATM    6  C   UNL     1      38.949  46.053  65.658  1.00  0.00     0.257 C 
HETATM    7  O   UNL     1      39.914  46.222  66.392  1.00  0.00    -0.270 OA
HETATM    8  H   UNL     1      36.993  44.732  63.441  1.00  0.00     0.165 HD
ENDROOT
BRANCH   1   9
HETATM    9  C   UNL     1      39.849  44.236  63.984  1.00  0.00     0.027 C 
HETATM   10  C   UNL     1      39.505  43.375  62.760  1.00  0.00     0.035 C 
HETATM   11  C   UNL     1      39.227  41.900  63.017  1.00  0.00     0.235 C 
HETATM   12  N   UNL     1      40.180  41.259  63.998  1.00  0.00    -0.067 N 
HETATM   13  H   UNL     1      41.010  40.988  63.457  1.00  0.00     0.280 HD
HETATM   14  C   UNL     1      40.650  42.099  65.156  1.00  0.00     0.235 C 
HETATM   15  C   UNL     1      40.981  43.520  64.742  1.00  0.00     0.035 C 
BRANCH  12  16
HETATM   16  C   UNL     1      39.605  39.957  64.553  1.00  0.00     0.277 C 
BRANCH  16  17
HETATM   17  C   UNL     1      40.606  38.918  64.885  1.00  0.00     0.011 A 
HETATM   18  C   UNL     1      41.182  38.609  66.111  1.00  0.00     0.035 A 
HETATM   19  C   UNL     1      40.979  39.198  67.460  1.00  0.00     0.070 C 
HETATM   20  N   UNL     1      41.983  37.513  65.880  1.00  0.00    -0.278 N 
HETATM   21  C   UNL     1      42.721  36.712  66.831  1.00  0.00     0.179 C 
HETATM   22  N   UNL     1      41.993  37.136  64.589  1.00  0.00    -0.185 NA
HETATM   23  C   UNL     1      41.129  37.951  63.999  1.00  0.00     0.149 A 
ENDBRANCH  16  17
ENDBRANCH  12  16
ENDBRANCH   1   9
BRANCH   1  24
HETATM   24  C   UNL     1      38.090  43.758  65.920  1.00  0.00     0.082 C 
BRANCH  24  25
HETATM   25  C   UNL     1      36.646  43.287  65.867  1.00  0.00    -0.034 A 
HETATM   26  C   UNL     1      35.566  43.892  66.532  1.00  0.00     0.040 A 
HETATM   27 CL   UNL     1      35.725  45.323  67.475  1.00  0.00    -0.084 Cl
HETATM   28  C   UNL     1      34.286  43.320  66.493  1.00  0.00     0.024 A 
HETATM   29  C   UNL     1      34.063  42.124  65.815  1.00  0.00     0.002 A 
HETATM   30  C   UNL     1      35.119  41.495  65.171  1.00  0.00     0.001 A 
HETATM   31  C   UNL     1      36.393  42.068  65.198  1.00  0.00     0.009 A 
ENDBRANCH  24  25
ENDBRANCH   1  24
BRANCH   5  32
HETATM   32  C   UNL     1      37.836  48.240  66.104  1.00  0.00     0.141 C 
BRANCH  32  33
HETATM   33  C   UNL     1      38.315  49.343  65.209  1.00  0.00     0.004 A 
HETATM   34  C   UNL     1      39.069  50.530  65.758  1.00  0.00     0.007 A 
HETATM   35  C   UNL     1      39.787  49.504  64.925  1.00  0.00     0.007 A 
ENDBRANCH  32  33
ENDBRANCH   5  32
TORSDOF 7
ENDMDL
MODEL 10
REMARK VINA RESULT:      -8.3      2.649      6.610
REMARK  7 active torsions:
REMARK  status: ('A' for Active; 'I' for Inactive)
REMARK    1  A    between atoms: C_7  and  C_8 
REMARK    2  A    between atoms: C_8  and  N_9 
REMARK    3  A    between atoms: C_13  and  C_14 
REMARK    4  A    between atoms: C_14  and  C_15 
REMARK    5  A    between atoms: C_15  and  C_16 
REMARK    6  A    between atoms: N_26  and  C_27 
REMARK    7  A    between atoms: C_27  and  C_28 
ROOT
HETATM    1  C   UNL     1      24.560  45.398  50.405  1.00  0.00     0.123 C 
HETATM    2  N   UNL     1      25.627  44.986  49.508  1.00  0.00    -0.324 N 
HETATM    3  C   UNL     1      26.636  44.296  50.140  1.00  0.00     0.326 C 
HETATM    4  O   UNL     1      27.691  43.999  49.614  1.00  0.00    -0.247 OA
HETATM    5  N   UNL     1      26.219  43.998  51.395  1.00  0.00    -0.268 N 
HETATM    6  C   UNL     1      24.978  44.511  51.604  1.00  0.00     0.257 C 
HETATM    7  O   UNL     1      24.291  44.318  52.599  1.00  0.00    -0.270 OA
HETATM    8  H   UNL     1      25.845  45.444  48.626  1.00  0.00     0.165 HD
ENDROOT
BRANCH   1   9
HETATM    9  C   UNL     1      23.161  45.069  49.788  1.00  0.00     0.027 C 
HETATM   10  C   UNL     1      22.518  43.723  50.153  1.00  0.00     0.035 C 
HETATM   11  C   UNL     1      22.998  42.503  49.377  1.00  0.00     0.235 C 
HETATM   12  N   UNL     1      23.166  42.747  47.896  1.00  0.00    -0.067 N 
HETATM   13  H   UNL     1      22.237  42.623  47.477  1.00  0.00     0.280 HD
HETATM   14  C   UNL     1      23.679  44.097  47.471  1.00  0.00     0.235 C 
HETATM   15  C   UNL     1      23.050  45.228  48.261  1.00  0.00     0.035 C 
BRANCH  12  16
HETATM   16  C   UNL     1      24.052  41.676  47.261  1.00  0.00     0.277 C 
BRANCH  16  17
HETATM   17  C   UNL     1      25.179  41.213  48.103  1.00  0.00     0.011 A 
HETATM   18  C   UNL     1      26.484  40.905  47.737  1.00  0.00     0.035 A 
HETATM   19  C   UNL     1      27.162  40.948  46.416  1.00  0.00     0.070 C 
HETATM   20  N   UNL     1      27.138  40.605  48.911  1.00  0.00    -0.278 N 
HETATM   21  C   UNL     1      28.542  40.331  49.123  1.00  0.00     0.179 C 
HETATM   22  N   UNL     1      26.332  40.656  49.986  1.00  0.00    -0.185 NA
HETATM   23  C   UNL     1      25.165  41.066  49.507  1.00  0.00     0.149 A 
ENDBRANCH  16  17
ENDBRANCH  12  16
ENDBRANCH   1   9
BRANCH   1  24
HETATM   24  C   UNL     1      24.780  46.864  50.896  1.00  0.00     0.082 C 
BRANCH  24  25
HETATM   25  C   UNL     1      25.225  47.962  49.944  1.00  0.00    -0.034 A 
HETATM   26  C   UNL     1      24.372  48.749  49.151  1.00  0.00     0.040 A 
HETATM   27 CL   UNL     1      22.656  48.614  49.195  1.00  0.00    -0.084 Cl
HETATM   28  C   UNL     1      24.893  49.672  48.233  1.00  0.00     0.024 A 
HETATM   29  C   UNL     1      26.269  49.811  48.068  1.00  0.00     0.002 A 
HETATM   30  C   UNL     1      27.131  49.028  48.822  1.00  0.00     0.001 A 
HETATM   31  C   UNL     1      26.616  48.115  49.747  1.00  0.00     0.009 A 
ENDBRANCH  24  25
ENDBRANCH   1  24
BRANCH   5  32
HETATM   32  C   UNL     1      26.979  43.229  52.357  1.00  0.00     0.141 C 
BRANCH  32  33
HETATM   33  C   UNL     1      27.868  44.135  53.155  1.00  0.00     0.004 A 
HETATM   34  C   UNL     1      27.624  44.383  54.623  1.00  0.00     0.007 A 
HETATM   35  C   UNL     1      28.805  43.561  54.187  1.00  0.00     0.007 A 
ENDBRANCH  32  33
ENDBRANCH   5  32
TORSDOF 7
ENDMDL
