MODEL 1
REMARK VINA RESULT:      -9.0      0.000      0.000
REMARK  4 active torsions:
REMARK  status: ('A' for Active; 'I' for Inactive)
REMARK    1  A    between atoms: C_6  and  C_7 
REMARK    2  A    between atoms: C_8  and  C_9 
REMARK       I    between atoms: C_9  and  N_10 
REMARK    3  A    between atoms: N_10  and  C_11 
REMARK    4  A    between atoms: C_18  and  C_19 
REMARK       I    between atoms: C_19  and  N_20 
ROOT
HETATM    1  C   UNL     1      25.399  47.133  50.674  1.00  0.00     0.035 A 
HETATM    2  C   UNL     1      24.298  47.666  49.983  1.00  0.00     0.046 A 
HETATM    3  C   UNL     1      24.500  48.680  49.024  1.00  0.00     0.030 A 
HETATM    4  C   UNL     1      25.788  49.146  48.803  1.00  0.00     0.063 A 
HETATM    5  N   UNL     1      25.668  50.108  47.841  1.00  0.00    -0.277 N 
HETATM    6  H   UNL     1      26.412  50.665  47.435  1.00  0.00     0.189 HD
HETATM    7  N   UNL     1      24.412  50.303  47.403  1.00  0.00    -0.168 NA
HETATM    8  C   UNL     1      23.680  49.427  48.127  1.00  0.00     0.156 A 
HETATM    9  C   UNL     1      26.901  48.653  49.486  1.00  0.00     0.034 A 
HETATM   10  C   UNL     1      26.679  47.634  50.423  1.00  0.00     0.032 A 
ENDROOT
BRANCH   1  11
HETATM   11  N   UNL     1      25.134  46.109  51.608  1.00  0.00    -0.327 N 
HETATM   12  C   UNL     1      25.909  44.999  51.867  1.00  0.00     0.227 C 
HETATM   13  O   UNL     1      26.910  44.640  51.263  1.00  0.00    -0.273 OA
HETATM   14  H   UNL     1      24.252  46.167  52.098  1.00  0.00     0.169 HD
BRANCH  12  15
HETATM   15  C   UNL     1      25.374  44.114  52.938  1.00  0.00     0.087 A 
HETATM   16  C   UNL     1      26.097  43.926  54.261  1.00  0.00     0.032 A 
HETATM   17  C   UNL     1      24.757  44.627  54.210  1.00  0.00     0.025 A 
BRANCH  16  18
HETATM   18  C   UNL     1      27.312  44.723  54.687  1.00  0.00    -0.051 A 
HETATM   19  C   UNL     1      28.539  44.108  54.985  1.00  0.00     0.031 A 
HETATM   20  C   UNL     1      29.646  44.858  55.389  1.00  0.00     0.034 A 
HETATM   21  C   UNL     1      29.550  46.238  55.534  1.00  0.00     0.024 A 
HETATM   22 CL   UNL     1      31.142  44.069  55.716  1.00  0.00    -0.084 Cl
HETATM   23  C   UNL     1      28.338  46.870  55.275  1.00  0.00     0.002 A 
HETATM   24  C   UNL     1      27.235  46.117  54.859  1.00  0.00     0.007 A 
ENDBRANCH  16  18
ENDBRANCH  12  15
ENDBRANCH   1  11
BRANCH   8  25
HETATM   25  C   UNL     1      22.226  49.311  47.945  1.00  0.00     0.270 C 
HETATM   26  N   UNL     1      21.535  50.456  48.225  1.00  0.00    -0.365 N 
HETATM   27  H   UNL     1      22.053  51.277  48.516  1.00  0.00     0.159 HD
HETATM   28  H   UNL     1      20.534  50.482  48.110  1.00  0.00     0.159 HD
HETATM   29  O   UNL     1      21.654  48.292  47.571  1.00  0.00    -0.266 OA
ENDBRANCH   8  25
TORSDOF 4
ENDMDL
MODEL 2
REMARK VINA RESULT:      -8.9      3.664      5.402
REMARK  4 active torsions:
REMARK  status: ('A' for Active; 'I' for Inactive)
REMARK    1  A    between atoms: C_6  and  C_7 
REMARK    2  A    between atoms: C_8  and  C_9 
REMARK       I    between atoms: C_9  and  N_10 
REMARK    3  A    between atoms: N_10  and  C_11 
REMARK    4  A    between atoms: C_18  and  C_19 
REMARK       I    between atoms: C_19  and  N_20 
ROOT
HETATM    1  C   UNL     1      26.033  45.694  51.596  1.00  0.00     0.035 A 
HETATM    2  C   UNL     1      26.434  44.349  51.516  1.00  0.00     0.046 A 
HETATM    3  C   UNL     1      26.053  43.571  50.403  1.00  0.00     0.030 A 
HETATM    4  C   UNL     1      25.265  44.152  49.419  1.00  0.00     0.063 A 
HETATM    5  N   UNL     1      25.061  43.171  48.490  1.00  0.00    -0.277 N 
HETATM    6  H   UNL     1      24.524  43.242  47.632  1.00  0.00     0.189 HD
HETATM    7  N   UNL     1      25.659  42.001  48.776  1.00  0.00    -0.168 NA
HETATM    8  C   UNL     1      26.275  42.235  49.956  1.00  0.00     0.156 A 
HETATM    9  C   UNL     1      24.832  45.477  49.477  1.00  0.00     0.034 A 
HETATM   10  C   UNL     1      25.236  46.236  50.584  1.00  0.00     0.032 A 
ENDROOT
BRANCH   1  11
HETATM   11  N   UNL     1      26.461  46.423  52.725  1.00  0.00    -0.327 N 
HETATM   12  C   UNL     1      26.114  46.197  54.040  1.00  0.00     0.227 C 
HETATM   13  O   UNL     1      25.292  45.397  54.460  1.00  0.00    -0.273 OA
HETATM   14  H   UNL     1      27.038  47.233  52.543  1.00  0.00     0.169 HD
BRANCH  12  15
HETATM   15  C   UNL     1      26.760  47.123  55.011  1.00  0.00     0.087 A 
HETATM   16  C   UNL     1      28.035  46.753  55.750  1.00  0.00     0.032 A 
HETATM   17  C   UNL     1      28.035  47.869  54.729  1.00  0.00     0.025 A 
BRANCH  16  18
HETATM   18  C   UNL     1      28.854  45.512  55.463  1.00  0.00    -0.051 A 
HETATM   19  C   UNL     1      29.923  45.118  56.285  1.00  0.00     0.031 A 
HETATM   20  C   UNL     1      30.675  43.977  55.998  1.00  0.00     0.034 A 
HETATM   21  C   UNL     1      30.400  43.215  54.868  1.00  0.00     0.024 A 
HETATM   22 CL   UNL     1      31.959  43.511  57.047  1.00  0.00    -0.084 Cl
HETATM   23  C   UNL     1      29.366  43.599  54.019  1.00  0.00     0.002 A 
HETATM   24  C   UNL     1      28.607  44.735  54.316  1.00  0.00     0.007 A 
ENDBRANCH  16  18
ENDBRANCH  12  15
ENDBRANCH   1  11
BRANCH   8  25
HETATM   25  C   UNL     1      27.067  41.194  50.625  1.00  0.00     0.270 C 
HETATM   26  N   UNL     1      26.337  40.375  51.441  1.00  0.00    -0.365 N 
HETATM   27  H   UNL     1      25.338  40.530  51.515  1.00  0.00     0.159 HD
HETATM   28  H   UNL     1      26.787  39.616  51.929  1.00  0.00     0.159 HD
HETATM   29  O   UNL     1      28.276  41.042  50.482  1.00  0.00    -0.266 OA
ENDBRANCH   8  25
TORSDOF 4
ENDMDL
MODEL 3
REMARK VINA RESULT:      -8.9      5.107      8.943
REMARK  4 active torsions:
REMARK  status: ('A' for Active; 'I' for Inactive)
REMARK    1  A    between atoms: C_6  and  C_7 
REMARK    2  A    between atoms: C_8  and  C_9 
REMARK       I    between atoms: C_9  and  N_10 
REMARK    3  A    between atoms: N_10  and  C_11 
REMARK    4  A    between atoms: C_18  and  C_19 
REMARK       I    between atoms: C_19  and  N_20 
ROOT
HETATM    1  C   UNL     1      22.613  48.898  49.079  1.00  0.00     0.035 A 
HETATM    2  C   UNL     1      23.699  48.064  49.395  1.00  0.00     0.046 A 
HETATM    3  C   UNL     1      25.014  48.498  49.132  1.00  0.00     0.030 A 
HETATM    4  C   UNL     1      25.203  49.739  48.540  1.00  0.00     0.063 A 
HETATM    5  N   UNL     1      26.556  49.879  48.411  1.00  0.00    -0.277 N 
HETATM    6  H   UNL     1      27.056  50.668  48.014  1.00  0.00     0.189 HD
HETATM    7  N   UNL     1      27.270  48.840  48.879  1.00  0.00    -0.168 NA
HETATM    8  C   UNL     1      26.329  47.979  49.327  1.00  0.00     0.156 A 
HETATM    9  C   UNL     1      24.148  50.585  48.195  1.00  0.00     0.034 A 
HETATM   10  C   UNL     1      22.850  50.138  48.480  1.00  0.00     0.032 A 
ENDROOT
BRANCH   1  11
HETATM   11  N   UNL     1      21.324  48.414  49.382  1.00  0.00    -0.327 N 
HETATM   12  C   UNL     1      20.484  47.707  48.547  1.00  0.00     0.227 C 
HETATM   13  O   UNL     1      20.654  47.466  47.361  1.00  0.00    -0.273 OA
HETATM   14  H   UNL     1      20.954  48.661  50.290  1.00  0.00     0.169 HD
BRANCH  12  15
HETATM   15  C   UNL     1      19.194  47.306  49.173  1.00  0.00     0.087 A 
HETATM   16  C   UNL     1      18.128  48.324  49.541  1.00  0.00     0.032 A 
HETATM   17  C   UNL     1      17.878  47.311  48.445  1.00  0.00     0.025 A 
BRANCH  16  18
HETATM   18  C   UNL     1      18.188  49.790  49.168  1.00  0.00    -0.051 A 
HETATM   19  C   UNL     1      17.891  50.243  47.872  1.00  0.00     0.031 A 
HETATM   20  C   UNL     1      17.964  51.598  47.543  1.00  0.00     0.034 A 
HETATM   21  C   UNL     1      18.362  52.535  48.490  1.00  0.00     0.024 A 
HETATM   22 CL   UNL     1      17.563  52.116  45.950  1.00  0.00    -0.084 Cl
HETATM   23  C   UNL     1      18.691  52.111  49.774  1.00  0.00     0.002 A 
HETATM   24  C   UNL     1      18.606  50.755  50.104  1.00  0.00     0.007 A 
ENDBRANCH  16  18
ENDBRANCH  12  15
ENDBRANCH   1  11
BRANCH   8  25
HETATM   25  C   UNL     1      26.695  46.694  49.938  1.00  0.00     0.270 C 
HETATM   26  N   UNL     1      26.248  46.538  51.220  1.00  0.00    -0.365 N 
HETATM   27  H   UNL     1      25.707  47.285  51.640  1.00  0.00     0.159 HD
HETATM   28  H   UNL     1      26.431  45.681  51.718  1.00  0.00     0.159 HD
HETATM   29  O   UNL     1      27.339  45.816  49.372  1.00  0.00    -0.266 OA
ENDBRANCH   8  25
TORSDOF 4
ENDMDL
MODEL 4
REMARK VINA RESULT:      -8.8      5.230      7.912
REMARK  4 active torsions:
REMARK  status: ('A' for Active; 'I' for Inactive)
REMARK    1  A    between atoms: C_6  and  C_7 
REMARK    2  A    between atoms: C_8  and  C_9 
REMARK       I    between atoms: C_9  and  N_10 
REMARK    3  A    between atoms: N_10  and  C_11 
REMARK    4  A    between atoms: C_18  and  C_19 
REMARK       I    between atoms: C_19  and  N_20 
ROOT
HETATM    1  C   UNL     1      26.605  41.349  50.091  1.00  0.00     0.035 A 
HETATM    2  C   UNL     1      27.351  40.206  50.423  1.00  0.00     0.046 A 
HETATM    3  C   UNL     1      27.986  39.465  49.405  1.00  0.00     0.030 A 
HETATM    4  C   UNL     1      27.836  39.875  48.087  1.00  0.00     0.063 A 
HETATM    5  N   UNL     1      28.549  38.977  47.343  1.00  0.00    -0.277 N 
HETATM    6  H   UNL     1      28.659  38.967  46.335  1.00  0.00     0.189 HD
HETATM    7  N   UNL     1      29.164  38.022  48.064  1.00  0.00    -0.168 NA
HETATM    8  C   UNL     1      28.824  38.312  49.339  1.00  0.00     0.156 A 
HETATM    9  C   UNL     1      27.085  40.992  47.720  1.00  0.00     0.034 A 
HETATM   10  C   UNL     1      26.477  41.722  48.751  1.00  0.00     0.032 A 
ENDROOT
BRANCH   1  11
HETATM   11  N   UNL     1      26.009  42.057  51.157  1.00  0.00    -0.327 N 
HETATM   12  C   UNL     1      26.230  43.371  51.506  1.00  0.00     0.227 C 
HETATM   13  O   UNL     1      27.058  44.134  51.031  1.00  0.00    -0.273 OA
HETATM   14  H   UNL     1      25.399  41.524  51.762  1.00  0.00     0.169 HD
BRANCH  12  15
HETATM   15  C   UNL     1      25.421  43.840  52.666  1.00  0.00     0.087 A 
HETATM   16  C   UNL     1      26.009  43.956  54.062  1.00  0.00     0.032 A 
HETATM   17  C   UNL     1      25.583  45.193  53.301  1.00  0.00     0.025 A 
BRANCH  16  18
HETATM   18  C   UNL     1      27.478  43.777  54.383  1.00  0.00    -0.051 A 
HETATM   19  C   UNL     1      28.231  44.780  55.016  1.00  0.00     0.031 A 
HETATM   20  C   UNL     1      29.588  44.602  55.293  1.00  0.00     0.034 A 
HETATM   21  C   UNL     1      30.237  43.430  54.921  1.00  0.00     0.024 A 
HETATM   22 CL   UNL     1      30.468  45.845  56.097  1.00  0.00    -0.084 Cl
HETATM   23  C   UNL     1      29.523  42.431  54.266  1.00  0.00     0.002 A 
HETATM   24  C   UNL     1      28.162  42.608  54.000  1.00  0.00     0.007 A 
ENDBRANCH  16  18
ENDBRANCH  12  15
ENDBRANCH   1  11
BRANCH   8  25
HETATM   25  C   UNL     1      29.307  37.500  50.464  1.00  0.00     0.270 C 
HETATM   26  N   UNL     1      28.476  36.469  50.806  1.00  0.00    -0.365 N 
HETATM   27  H   UNL     1      27.624  36.336  50.274  1.00  0.00     0.159 HD
HETATM   28  H   UNL     1      28.731  35.842  51.553  1.00  0.00     0.159 HD
HETATM   29  O   UNL     1      30.361  37.698  51.060  1.00  0.00    -0.266 OA
ENDBRANCH   8  25
TORSDOF 4
ENDMDL
MODEL 5
REMARK VINA RESULT:      -8.6      2.657      3.424
REMARK  4 active torsions:
REMARK  status: ('A' for Active; 'I' for Inactive)
REMARK    1  A    between atoms: C_6  and  C_7 
REMARK    2  A    between atoms: C_8  and  C_9 
REMARK       I    between atoms: C_9  and  N_10 
REMARK    3  A    between atoms: N_10  and  C_11 
REMARK    4  A    between atoms: C_18  and  C_19 
REMARK       I    between atoms: C_19  and  N_20 
ROOT
HETATM    1  C   UNL     1      25.948  45.733  51.494  1.00  0.00     0.035 A 
HETATM    2  C   UNL     1      24.863  46.266  50.779  1.00  0.00     0.046 A 
HETATM    3  C   UNL     1      24.377  45.590  49.640  1.00  0.00     0.030 A 
HETATM    4  C   UNL     1      25.006  44.420  49.238  1.00  0.00     0.063 A 
HETATM    5  N   UNL     1      24.328  44.006  48.126  1.00  0.00    -0.277 N 
HETATM    6  H   UNL     1      24.516  43.182  47.565  1.00  0.00     0.189 HD
HETATM    7  N   UNL     1      23.301  44.798  47.774  1.00  0.00    -0.168 NA
HETATM    8  C   UNL     1      23.321  45.782  48.701  1.00  0.00     0.156 A 
HETATM    9  C   UNL     1      26.099  43.874  49.912  1.00  0.00     0.034 A 
HETATM   10  C   UNL     1      26.554  44.555  51.051  1.00  0.00     0.032 A 
ENDROOT
BRANCH   1  11
HETATM   11  N   UNL     1      26.376  46.447  52.634  1.00  0.00    -0.327 N 
HETATM   12  C   UNL     1      26.125  46.132  53.952  1.00  0.00     0.227 C 
HETATM   13  O   UNL     1      25.400  45.244  54.375  1.00  0.00    -0.273 OA
HETATM   14  H   UNL     1      26.870  47.312  52.462  1.00  0.00     0.169 HD
BRANCH  12  15
HETATM   15  C   UNL     1      26.743  47.068  54.933  1.00  0.00     0.087 A 
HETATM   16  C   UNL     1      28.014  46.717  55.688  1.00  0.00     0.032 A 
HETATM   17  C   UNL     1      28.009  47.835  54.667  1.00  0.00     0.025 A 
BRANCH  16  18
HETATM   18  C   UNL     1      28.857  45.491  55.410  1.00  0.00    -0.051 A 
HETATM   19  C   UNL     1      29.920  45.112  56.247  1.00  0.00     0.031 A 
HETATM   20  C   UNL     1      30.695  43.984  55.969  1.00  0.00     0.034 A 
HETATM   21  C   UNL     1      30.449  43.220  54.832  1.00  0.00     0.024 A 
HETATM   22 CL   UNL     1      31.970  43.536  57.036  1.00  0.00    -0.084 Cl
HETATM   23  C   UNL     1      29.422  43.591  53.969  1.00  0.00     0.002 A 
HETATM   24  C   UNL     1      28.640  44.713  54.258  1.00  0.00     0.007 A 
ENDBRANCH  16  18
ENDBRANCH  12  15
ENDBRANCH   1  11
BRANCH   8  25
HETATM   25  C   UNL     1      22.335  46.871  48.683  1.00  0.00     0.270 C 
HETATM   26  N   UNL     1      21.048  46.463  48.903  1.00  0.00    -0.365 N 
HETATM   27  H   UNL     1      20.873  45.479  49.068  1.00  0.00     0.159 HD
HETATM   28  H   UNL     1      20.302  47.140  48.930  1.00  0.00     0.159 HD
HETATM   29  O   UNL     1      22.609  48.052  48.496  1.00  0.00    -0.266 OA
ENDBRANCH   8  25
TORSDOF 4
ENDMDL
MODEL 6
REMARK VINA RESULT:      -8.6      4.413      7.692
REMARK  4 active torsions:
REMARK  status: ('A' for Active; 'I' for Inactive)
REMARK    1  A    between atoms: C_6  and  C_7 
REMARK    2  A    between atoms: C_8  and  C_9 
REMARK       I    between atoms: C_9  and  N_10 
REMARK    3  A    between atoms: N_10  and  C_11 
REMARK    4  A    between atoms: C_18  and  C_19 
REMARK       I    between atoms: C_19  and  N_20 
ROOT
HETATM    1  C   UNL     1      27.963  42.789  53.168  1.00  0.00     0.035 A 
HETATM    2  C   UNL     1      27.915  43.815  54.127  1.00  0.00     0.046 A 
HETATM    3  C   UNL     1      29.078  44.152  54.849  1.00  0.00     0.030 A 
HETATM    4  C   UNL     1      30.244  43.439  54.610  1.00  0.00     0.063 A 
HETATM    5  N   UNL     1      31.181  43.981  55.445  1.00  0.00    -0.277 N 
HETATM    6  H   UNL     1      32.151  43.703  55.540  1.00  0.00     0.189 HD
HETATM    7  N   UNL     1      30.729  44.997  56.201  1.00  0.00    -0.168 NA
HETATM    8  C   UNL     1      29.431  45.112  55.843  1.00  0.00     0.156 A 
HETATM    9  C   UNL     1      30.323  42.401  53.681  1.00  0.00     0.034 A 
HETATM   10  C   UNL     1      29.158  42.094  52.963  1.00  0.00     0.032 A 
ENDROOT
BRANCH   1  11
HETATM   11  N   UNL     1      26.771  42.511  52.467  1.00  0.00    -0.327 N 
HETATM   12  C   UNL     1      26.598  42.490  51.100  1.00  0.00     0.227 C 
HETATM   13  O   UNL     1      27.411  42.814  50.247  1.00  0.00    -0.273 OA
HETATM   14  H   UNL     1      25.943  42.368  53.029  1.00  0.00     0.169 HD
BRANCH  12  15
HETATM   15  C   UNL     1      25.220  42.129  50.663  1.00  0.00     0.087 A 
HETATM   16  C   UNL     1      24.133  43.176  50.487  1.00  0.00     0.032 A 
HETATM   17  C   UNL     1      24.678  42.425  49.292  1.00  0.00     0.025 A 
BRANCH  16  18
HETATM   18  C   UNL     1      24.368  44.669  50.570  1.00  0.00    -0.051 A 
HETATM   19  C   UNL     1      24.891  45.279  51.722  1.00  0.00     0.031 A 
HETATM   20  C   UNL     1      25.090  46.660  51.785  1.00  0.00     0.034 A 
HETATM   21  C   UNL     1      24.746  47.473  50.711  1.00  0.00     0.024 A 
HETATM   22 CL   UNL     1      25.762  47.364  53.205  1.00  0.00    -0.084 Cl
HETATM   23  C   UNL     1      24.197  46.899  49.568  1.00  0.00     0.002 A 
HETATM   24  C   UNL     1      24.010  45.515  49.504  1.00  0.00     0.007 A 
ENDBRANCH  16  18
ENDBRANCH  12  15
ENDBRANCH   1  11
BRANCH   8  25
HETATM   25  C   UNL     1      28.560  46.134  56.441  1.00  0.00     0.270 C 
HETATM   26  N   UNL     1      28.626  46.196  57.805  1.00  0.00    -0.365 N 
HETATM   27  H   UNL     1      29.255  45.565  58.289  1.00  0.00     0.159 HD
HETATM   28  H   UNL     1      28.081  46.879  58.306  1.00  0.00     0.159 HD
HETATM   29  O   UNL     1      27.831  46.885  55.800  1.00  0.00    -0.266 OA
ENDBRANCH   8  25
TORSDOF 4
ENDMDL
MODEL 7
REMARK VINA RESULT:      -8.5      5.415      8.359
REMARK  4 active torsions:
REMARK  status: ('A' for Active; 'I' for Inactive)
REMARK    1  A    between atoms: C_6  and  C_7 
REMARK    2  A    between atoms: C_8  and  C_9 
REMARK       I    between atoms: C_9  and  N_10 
REMARK    3  A    between atoms: N_10  and  C_11 
REMARK    4  A    between atoms: C_18  and  C_19 
REMARK       I    between atoms: C_19  and  N_20 
ROOT
HETATM    1  C   UNL     1      27.486  41.736  51.023  1.00  0.00     0.035 A 
HETATM    2  C   UNL     1      28.105  40.477  51.082  1.00  0.00     0.046 A 
HETATM    3  C   UNL     1      28.327  39.751  49.893  1.00  0.00     0.030 A 
HETATM    4  C   UNL     1      27.901  40.293  48.689  1.00  0.00     0.063 A 
HETATM    5  N   UNL     1      28.245  39.377  47.735  1.00  0.00    -0.277 N 
HETATM    6  H   UNL     1      28.084  39.443  46.736  1.00  0.00     0.189 HD
HETATM    7  N   UNL     1      28.871  38.287  48.211  1.00  0.00    -0.168 NA
HETATM    8  C   UNL     1      28.928  38.505  49.544  1.00  0.00     0.156 A 
HETATM    9  C   UNL     1      27.264  41.532  48.596  1.00  0.00     0.034 A 
HETATM   10  C   UNL     1      27.069  42.242  49.789  1.00  0.00     0.032 A 
ENDROOT
BRANCH   1  11
HETATM   11  N   UNL     1      27.308  42.420  52.244  1.00  0.00    -0.327 N 
HETATM   12  C   UNL     1      28.188  43.298  52.840  1.00  0.00     0.227 C 
HETATM   13  O   UNL     1      29.325  43.564  52.479  1.00  0.00    -0.273 OA
HETATM   14  H   UNL     1      26.471  42.197  52.765  1.00  0.00     0.169 HD
BRANCH  12  15
HETATM   15  C   UNL     1      27.696  43.885  54.117  1.00  0.00     0.087 A 
HETATM   16  C   UNL     1      26.675  45.010  54.145  1.00  0.00     0.032 A 
HETATM   17  C   UNL     1      26.321  43.636  54.673  1.00  0.00     0.025 A 
BRANCH  16  18
HETATM   18  C   UNL     1      25.943  45.524  52.924  1.00  0.00    -0.051 A 
HETATM   19  C   UNL     1      25.044  44.723  52.201  1.00  0.00     0.031 A 
HETATM   20  C   UNL     1      24.387  45.211  51.069  1.00  0.00     0.034 A 
HETATM   21  C   UNL     1      24.632  46.501  50.611  1.00  0.00     0.024 A 
HETATM   22 CL   UNL     1      23.269  44.206  50.228  1.00  0.00    -0.084 Cl
HETATM   23  C   UNL     1      25.541  47.306  51.290  1.00  0.00     0.002 A 
HETATM   24  C   UNL     1      26.188  46.819  52.430  1.00  0.00     0.007 A 
ENDBRANCH  16  18
ENDBRANCH  12  15
ENDBRANCH   1  11
BRANCH   8  25
HETATM   25  C   UNL     1      29.557  37.537  50.452  1.00  0.00     0.270 C 
HETATM   26  N   UNL     1      28.726  36.531  50.860  1.00  0.00    -0.365 N 
HETATM   27  H   UNL     1      27.773  36.518  50.512  1.00  0.00     0.159 HD
HETATM   28  H   UNL     1      29.071  35.805  51.468  1.00  0.00     0.159 HD
HETATM   29  O   UNL     1      30.725  37.593  50.826  1.00  0.00    -0.266 OA
ENDBRANCH   8  25
TORSDOF 4
ENDMDL
MODEL 8
REMARK VINA RESULT:      -8.4      3.929      8.168
REMARK  4 active torsions:
REMARK  status: ('A' for Active; 'I' for Inactive)
REMARK    1  A    between atoms: C_6  and  C_7 
REMARK    2  A    between atoms: C_8  and  C_9 
REMARK       I    between atoms: C_9  and  N_10 
REMARK    3  A    between atoms: N_10  and  C_11 
REMARK    4  A    between atoms: C_18  and  C_19 
REMARK       I    between atoms: C_19  and  N_20 
ROOT
HETATM    1  C   UNL     1      27.421  45.044  53.595  1.00  0.00     0.035 A 
HETATM    2  C   UNL     1      28.553  44.512  54.235  1.00  0.00     0.046 A 
HETATM    3  C   UNL     1      29.024  45.100  55.427  1.00  0.00     0.030 A 
HETATM    4  C   UNL     1      28.366  46.214  55.928  1.00  0.00     0.063 A 
HETATM    5  N   UNL     1      29.041  46.554  57.066  1.00  0.00    -0.277 N 
HETATM    6  H   UNL     1      28.838  47.325  57.693  1.00  0.00     0.189 HD
HETATM    7  N   UNL     1      30.078  45.749  57.360  1.00  0.00    -0.168 NA
HETATM    8  C   UNL     1      30.079  44.846  56.353  1.00  0.00     0.156 A 
HETATM    9  C   UNL     1      27.252  46.781  55.308  1.00  0.00     0.034 A 
HETATM   10  C   UNL     1      26.792  46.170  54.133  1.00  0.00     0.032 A 
ENDROOT
BRANCH   1  11
HETATM   11  N   UNL     1      26.989  44.400  52.417  1.00  0.00    -0.327 N 
HETATM   12  C   UNL     1      25.708  43.991  52.116  1.00  0.00     0.227 C 
HETATM   13  O   UNL     1      24.734  44.011  52.853  1.00  0.00    -0.273 OA
HETATM   14  H   UNL     1      27.708  44.163  51.747  1.00  0.00     0.169 HD
BRANCH  12  15
HETATM   15  C   UNL     1      25.565  43.367  50.771  1.00  0.00     0.087 A 
HETATM   16  C   UNL     1      25.238  44.187  49.534  1.00  0.00     0.032 A 
HETATM   17  C   UNL     1      26.584  43.509  49.674  1.00  0.00     0.025 A 
BRANCH  16  18
HETATM   18  C   UNL     1      25.192  45.700  49.506  1.00  0.00    -0.051 A 
HETATM   19  C   UNL     1      26.360  46.481  49.488  1.00  0.00     0.031 A 
HETATM   20  C   UNL     1      26.298  47.877  49.474  1.00  0.00     0.034 A 
HETATM   21  C   UNL     1      25.071  48.530  49.507  1.00  0.00     0.024 A 
HETATM   22 CL   UNL     1      27.752  48.798  49.423  1.00  0.00    -0.084 Cl
HETATM   23  C   UNL     1      23.899  47.781  49.555  1.00  0.00     0.002 A 
HETATM   24  C   UNL     1      23.964  46.385  49.557  1.00  0.00     0.007 A 
ENDBRANCH  16  18
ENDBRANCH  12  15
ENDBRANCH   1  11
BRANCH   8  25
HETATM   25  C   UNL     1      31.068  43.761  56.299  1.00  0.00     0.270 C 
HETATM   26  N   UNL     1      31.838  43.651  57.424  1.00  0.00    -0.365 N 
HETATM   27  H   UNL     1      31.671  44.293  58.191  1.00  0.00     0.159 HD
HETATM   28  H   UNL     1      32.532  42.923  57.491  1.00  0.00     0.159 HD
HETATM   29  O   UNL     1      31.212  43.000  55.348  1.00  0.00    -0.266 OA
ENDBRANCH   8  25
TORSDOF 4
ENDMDL
MODEL 9
REMARK VINA RESULT:      -8.4      5.136      8.292
REMARK  4 active torsions:
REMARK  status: ('A' for Active; 'I' for Inactive)
REMARK    1  A    between atoms: C_6  and  C_7 
REMARK    2  A    between atoms: C_8  and  C_9 
REMARK       I    between atoms: C_9  and  N_10 
REMARK    3  A    between atoms: N_10  and  C_11 
REMARK    4  A    between atoms: C_18  and  C_19 
REMARK       I    between atoms: C_19  and  N_20 
ROOT
HETATM    1  C   UNL     1      28.017  43.333  52.769  1.00  0.00     0.035 A 
HETATM    2  C   UNL     1      27.963  44.239  53.842  1.00  0.00     0.046 A 
HETATM    3  C   UNL     1      29.065  44.357  54.714  1.00  0.00     0.030 A 
HETATM    4  C   UNL     1      30.175  43.552  54.501  1.00  0.00     0.063 A 
HETATM    5  N   UNL     1      31.061  43.885  55.487  1.00  0.00    -0.277 N 
HETATM    6  H   UNL     1      31.983  43.492  55.641  1.00  0.00     0.189 HD
HETATM    7  N   UNL     1      30.630  44.849  56.319  1.00  0.00    -0.168 NA
HETATM    8  C   UNL     1      29.397  45.150  55.852  1.00  0.00     0.156 A 
HETATM    9  C   UNL     1      30.255  42.627  53.459  1.00  0.00     0.034 A 
HETATM   10  C   UNL     1      29.153  42.538  52.596  1.00  0.00     0.032 A 
ENDROOT
BRANCH   1  11
HETATM   11  N   UNL     1      26.889  43.273  51.924  1.00  0.00    -0.327 N 
HETATM   12  C   UNL     1      26.780  43.785  50.649  1.00  0.00     0.227 C 
HETATM   13  O   UNL     1      27.596  44.476  50.057  1.00  0.00    -0.273 OA
HETATM   14  H   UNL     1      26.055  42.861  52.318  1.00  0.00     0.169 HD
BRANCH  12  15
HETATM   15  C   UNL     1      25.464  43.531  49.998  1.00  0.00     0.087 A 
HETATM   16  C   UNL     1      25.244  42.356  49.060  1.00  0.00     0.032 A 
HETATM   17  C   UNL     1      24.540  42.415  50.398  1.00  0.00     0.025 A 
BRANCH  16  18
HETATM   18  C   UNL     1      26.256  41.255  48.825  1.00  0.00    -0.051 A 
HETATM   19  C   UNL     1      26.106  39.974  49.381  1.00  0.00     0.031 A 
HETATM   20  C   UNL     1      27.056  38.973  49.163  1.00  0.00     0.034 A 
HETATM   21  C   UNL     1      28.196  39.233  48.410  1.00  0.00     0.024 A 
HETATM   22 CL   UNL     1      26.820  37.407  49.838  1.00  0.00    -0.084 Cl
HETATM   23  C   UNL     1      28.385  40.503  47.873  1.00  0.00     0.002 A 
HETATM   24  C   UNL     1      27.426  41.498  48.082  1.00  0.00     0.007 A 
ENDBRANCH  16  18
ENDBRANCH  12  15
ENDBRANCH   1  11
BRANCH   8  25
HETATM   25  C   UNL     1      28.570  46.185  56.487  1.00  0.00     0.270 C 
HETATM   26  N   UNL     1      28.639  46.196  57.852  1.00  0.00    -0.365 N 
HETATM   27  H   UNL     1      29.241  45.523  58.313  1.00  0.00     0.159 HD
HETATM   28  H   UNL     1      28.122  46.883  58.378  1.00  0.00     0.159 HD
HETATM   29  O   UNL     1      27.872  46.988  55.874  1.00  0.00    -0.266 OA
ENDBRANCH   8  25
TORSDOF 4
ENDMDL
MODEL 10
REMARK VINA RESULT:      -8.4      3.109      4.847
REMARK  4 active torsions:
REMARK  status: ('A' for Active; 'I' for Inactive)
REMARK    1  A    between atoms: C_6  and  C_7 
REMARK    2  A    between atoms: C_8  and  C_9 
REMARK       I    between atoms: C_9  and  N_10 
REMARK    3  A    between atoms: N_10  and  C_11 
REMARK    4  A    between atoms: C_18  and  C_19 
REMARK       I    between atoms: C_19  and  N_20 
ROOT
HETATM    1  C   UNL     1      28.280  43.392  51.681  1.00  0.00     0.035 A 
HETATM    2  C   UNL     1      27.638  44.595  51.343  1.00  0.00     0.046 A 
HETATM    3  C   UNL     1      26.571  44.583  50.421  1.00  0.00     0.030 A 
HETATM    4  C   UNL     1      26.196  43.376  49.848  1.00  0.00     0.063 A 
HETATM    5  N   UNL     1      25.159  43.676  49.011  1.00  0.00    -0.277 N 
HETATM    6  H   UNL     1      24.638  43.033  48.425  1.00  0.00     0.189 HD
HETATM    7  N   UNL     1      24.814  44.976  48.997  1.00  0.00    -0.168 NA
HETATM    8  C   UNL     1      25.679  45.547  49.864  1.00  0.00     0.156 A 
HETATM    9  C   UNL     1      26.825  42.166  50.145  1.00  0.00     0.034 A 
HETATM   10  C   UNL     1      27.873  42.200  51.076  1.00  0.00     0.032 A 
ENDROOT
BRANCH   1  11
HETATM   11  N   UNL     1      29.328  43.469  52.622  1.00  0.00    -0.327 N 
HETATM   12  C   UNL     1      29.328  42.971  53.908  1.00  0.00     0.227 C 
HETATM   13  O   UNL     1      28.388  42.471  54.506  1.00  0.00    -0.273 OA
HETATM   14  H   UNL     1      30.145  43.995  52.342  1.00  0.00     0.169 HD
BRANCH  12  15
HETATM   15  C   UNL     1      30.604  43.184  54.646  1.00  0.00     0.087 A 
HETATM   16  C   UNL     1      30.799  44.357  55.592  1.00  0.00     0.032 A 
HETATM   17  C   UNL     1      30.762  42.940  56.122  1.00  0.00     0.025 A 
BRANCH  16  18
HETATM   18  C   UNL     1      29.697  45.310  56.003  1.00  0.00    -0.051 A 
HETATM   19  C   UNL     1      28.865  45.938  55.062  1.00  0.00     0.031 A 
HETATM   20  C   UNL     1      27.862  46.825  55.458  1.00  0.00     0.034 A 
HETATM   21  C   UNL     1      27.680  47.131  56.803  1.00  0.00     0.024 A 
HETATM   22 CL   UNL     1      26.843  47.551  54.275  1.00  0.00    -0.084 Cl
HETATM   23  C   UNL     1      28.510  46.547  57.755  1.00  0.00     0.002 A 
HETATM   24  C   UNL     1      29.506  45.651  57.355  1.00  0.00     0.007 A 
ENDBRANCH  16  18
ENDBRANCH  12  15
ENDBRANCH   1  11
BRANCH   8  25
HETATM   25  C   UNL     1      25.635  46.987  50.153  1.00  0.00     0.270 C 
HETATM   26  N   UNL     1      26.655  47.702  49.587  1.00  0.00    -0.365 N 
HETATM   27  H   UNL     1      27.337  47.209  49.022  1.00  0.00     0.159 HD
HETATM   28  H   UNL     1      26.700  48.701  49.710  1.00  0.00     0.159 HD
HETATM   29  O   UNL     1      24.770  47.533  50.831  1.00  0.00    -0.266 OA
ENDBRANCH   8  25
TORSDOF 4
ENDMDL
