MODEL 1
REMARK VINA RESULT:      -8.9      0.000      0.000
REMARK  3 active torsions:
REMARK  status: ('A' for Active; 'I' for Inactive)
REMARK    1  A    between atoms: C_4  and  N_5 
REMARK       I    between atoms: N_5  and  C_6 
REMARK    2  A    between atoms: C_6  and  C_7 
REMARK    3  A    between atoms: C_7  and  C_8 
ROOT
HETATM    1  C   UNL     1      22.550  48.753  49.162  1.00  0.00     0.286 C 
HETATM    2  N   UNL     1      21.101  48.362  49.448  1.00  0.00    -0.056 N 
HETATM    3  H   UNL     1      20.891  47.577  48.793  1.00  0.00     0.278 HD
HETATM    4  H   UNL     1      21.002  47.968  50.390  1.00  0.00     0.278 HD
HETATM    5  C   UNL     1      20.077  49.427  49.183  1.00  0.00     0.209 C 
HETATM    6  C   UNL     1      20.281  49.995  47.758  1.00  0.00     0.115 C 
HETATM    7  N   UNL     1      21.665  50.389  47.504  1.00  0.00    -0.353 N 
HETATM    8  C   UNL     1      22.736  49.632  47.909  1.00  0.00     0.249 C 
HETATM    9  O   UNL     1      23.818  49.743  47.342  1.00  0.00    -0.271 OA
HETATM   10  C   UNL     1      20.137  50.498  50.272  1.00  0.00     0.035 C 
HETATM   11  C   UNL     1      19.148  51.623  49.977  1.00  0.00     0.002 C 
HETATM   12  C   UNL     1      19.378  52.224  48.593  1.00  0.00     0.002 C 
HETATM   13  C   UNL     1      19.324  51.162  47.495  1.00  0.00     0.027 C 
HETATM   14  H   UNL     1      21.862  50.901  46.646  1.00  0.00     0.163 HD
ENDROOT
BRANCH   1  15
HETATM   15  C   UNL     1      23.448  47.508  49.066  1.00  0.00     0.146 C 
BRANCH  15  16
HETATM   16  C   UNL     1      24.550  47.581  50.104  1.00  0.00     0.224 C 
HETATM   17  N   UNL     1      24.491  46.601  51.062  1.00  0.00    -0.327 N 
HETATM   18  H   UNL     1      23.693  45.973  51.056  1.00  0.00     0.169 HD
HETATM   19  O   UNL     1      25.415  48.449  49.971  1.00  0.00    -0.273 OA
BRANCH  17  20
HETATM   20  C   UNL     1      25.405  46.384  52.120  1.00  0.00     0.035 A 
HETATM   21  C   UNL     1      25.625  47.288  53.162  1.00  0.00     0.036 A 
HETATM   22  C   UNL     1      26.557  47.010  54.176  1.00  0.00    -0.060 A 
HETATM   23  C   UNL     1      26.758  47.988  55.298  1.00  0.00     0.048 C 
HETATM   24  C   UNL     1      27.259  45.802  54.149  1.00  0.00     0.007 A 
HETATM   25  C   UNL     1      27.047  44.895  53.113  1.00  0.00     0.003 A 
HETATM   26  C   UNL     1      26.127  45.186  52.103  1.00  0.00     0.029 A 
ENDBRANCH  17  20
ENDBRANCH  15  16
ENDBRANCH   1  15
TORSDOF 3
ENDMDL
MODEL 2
REMARK VINA RESULT:      -8.7      4.649      6.619
REMARK  3 active torsions:
REMARK  status: ('A' for Active; 'I' for Inactive)
REMARK    1  A    between atoms: C_4  and  N_5 
REMARK       I    between atoms: N_5  and  C_6 
REMARK    2  A    between atoms: C_6  and  C_7 
REMARK    3  A    between atoms: C_7  and  C_8 
ROOT
HETATM    1  C   UNL     1      26.991  43.733  51.071  1.00  0.00     0.286 C 
HETATM    2  N   UNL     1      25.860  44.203  51.986  1.00  0.00    -0.056 N 
HETATM    3  H   UNL     1      25.351  43.335  52.265  1.00  0.00     0.278 HD
HETATM    4  H   UNL     1      26.228  44.597  52.858  1.00  0.00     0.278 HD
HETATM    5  C   UNL     1      24.847  45.110  51.352  1.00  0.00     0.209 C 
HETATM    6  C   UNL     1      24.337  44.475  50.037  1.00  0.00     0.115 C 
HETATM    7  N   UNL     1      25.426  44.053  49.159  1.00  0.00    -0.353 N 
HETATM    8  C   UNL     1      26.551  43.422  49.626  1.00  0.00     0.249 C 
HETATM    9  O   UNL     1      27.221  42.721  48.875  1.00  0.00    -0.271 OA
HETATM   10  C   UNL     1      25.439  46.506  51.156  1.00  0.00     0.035 C 
HETATM   11  C   UNL     1      24.442  47.420  50.449  1.00  0.00     0.002 C 
HETATM   12  C   UNL     1      23.975  46.824  49.123  1.00  0.00     0.002 C 
HETATM   13  C   UNL     1      23.384  45.426  49.306  1.00  0.00     0.027 C 
HETATM   14  H   UNL     1      25.185  43.755  48.215  1.00  0.00     0.163 HD
ENDROOT
BRANCH   1  15
HETATM   15  C   UNL     1      27.717  42.518  51.672  1.00  0.00     0.146 C 
BRANCH  15  16
HETATM   16  C   UNL     1      28.045  42.777  53.129  1.00  0.00     0.224 C 
HETATM   17  N   UNL     1      29.078  43.658  53.327  1.00  0.00    -0.327 N 
HETATM   18  H   UNL     1      29.586  43.993  52.514  1.00  0.00     0.169 HD
HETATM   19  O   UNL     1      27.340  42.242  53.985  1.00  0.00    -0.273 OA
BRANCH  17  20
HETATM   20  C   UNL     1      29.571  44.130  54.566  1.00  0.00     0.035 A 
HETATM   21  C   UNL     1      30.561  43.485  55.312  1.00  0.00     0.036 A 
HETATM   22  C   UNL     1      30.997  44.009  56.540  1.00  0.00    -0.060 A 
HETATM   23  C   UNL     1      32.079  43.309  57.312  1.00  0.00     0.048 C 
HETATM   24  C   UNL     1      30.443  45.202  57.012  1.00  0.00     0.007 A 
HETATM   25  C   UNL     1      29.454  45.852  56.276  1.00  0.00     0.003 A 
HETATM   26  C   UNL     1      29.019  45.317  55.061  1.00  0.00     0.029 A 
ENDBRANCH  17  20
ENDBRANCH  15  16
ENDBRANCH   1  15
TORSDOF 3
ENDMDL
MODEL 3
REMARK VINA RESULT:      -8.5      5.886      7.514
REMARK  3 active torsions:
REMARK  status: ('A' for Active; 'I' for Inactive)
REMARK    1  A    between atoms: C_4  and  N_5 
REMARK       I    between atoms: N_5  and  C_6 
REMARK    2  A    between atoms: C_6  and  C_7 
REMARK    3  A    between atoms: C_7  and  C_8 
ROOT
HETATM    1  C   UNL     1      27.034  42.185  50.468  1.00  0.00     0.286 C 
HETATM    2  N   UNL     1      25.735  42.083  51.265  1.00  0.00    -0.056 N 
HETATM    3  H   UNL     1      25.595  41.063  51.438  1.00  0.00     0.278 HD
HETATM    4  H   UNL     1      25.834  42.508  52.194  1.00  0.00     0.278 HD
HETATM    5  C   UNL     1      24.502  42.572  50.562  1.00  0.00     0.209 C 
HETATM    6  C   UNL     1      24.408  41.913  49.166  1.00  0.00     0.115 C 
HETATM    7  N   UNL     1      25.649  42.038  48.403  1.00  0.00    -0.353 N 
HETATM    8  C   UNL     1      26.886  41.861  48.968  1.00  0.00     0.249 C 
HETATM    9  O   UNL     1      27.845  41.554  48.267  1.00  0.00    -0.271 OA
HETATM   10  C   UNL     1      24.498  44.100  50.508  1.00  0.00     0.035 C 
HETATM   11  C   UNL     1      23.284  44.608  49.734  1.00  0.00     0.002 C 
HETATM   12  C   UNL     1      23.215  44.002  48.334  1.00  0.00     0.002 C 
HETATM   13  C   UNL     1      23.222  42.474  48.376  1.00  0.00     0.027 C 
HETATM   14  H   UNL     1      25.632  41.758  47.423  1.00  0.00     0.163 HD
ENDROOT
BRANCH   1  15
HETATM   15  C   UNL     1      28.132  41.304  51.089  1.00  0.00     0.146 C 
BRANCH  15  16
HETATM   16  C   UNL     1      28.378  41.717  52.527  1.00  0.00     0.224 C 
HETATM   17  N   UNL     1      29.068  42.895  52.666  1.00  0.00    -0.327 N 
HETATM   18  H   UNL     1      29.426  43.342  51.828  1.00  0.00     0.169 HD
HETATM   19  O   UNL     1      27.899  41.018  53.421  1.00  0.00    -0.273 OA
BRANCH  17  20
HETATM   20  C   UNL     1      29.397  43.554  53.873  1.00  0.00     0.035 A 
HETATM   21  C   UNL     1      30.420  43.148  54.733  1.00  0.00     0.036 A 
HETATM   22  C   UNL     1      30.686  43.848  55.922  1.00  0.00    -0.060 A 
HETATM   23  C   UNL     1      31.807  43.405  56.818  1.00  0.00     0.048 C 
HETATM   24  C   UNL     1      29.924  44.975  56.238  1.00  0.00     0.007 A 
HETATM   25  C   UNL     1      28.900  45.387  55.387  1.00  0.00     0.003 A 
HETATM   26  C   UNL     1      28.637  44.679  54.213  1.00  0.00     0.029 A 
ENDBRANCH  17  20
ENDBRANCH  15  16
ENDBRANCH   1  15
TORSDOF 3
ENDMDL
MODEL 4
REMARK VINA RESULT:      -8.4      3.193      8.757
REMARK  3 active torsions:
REMARK  status: ('A' for Active; 'I' for Inactive)
REMARK    1  A    between atoms: C_4  and  N_5 
REMARK       I    between atoms: N_5  and  C_6 
REMARK    2  A    between atoms: C_6  and  C_7 
REMARK    3  A    between atoms: C_7  and  C_8 
ROOT
HETATM    1  C   UNL     1      26.185  44.593  52.220  1.00  0.00     0.286 C 
HETATM    2  N   UNL     1      26.466  43.096  52.334  1.00  0.00    -0.056 N 
HETATM    3  H   UNL     1      25.679  42.709  52.901  1.00  0.00     0.278 HD
HETATM    4  H   UNL     1      26.399  42.634  51.420  1.00  0.00     0.278 HD
HETATM    5  C   UNL     1      27.732  42.726  53.050  1.00  0.00     0.209 C 
HETATM    6  C   UNL     1      27.788  43.458  54.412  1.00  0.00     0.115 C 
HETATM    7  N   UNL     1      27.543  44.893  54.287  1.00  0.00    -0.353 N 
HETATM    8  C   UNL     1      26.568  45.409  53.470  1.00  0.00     0.249 C 
HETATM    9  O   UNL     1      26.106  46.524  53.692  1.00  0.00    -0.271 OA
HETATM   10  C   UNL     1      28.943  43.014  52.162  1.00  0.00     0.035 C 
HETATM   11  C   UNL     1      30.241  42.707  52.904  1.00  0.00     0.002 C 
HETATM   12  C   UNL     1      30.327  43.469  54.225  1.00  0.00     0.002 C 
HETATM   13  C   UNL     1      29.119  43.191  55.120  1.00  0.00     0.027 C 
HETATM   14  H   UNL     1      27.699  45.474  55.110  1.00  0.00     0.163 HD
ENDROOT
BRANCH   1  15
HETATM   15  C   UNL     1      24.713  44.852  51.855  1.00  0.00     0.146 C 
BRANCH  15  16
HETATM   16  C   UNL     1      24.630  45.770  50.653  1.00  0.00     0.224 C 
HETATM   17  N   UNL     1      25.252  46.981  50.822  1.00  0.00    -0.327 N 
HETATM   18  H   UNL     1      25.634  47.200  51.737  1.00  0.00     0.169 HD
HETATM   19  O   UNL     1      24.082  45.343  49.635  1.00  0.00    -0.273 OA
BRANCH  17  20
HETATM   20  C   UNL     1      25.384  48.014  49.864  1.00  0.00     0.035 A 
HETATM   21  C   UNL     1      24.305  48.664  49.260  1.00  0.00     0.036 A 
HETATM   22  C   UNL     1      24.512  49.677  48.309  1.00  0.00    -0.060 A 
HETATM   23  C   UNL     1      23.335  50.377  47.691  1.00  0.00     0.048 C 
HETATM   24  C   UNL     1      25.817  50.050  47.979  1.00  0.00     0.007 A 
HETATM   25  C   UNL     1      26.900  49.407  48.576  1.00  0.00     0.003 A 
HETATM   26  C   UNL     1      26.684  48.393  49.511  1.00  0.00     0.029 A 
ENDBRANCH  17  20
ENDBRANCH  15  16
ENDBRANCH   1  15
TORSDOF 3
ENDMDL
MODEL 5
REMARK VINA RESULT:      -8.3      3.598      5.219
REMARK  3 active torsions:
REMARK  status: ('A' for Active; 'I' for Inactive)
REMARK    1  A    between atoms: C_4  and  N_5 
REMARK       I    between atoms: N_5  and  C_6 
REMARK    2  A    between atoms: C_6  and  C_7 
REMARK    3  A    between atoms: C_7  and  C_8 
ROOT
HETATM    1  C   UNL     1      26.111  45.015  49.955  1.00  0.00     0.286 C 
HETATM    2  N   UNL     1      26.327  46.160  50.943  1.00  0.00    -0.056 N 
HETATM    3  H   UNL     1      25.812  45.882  51.807  1.00  0.00     0.278 HD
HETATM    4  H   UNL     1      27.312  46.229  51.221  1.00  0.00     0.278 HD
HETATM    5  C   UNL     1      25.775  47.492  50.525  1.00  0.00     0.209 C 
HETATM    6  C   UNL     1      24.296  47.327  50.104  1.00  0.00     0.115 C 
HETATM    7  N   UNL     1      24.104  46.246  49.139  1.00  0.00    -0.353 N 
HETATM    8  C   UNL     1      24.740  45.035  49.250  1.00  0.00     0.249 C 
HETATM    9  O   UNL     1      24.265  44.039  48.713  1.00  0.00    -0.271 OA
HETATM   10  C   UNL     1      26.649  48.102  49.429  1.00  0.00     0.035 C 
HETATM   11  C   UNL     1      26.059  49.426  48.945  1.00  0.00     0.002 C 
HETATM   12  C   UNL     1      24.615  49.260  48.477  1.00  0.00     0.002 C 
HETATM   13  C   UNL     1      23.733  48.646  49.564  1.00  0.00     0.027 C 
HETATM   14  H   UNL     1      23.188  46.158  48.702  1.00  0.00     0.163 HD
ENDROOT
BRANCH   1  15
HETATM   15  C   UNL     1      26.331  43.652  50.634  1.00  0.00     0.146 C 
BRANCH  15  16
HETATM   16  C   UNL     1      26.794  43.853  52.063  1.00  0.00     0.224 C 
HETATM   17  N   UNL     1      28.150  43.735  52.240  1.00  0.00    -0.327 N 
HETATM   18  H   UNL     1      28.713  43.447  51.447  1.00  0.00     0.169 HD
HETATM   19  O   UNL     1      25.950  44.158  52.907  1.00  0.00    -0.273 OA
BRANCH  17  20
HETATM   20  C   UNL     1      28.872  43.920  53.442  1.00  0.00     0.035 A 
HETATM   21  C   UNL     1      28.578  44.904  54.389  1.00  0.00     0.036 A 
HETATM   22  C   UNL     1      29.345  45.035  55.558  1.00  0.00    -0.060 A 
HETATM   23  C   UNL     1      28.994  46.086  56.572  1.00  0.00     0.048 C 
HETATM   24  C   UNL     1      30.407  44.155  55.783  1.00  0.00     0.007 A 
HETATM   25  C   UNL     1      30.709  43.171  54.843  1.00  0.00     0.003 A 
HETATM   26  C   UNL     1      29.948  43.056  53.679  1.00  0.00     0.029 A 
ENDBRANCH  17  20
ENDBRANCH  15  16
ENDBRANCH   1  15
TORSDOF 3
ENDMDL
MODEL 6
REMARK VINA RESULT:      -8.3      5.920      7.510
REMARK  3 active torsions:
REMARK  status: ('A' for Active; 'I' for Inactive)
REMARK    1  A    between atoms: C_4  and  N_5 
REMARK       I    between atoms: N_5  and  C_6 
REMARK    2  A    between atoms: C_6  and  C_7 
REMARK    3  A    between atoms: C_7  and  C_8 
ROOT
HETATM    1  C   UNL     1      25.119  44.137  51.026  1.00  0.00     0.286 C 
HETATM    2  N   UNL     1      25.137  42.661  51.421  1.00  0.00    -0.056 N 
HETATM    3  H   UNL     1      25.832  42.590  52.197  1.00  0.00     0.278 HD
HETATM    4  H   UNL     1      24.240  42.374  51.828  1.00  0.00     0.278 HD
HETATM    5  C   UNL     1      25.589  41.708  50.352  1.00  0.00     0.209 C 
HETATM    6  C   UNL     1      26.935  42.194  49.764  1.00  0.00     0.115 C 
HETATM    7  N   UNL     1      26.898  43.600  49.366  1.00  0.00    -0.353 N 
HETATM    8  C   UNL     1      26.296  44.569  50.129  1.00  0.00     0.249 C 
HETATM    9  O   UNL     1      26.632  45.743  50.010  1.00  0.00    -0.271 OA
HETATM   10  C   UNL     1      24.495  41.544  49.297  1.00  0.00     0.035 C 
HETATM   11  C   UNL     1      24.969  40.632  48.168  1.00  0.00     0.002 C 
HETATM   12  C   UNL     1      26.270  41.135  47.546  1.00  0.00     0.002 C 
HETATM   13  C   UNL     1      27.370  41.307  48.594  1.00  0.00     0.027 C 
HETATM   14  H   UNL     1      27.692  43.965  48.842  1.00  0.00     0.163 HD
ENDROOT
BRANCH   1  15
HETATM   15  C   UNL     1      25.048  45.039  52.270  1.00  0.00     0.146 C 
BRANCH  15  16
HETATM   16  C   UNL     1      25.989  44.522  53.340  1.00  0.00     0.224 C 
HETATM   17  N   UNL     1      27.298  44.895  53.169  1.00  0.00    -0.327 N 
HETATM   18  H   UNL     1      27.547  45.398  52.323  1.00  0.00     0.169 HD
HETATM   19  O   UNL     1      25.506  43.884  54.277  1.00  0.00    -0.273 OA
BRANCH  17  20
HETATM   20  C   UNL     1      28.386  44.609  54.028  1.00  0.00     0.035 A 
HETATM   21  C   UNL     1      28.712  45.365  55.157  1.00  0.00     0.036 A 
HETATM   22  C   UNL     1      29.812  45.027  55.961  1.00  0.00    -0.060 A 
HETATM   23  C   UNL     1      30.128  45.842  57.182  1.00  0.00     0.048 C 
HETATM   24  C   UNL     1      30.581  43.906  55.634  1.00  0.00     0.007 A 
HETATM   25  C   UNL     1      30.264  43.146  54.509  1.00  0.00     0.003 A 
HETATM   26  C   UNL     1      29.174  43.498  53.710  1.00  0.00     0.029 A 
ENDBRANCH  17  20
ENDBRANCH  15  16
ENDBRANCH   1  15
TORSDOF 3
ENDMDL
MODEL 7
REMARK VINA RESULT:      -8.2      2.415      8.399
REMARK  3 active torsions:
REMARK  status: ('A' for Active; 'I' for Inactive)
REMARK    1  A    between atoms: C_4  and  N_5 
REMARK       I    between atoms: N_5  and  C_6 
REMARK    2  A    between atoms: C_6  and  C_7 
REMARK    3  A    between atoms: C_7  and  C_8 
ROOT
HETATM    1  C   UNL     1      25.144  44.757  50.961  1.00  0.00     0.286 C 
HETATM    2  N   UNL     1      26.644  44.986  50.785  1.00  0.00    -0.056 N 
HETATM    3  H   UNL     1      26.859  44.680  49.811  1.00  0.00     0.278 HD
HETATM    4  H   UNL     1      26.873  45.985  50.816  1.00  0.00     0.278 HD
HETATM    5  C   UNL     1      27.533  44.186  51.692  1.00  0.00     0.209 C 
HETATM    6  C   UNL     1      27.136  42.692  51.618  1.00  0.00     0.115 C 
HETATM    7  N   UNL     1      25.703  42.483  51.812  1.00  0.00    -0.353 N 
HETATM    8  C   UNL     1      24.753  43.292  51.241  1.00  0.00     0.249 C 
HETATM    9  O   UNL     1      23.614  42.873  51.062  1.00  0.00    -0.271 OA
HETATM   10  C   UNL     1      27.484  44.751  53.111  1.00  0.00     0.035 C 
HETATM   11  C   UNL     1      28.330  43.904  54.059  1.00  0.00     0.002 C 
HETATM   12  C   UNL     1      27.908  42.437  54.030  1.00  0.00     0.002 C 
HETATM   13  C   UNL     1      27.950  41.862  52.614  1.00  0.00     0.027 C 
HETATM   14  H   UNL     1      25.375  41.524  51.919  1.00  0.00     0.163 HD
ENDROOT
BRANCH   1  15
HETATM   15  C   UNL     1      24.360  45.286  49.748  1.00  0.00     0.146 C 
BRANCH  15  16
HETATM   16  C   UNL     1      24.163  46.784  49.871  1.00  0.00     0.224 C 
HETATM   17  N   UNL     1      23.330  47.324  48.924  1.00  0.00    -0.327 N 
HETATM   18  H   UNL     1      22.987  46.718  48.185  1.00  0.00     0.169 HD
HETATM   19  O   UNL     1      24.700  47.364  50.816  1.00  0.00    -0.273 OA
BRANCH  17  20
HETATM   20  C   UNL     1      22.920  48.674  48.818  1.00  0.00     0.035 A 
HETATM   21  C   UNL     1      21.729  49.174  49.349  1.00  0.00     0.036 A 
HETATM   22  C   UNL     1      21.382  50.527  49.198  1.00  0.00    -0.060 A 
HETATM   23  C   UNL     1      20.107  51.046  49.799  1.00  0.00     0.048 C 
HETATM   24  C   UNL     1      22.252  51.386  48.521  1.00  0.00     0.007 A 
HETATM   25  C   UNL     1      23.442  50.895  47.986  1.00  0.00     0.003 A 
HETATM   26  C   UNL     1      23.772  49.546  48.132  1.00  0.00     0.029 A 
ENDBRANCH  17  20
ENDBRANCH  15  16
ENDBRANCH   1  15
TORSDOF 3
ENDMDL
MODEL 8
REMARK VINA RESULT:      -8.1      5.869      7.317
REMARK  3 active torsions:
REMARK  status: ('A' for Active; 'I' for Inactive)
REMARK    1  A    between atoms: C_4  and  N_5 
REMARK       I    between atoms: N_5  and  C_6 
REMARK    2  A    between atoms: C_6  and  C_7 
REMARK    3  A    between atoms: C_7  and  C_8 
ROOT
HETATM    1  C   UNL     1      26.264  45.257  52.321  1.00  0.00     0.286 C 
HETATM    2  N   UNL     1      26.213  45.582  50.829  1.00  0.00    -0.056 N 
HETATM    3  H   UNL     1      25.475  46.313  50.729  1.00  0.00     0.278 HD
HETATM    4  H   UNL     1      27.083  46.026  50.516  1.00  0.00     0.278 HD
HETATM    5  C   UNL     1      25.817  44.447  49.931  1.00  0.00     0.209 C 
HETATM    6  C   UNL     1      24.510  43.806  50.455  1.00  0.00     0.115 C 
HETATM    7  N   UNL     1      24.579  43.476  51.878  1.00  0.00    -0.353 N 
HETATM    8  C   UNL     1      25.143  44.316  52.805  1.00  0.00     0.249 C 
HETATM    9  O   UNL     1      24.823  44.232  53.986  1.00  0.00    -0.271 OA
HETATM   10  C   UNL     1      26.968  43.449  49.804  1.00  0.00     0.035 C 
HETATM   11  C   UNL     1      26.554  42.254  48.949  1.00  0.00     0.002 C 
HETATM   12  C   UNL     1      25.294  41.584  49.492  1.00  0.00     0.002 C 
HETATM   13  C   UNL     1      24.137  42.573  49.627  1.00  0.00     0.027 C 
HETATM   14  H   UNL     1      23.819  42.925  52.273  1.00  0.00     0.163 HD
ENDROOT
BRANCH   1  15
HETATM   15  C   UNL     1      26.270  46.543  53.165  1.00  0.00     0.146 C 
BRANCH  15  16
HETATM   16  C   UNL     1      27.426  46.516  54.145  1.00  0.00     0.224 C 
HETATM   17  N   UNL     1      27.914  45.261  54.409  1.00  0.00    -0.327 N 
HETATM   18  H   UNL     1      27.427  44.464  54.010  1.00  0.00     0.169 HD
HETATM   19  O   UNL     1      27.858  47.592  54.561  1.00  0.00    -0.273 OA
BRANCH  17  20
HETATM   20  C   UNL     1      29.013  44.929  55.235  1.00  0.00     0.035 A 
HETATM   21  C   UNL     1      29.369  45.635  56.386  1.00  0.00     0.036 A 
HETATM   22  C   UNL     1      30.480  45.252  57.155  1.00  0.00    -0.060 A 
HETATM   23  C   UNL     1      30.828  46.014  58.402  1.00  0.00     0.048 C 
HETATM   24  C   UNL     1      31.228  44.137  56.770  1.00  0.00     0.007 A 
HETATM   25  C   UNL     1      30.881  43.426  55.622  1.00  0.00     0.003 A 
HETATM   26  C   UNL     1      29.782  43.822  54.858  1.00  0.00     0.029 A 
ENDBRANCH  17  20
ENDBRANCH  15  16
ENDBRANCH   1  15
TORSDOF 3
ENDMDL
MODEL 9
REMARK VINA RESULT:      -7.9      8.131     10.012
REMARK  3 active torsions:
REMARK  status: ('A' for Active; 'I' for Inactive)
REMARK    1  A    between atoms: C_4  and  N_5 
REMARK       I    between atoms: N_5  and  C_6 
REMARK    2  A    between atoms: C_6  and  C_7 
REMARK    3  A    between atoms: C_7  and  C_8 
ROOT
HETATM    1  C   UNL     1      27.522  41.421  50.974  1.00  0.00     0.286 C 
HETATM    2  N   UNL     1      28.656  40.926  50.077  1.00  0.00    -0.056 N 
HETATM    3  H   UNL     1      28.693  41.599  49.280  1.00  0.00     0.278 HD
HETATM    4  H   UNL     1      29.564  41.007  50.547  1.00  0.00     0.278 HD
HETATM    5  C   UNL     1      28.462  39.563  49.479  1.00  0.00     0.209 C 
HETATM    6  C   UNL     1      27.075  39.491  48.797  1.00  0.00     0.115 C 
HETATM    7  N   UNL     1      25.996  39.943  49.672  1.00  0.00    -0.353 N 
HETATM    8  C   UNL     1      26.111  41.047  50.479  1.00  0.00     0.249 C 
HETATM    9  O   UNL     1      25.106  41.639  50.860  1.00  0.00    -0.271 OA
HETATM   10  C   UNL     1      28.664  38.486  50.545  1.00  0.00     0.035 C 
HETATM   11  C   UNL     1      28.402  37.098  49.966  1.00  0.00     0.002 C 
HETATM   12  C   UNL     1      27.013  37.004  49.338  1.00  0.00     0.002 C 
HETATM   13  C   UNL     1      26.798  38.079  48.273  1.00  0.00     0.027 C 
HETATM   14  H   UNL     1      25.038  39.798  49.357  1.00  0.00     0.163 HD
ENDROOT
BRANCH   1  15
HETATM   15  C   UNL     1      27.617  42.940  51.193  1.00  0.00     0.146 C 
BRANCH  15  16
HETATM   16  C   UNL     1      27.785  43.242  52.669  1.00  0.00     0.224 C 
HETATM   17  N   UNL     1      29.022  43.732  53.008  1.00  0.00    -0.327 N 
HETATM   18  H   UNL     1      29.735  43.772  52.287  1.00  0.00     0.169 HD
HETATM   19  O   UNL     1      26.811  43.089  53.407  1.00  0.00    -0.273 OA
BRANCH  17  20
HETATM   20  C   UNL     1      29.452  44.149  54.289  1.00  0.00     0.035 A 
HETATM   21  C   UNL     1      30.423  43.487  55.043  1.00  0.00     0.036 A 
HETATM   22  C   UNL     1      30.796  43.956  56.314  1.00  0.00    -0.060 A 
HETATM   23  C   UNL     1      31.860  43.239  57.096  1.00  0.00     0.048 C 
HETATM   24  C   UNL     1      30.197  45.112  56.821  1.00  0.00     0.007 A 
HETATM   25  C   UNL     1      29.226  45.779  56.076  1.00  0.00     0.003 A 
HETATM   26  C   UNL     1      28.854  45.299  54.819  1.00  0.00     0.029 A 
ENDBRANCH  17  20
ENDBRANCH  15  16
ENDBRANCH   1  15
TORSDOF 3
ENDMDL
MODEL 10
REMARK VINA RESULT:      -7.7      8.394     10.801
REMARK  3 active torsions:
REMARK  status: ('A' for Active; 'I' for Inactive)
REMARK    1  A    between atoms: C_4  and  N_5 
REMARK       I    between atoms: N_5  and  C_6 
REMARK    2  A    between atoms: C_6  and  C_7 
REMARK    3  A    between atoms: C_7  and  C_8 
ROOT
HETATM    1  C   UNL     1      28.778  39.406  50.423  1.00  0.00     0.286 C 
HETATM    2  N   UNL     1      27.273  39.360  50.163  1.00  0.00    -0.056 N 
HETATM    3  H   UNL     1      26.875  38.784  50.937  1.00  0.00     0.278 HD
HETATM    4  H   UNL     1      26.849  40.289  50.266  1.00  0.00     0.278 HD
HETATM    5  C   UNL     1      26.855  38.702  48.880  1.00  0.00     0.209 C 
HETATM    6  C   UNL     1      27.531  37.314  48.769  1.00  0.00     0.115 C 
HETATM    7  N   UNL     1      28.974  37.374  48.994  1.00  0.00    -0.353 N 
HETATM    8  C   UNL     1      29.537  38.137  49.986  1.00  0.00     0.249 C 
HETATM    9  O   UNL     1      30.648  37.857  50.423  1.00  0.00    -0.271 OA
HETATM   10  C   UNL     1      27.161  39.617  47.694  1.00  0.00     0.035 C 
HETATM   11  C   UNL     1      26.805  38.930  46.378  1.00  0.00     0.002 C 
HETATM   12  C   UNL     1      27.511  37.584  46.237  1.00  0.00     0.002 C 
HETATM   13  C   UNL     1      27.216  36.661  47.420  1.00  0.00     0.027 C 
HETATM   14  H   UNL     1      29.518  36.534  48.802  1.00  0.00     0.163 HD
ENDROOT
BRANCH   1  15
HETATM   15  C   UNL     1      29.073  39.711  51.901  1.00  0.00     0.146 C 
BRANCH  15  16
HETATM   16  C   UNL     1      28.663  41.133  52.229  1.00  0.00     0.224 C 
HETATM   17  N   UNL     1      28.801  41.470  53.552  1.00  0.00    -0.327 N 
HETATM   18  H   UNL     1      29.074  40.743  54.206  1.00  0.00     0.169 HD
HETATM   19  O   UNL     1      28.312  41.864  51.301  1.00  0.00    -0.273 OA
BRANCH  17  20
HETATM   20  C   UNL     1      28.550  42.731  54.142  1.00  0.00     0.035 A 
HETATM   21  C   UNL     1      29.531  43.523  54.744  1.00  0.00     0.036 A 
HETATM   22  C   UNL     1      29.207  44.764  55.318  1.00  0.00    -0.060 A 
HETATM   23  C   UNL     1      30.284  45.607  55.937  1.00  0.00     0.048 C 
HETATM   24  C   UNL     1      27.886  45.216  55.270  1.00  0.00     0.007 A 
HETATM   25  C   UNL     1      26.900  44.433  54.673  1.00  0.00     0.003 A 
HETATM   26  C   UNL     1      27.230  43.196  54.115  1.00  0.00     0.029 A 
ENDBRANCH  17  20
ENDBRANCH  15  16
ENDBRANCH   1  15
TORSDOF 3
ENDMDL
