MODEL 1
REMARK VINA RESULT:      -8.9      0.000      0.000
REMARK  9 active torsions:
REMARK  status: ('A' for Active; 'I' for Inactive)
REMARK    1  A    between atoms: C_2  and  O_3 
REMARK    2  A    between atoms: O_3  and  C_4 
REMARK    3  A    between atoms: C_5  and  C_6 
REMARK    4  A    between atoms: N_7  and  C_9 
REMARK    5  A    between atoms: C_9  and  C_10 
REMARK       I    between atoms: C_10  and  N_11 
REMARK    6  A    between atoms: N_11  and  C_12 
REMARK    7  A    between atoms: C_20  and  C_21 
REMARK    8  A    between atoms: C_21  and  O_22 
REMARK    9  A    between atoms: C_28  and  O_29 
ROOT
HETATM    1  C   UNL     1      24.500  46.652  50.259  1.00  0.00     0.231 C 
HETATM    2  N   UNL     1      23.960  45.633  49.241  1.00  0.00    -0.054 N 
HETATM    3  H   UNL     1      23.893  46.165  48.355  1.00  0.00     0.281 HD
HETATM    4  C   UNL     1      24.848  44.451  48.946  1.00  0.00     0.239 C 
HETATM    5  C   UNL     1      25.307  43.758  50.215  1.00  0.00     0.066 C 
HETATM    6  C   UNL     1      25.990  44.731  51.178  1.00  0.00     0.065 C 
HETATM    7  C   UNL     1      25.034  45.897  51.508  1.00  0.00     0.055 C 
HETATM    8  C   UNL     1      26.413  43.989  52.462  1.00  0.00     0.038 C 
HETATM    9  C   UNL     1      26.999  44.933  53.511  1.00  0.00     0.003 C 
HETATM   10  C   UNL     1      26.038  46.071  53.832  1.00  0.00     0.001 C 
HETATM   11  C   UNL     1      25.630  46.835  52.574  1.00  0.00     0.010 C 
ENDROOT
BRANCH   2  12
HETATM   12  C   UNL     1      22.499  45.215  49.485  1.00  0.00     0.338 C 
BRANCH  12  13
HETATM   13  C   UNL     1      21.571  46.120  48.665  1.00  0.00     0.248 C 
HETATM   14  N   UNL     1      20.301  46.248  49.190  1.00  0.00    -0.319 N 
HETATM   15  H   UNL     1      20.062  45.769  50.060  1.00  0.00     0.169 HD
HETATM   16  O   UNL     1      21.986  46.501  47.572  1.00  0.00    -0.271 OA
BRANCH  14  17
HETATM   17  C   UNL     1      19.199  46.813  48.553  1.00  0.00     0.094 A 
HETATM   18  S   UNL     1      18.603  46.181  47.098  1.00  0.00    -0.075 SA
HETATM   19  C   UNL     1      17.368  47.334  47.021  1.00  0.00    -0.008 A 
HETATM   20  C   UNL     1      17.378  48.205  48.096  1.00  0.00    -0.026 A 
HETATM   21  C   UNL     1      16.368  47.336  45.904  1.00  0.00     0.047 C 
HETATM   22  C   UNL     1      16.345  49.294  48.219  1.00  0.00     0.041 C 
HETATM   23  C   UNL     1      18.482  47.924  48.993  1.00  0.00     0.080 A 
HETATM   24  C   UNL     1      15.150  49.080  47.276  1.00  0.00     0.005 C 
HETATM   25  C   UNL     1      15.599  48.662  45.871  1.00  0.00     0.005 C 
BRANCH  23  26
HETATM   26  C   UNL     1      18.847  48.622  50.232  1.00  0.00     0.296 C 
HETATM   27  O   UNL     1      18.449  48.239  51.332  1.00  0.00    -0.259 OA
BRANCH  26  28
HETATM   28  O   UNL     1      19.641  49.707  50.037  1.00  0.00    -0.322 OA
HETATM   29  C   UNL     1      18.970  50.967  50.098  1.00  0.00     0.213 C 
ENDBRANCH  26  28
ENDBRANCH  23  26
ENDBRANCH  14  17
ENDBRANCH  12  13
ENDBRANCH   2  12
BRANCH   1  30
HETATM   30  C   UNL     1      25.353  47.767  49.646  1.00  0.00     0.006 A 
HETATM   31  C   UNL     1      24.736  48.908  49.075  1.00  0.00     0.077 A 
HETATM   32  C   UNL     1      25.515  49.920  48.491  1.00  0.00     0.037 A 
HETATM   33  C   UNL     1      26.904  49.830  48.474  1.00  0.00     0.003 A 
HETATM   34  C   UNL     1      27.526  48.732  49.046  1.00  0.00     0.001 A 
HETATM   35  C   UNL     1      26.760  47.720  49.628  1.00  0.00     0.012 A 
BRANCH  31  36
HETATM   36  O   UNL     1      23.363  48.952  49.129  1.00  0.00    -0.351 OA
BRANCH  36  37
HETATM   37  C   UNL     1      22.746  50.235  48.962  1.00  0.00     0.171 C 
HETATM   38  C   UNL     1      21.974  50.232  47.656  1.00  0.00     0.034 C 
ENDBRANCH  36  37
ENDBRANCH  31  36
ENDBRANCH   1  30
BRANCH   6  39
HETATM   39  O   UNL     1      27.147  45.235  50.516  1.00  0.00    -0.389 OA
HETATM   40  H   UNL     1      27.344  46.141  50.826  1.00  0.00     0.210 HD
ENDBRANCH   6  39
TORSDOF 9
ENDMDL
MODEL 2
REMARK VINA RESULT:      -8.9      1.406      2.273
REMARK  9 active torsions:
REMARK  status: ('A' for Active; 'I' for Inactive)
REMARK    1  A    between atoms: C_2  and  O_3 
REMARK    2  A    between atoms: O_3  and  C_4 
REMARK    3  A    between atoms: C_5  and  C_6 
REMARK    4  A    between atoms: N_7  and  C_9 
REMARK    5  A    between atoms: C_9  and  C_10 
REMARK       I    between atoms: C_10  and  N_11 
REMARK    6  A    between atoms: N_11  and  C_12 
REMARK    7  A    between atoms: C_20  and  C_21 
REMARK    8  A    between atoms: C_21  and  O_22 
REMARK    9  A    between atoms: C_28  and  O_29 
ROOT
HETATM    1  C   UNL     1      24.477  46.684  50.096  1.00  0.00     0.231 C 
HETATM    2  N   UNL     1      24.029  45.652  49.047  1.00  0.00    -0.054 N 
HETATM    3  H   UNL     1      24.020  46.180  48.155  1.00  0.00     0.281 HD
HETATM    4  C   UNL     1      24.955  44.483  48.824  1.00  0.00     0.239 C 
HETATM    5  C   UNL     1      25.329  43.803  50.128  1.00  0.00     0.066 C 
HETATM    6  C   UNL     1      25.924  44.790  51.133  1.00  0.00     0.065 C 
HETATM    7  C   UNL     1      24.928  45.943  51.385  1.00  0.00     0.055 C 
HETATM    8  C   UNL     1      26.262  44.061  52.449  1.00  0.00     0.038 C 
HETATM    9  C   UNL     1      26.754  45.018  53.534  1.00  0.00     0.003 C 
HETATM   10  C   UNL     1      25.755  46.142  53.776  1.00  0.00     0.001 C 
HETATM   11  C   UNL     1      25.430  46.894  52.488  1.00  0.00     0.010 C 
ENDROOT
BRANCH   2  12
HETATM   12  C   UNL     1      22.561  45.213  49.184  1.00  0.00     0.338 C 
BRANCH  12  13
HETATM   13  C   UNL     1      21.657  46.255  48.514  1.00  0.00     0.248 C 
HETATM   14  N   UNL     1      20.551  46.606  49.263  1.00  0.00    -0.319 N 
HETATM   15  H   UNL     1      20.408  46.184  50.182  1.00  0.00     0.169 HD
HETATM   16  O   UNL     1      21.911  46.548  47.348  1.00  0.00    -0.271 OA
BRANCH  14  17
HETATM   17  C   UNL     1      19.458  47.346  48.821  1.00  0.00     0.094 A 
HETATM   18  S   UNL     1      19.247  48.964  49.281  1.00  0.00    -0.075 SA
HETATM   19  C   UNL     1      17.819  49.106  48.384  1.00  0.00    -0.008 A 
HETATM   20  C   UNL     1      17.487  47.941  47.715  1.00  0.00    -0.026 A 
HETATM   21  C   UNL     1      17.059  50.397  48.322  1.00  0.00     0.047 C 
HETATM   22  C   UNL     1      16.257  47.872  46.847  1.00  0.00     0.041 C 
HETATM   23  C   UNL     1      18.436  46.881  47.995  1.00  0.00     0.080 A 
HETATM   24  C   UNL     1      15.688  49.262  46.522  1.00  0.00     0.005 C 
HETATM   25  C   UNL     1      15.652  50.167  47.758  1.00  0.00     0.005 C 
BRANCH  23  26
HETATM   26  C   UNL     1      18.432  45.502  47.494  1.00  0.00     0.296 C 
HETATM   27  O   UNL     1      18.519  44.537  48.253  1.00  0.00    -0.259 OA
BRANCH  26  28
HETATM   28  O   UNL     1      18.332  45.410  46.142  1.00  0.00    -0.322 OA
HETATM   29  C   UNL     1      17.349  44.488  45.669  1.00  0.00     0.213 C 
ENDBRANCH  26  28
ENDBRANCH  23  26
ENDBRANCH  14  17
ENDBRANCH  12  13
ENDBRANCH   2  12
BRANCH   1  30
HETATM   30  C   UNL     1      25.356  47.810  49.542  1.00  0.00     0.006 A 
HETATM   31  C   UNL     1      24.765  48.945  48.934  1.00  0.00     0.077 A 
HETATM   32  C   UNL     1      25.569  49.967  48.404  1.00  0.00     0.037 A 
HETATM   33  C   UNL     1      26.957  49.892  48.477  1.00  0.00     0.003 A 
HETATM   34  C   UNL     1      27.552  48.799  49.087  1.00  0.00     0.001 A 
HETATM   35  C   UNL     1      26.761  47.778  49.616  1.00  0.00     0.012 A 
BRANCH  31  36
HETATM   36  O   UNL     1      23.391  48.974  48.898  1.00  0.00    -0.351 OA
BRANCH  36  37
HETATM   37  C   UNL     1      22.784  49.851  47.940  1.00  0.00     0.171 C 
HETATM   38  C   UNL     1      22.194  51.037  48.681  1.00  0.00     0.034 C 
ENDBRANCH  36  37
ENDBRANCH  31  36
ENDBRANCH   1  30
BRANCH   6  39
HETATM   39  O   UNL     1      27.118  45.310  50.556  1.00  0.00    -0.389 OA
HETATM   40  H   UNL     1      26.901  45.921  49.825  1.00  0.00     0.210 HD
ENDBRANCH   6  39
TORSDOF 9
ENDMDL
MODEL 3
REMARK VINA RESULT:      -8.6      2.917      8.933
REMARK  9 active torsions:
REMARK  status: ('A' for Active; 'I' for Inactive)
REMARK    1  A    between atoms: C_2  and  O_3 
REMARK    2  A    between atoms: O_3  and  C_4 
REMARK    3  A    between atoms: C_5  and  C_6 
REMARK    4  A    between atoms: N_7  and  C_9 
REMARK    5  A    between atoms: C_9  and  C_10 
REMARK       I    between atoms: C_10  and  N_11 
REMARK    6  A    between atoms: N_11  and  C_12 
REMARK    7  A    between atoms: C_20  and  C_21 
REMARK    8  A    between atoms: C_21  and  O_22 
REMARK    9  A    between atoms: C_28  and  O_29 
ROOT
HETATM    1  C   UNL     1      22.131  47.790  48.888  1.00  0.00     0.231 C 
HETATM    2  N   UNL     1      23.628  48.143  48.920  1.00  0.00    -0.054 N 
HETATM    3  H   UNL     1      24.087  47.364  48.412  1.00  0.00     0.281 HD
HETATM    4  C   UNL     1      24.033  49.401  48.195  1.00  0.00     0.239 C 
HETATM    5  C   UNL     1      23.187  50.590  48.612  1.00  0.00     0.066 C 
HETATM    6  C   UNL     1      21.693  50.312  48.440  1.00  0.00     0.065 C 
HETATM    7  C   UNL     1      21.299  49.054  49.242  1.00  0.00     0.055 C 
HETATM    8  C   UNL     1      20.875  51.535  48.902  1.00  0.00     0.038 C 
HETATM    9  C   UNL     1      19.369  51.276  48.861  1.00  0.00     0.003 C 
HETATM   10  C   UNL     1      18.998  50.037  49.665  1.00  0.00     0.001 C 
HETATM   11  C   UNL     1      19.779  48.809  49.202  1.00  0.00     0.010 C 
ENDROOT
BRANCH   2  12
HETATM   12  C   UNL     1      24.267  48.045  50.316  1.00  0.00     0.338 C 
BRANCH  12  13
HETATM   13  C   UNL     1      25.298  46.911  50.323  1.00  0.00     0.248 C 
HETATM   14  N   UNL     1      25.211  46.077  51.420  1.00  0.00    -0.319 N 
HETATM   15  H   UNL     1      24.492  46.243  52.126  1.00  0.00     0.169 HD
HETATM   16  O   UNL     1      26.174  46.947  49.462  1.00  0.00    -0.271 OA
BRANCH  14  17
HETATM   17  C   UNL     1      26.143  45.115  51.799  1.00  0.00     0.094 A 
HETATM   18  S   UNL     1      26.509  43.799  50.795  1.00  0.00    -0.075 SA
HETATM   19  C   UNL     1      27.634  43.181  51.896  1.00  0.00    -0.008 A 
HETATM   20  C   UNL     1      27.761  43.962  53.030  1.00  0.00    -0.026 A 
HETATM   21  C   UNL     1      28.416  41.936  51.599  1.00  0.00     0.047 C 
HETATM   22  C   UNL     1      28.729  43.588  54.123  1.00  0.00     0.041 C 
HETATM   23  C   UNL     1      26.855  45.094  52.997  1.00  0.00     0.080 A 
HETATM   24  C   UNL     1      29.747  42.529  53.669  1.00  0.00     0.005 C 
HETATM   25  C   UNL     1      29.081  41.402  52.873  1.00  0.00     0.005 C 
BRANCH  23  26
HETATM   26  C   UNL     1      26.675  46.144  54.006  1.00  0.00     0.296 C 
HETATM   27  O   UNL     1      25.561  46.450  54.430  1.00  0.00    -0.259 OA
BRANCH  26  28
HETATM   28  O   UNL     1      27.836  46.727  54.405  1.00  0.00    -0.322 OA
HETATM   29  C   UNL     1      28.055  46.738  55.817  1.00  0.00     0.213 C 
ENDBRANCH  26  28
ENDBRANCH  23  26
ENDBRANCH  14  17
ENDBRANCH  12  13
ENDBRANCH   2  12
BRANCH   1  30
HETATM   30  C   UNL     1      21.707  46.935  47.689  1.00  0.00     0.006 A 
HETATM   31  C   UNL     1      22.378  45.719  47.406  1.00  0.00     0.077 A 
HETATM   32  C   UNL     1      22.007  44.945  46.295  1.00  0.00     0.037 A 
HETATM   33  C   UNL     1      20.969  45.349  45.460  1.00  0.00     0.003 A 
HETATM   34  C   UNL     1      20.289  46.525  45.732  1.00  0.00     0.001 A 
HETATM   35  C   UNL     1      20.650  47.301  46.835  1.00  0.00     0.012 A 
BRANCH  31  36
HETATM   36  O   UNL     1      23.387  45.361  48.269  1.00  0.00    -0.351 OA
BRANCH  36  37
HETATM   37  C   UNL     1      23.453  43.984  48.657  1.00  0.00     0.171 C 
HETATM   38  C   UNL     1      22.654  43.806  49.936  1.00  0.00     0.034 C 
ENDBRANCH  36  37
ENDBRANCH  31  36
ENDBRANCH   1  30
BRANCH   6  39
HETATM   39  O   UNL     1      21.466  50.084  47.052  1.00  0.00    -0.389 OA
HETATM   40  H   UNL     1      22.054  50.651  46.517  1.00  0.00     0.210 HD
ENDBRANCH   6  39
TORSDOF 9
ENDMDL
MODEL 4
REMARK VINA RESULT:      -8.4      1.914      2.372
REMARK  9 active torsions:
REMARK  status: ('A' for Active; 'I' for Inactive)
REMARK    1  A    between atoms: C_2  and  O_3 
REMARK    2  A    between atoms: O_3  and  C_4 
REMARK    3  A    between atoms: C_5  and  C_6 
REMARK    4  A    between atoms: N_7  and  C_9 
REMARK    5  A    between atoms: C_9  and  C_10 
REMARK       I    between atoms: C_10  and  N_11 
REMARK    6  A    between atoms: N_11  and  C_12 
REMARK    7  A    between atoms: C_20  and  C_21 
REMARK    8  A    between atoms: C_21  and  O_22 
REMARK    9  A    between atoms: C_28  and  O_29 
ROOT
HETATM    1  C   UNL     1      24.475  46.729  50.265  1.00  0.00     0.231 C 
HETATM    2  N   UNL     1      23.942  45.688  49.265  1.00  0.00    -0.054 N 
HETATM    3  H   UNL     1      23.848  46.210  48.375  1.00  0.00     0.281 HD
HETATM    4  C   UNL     1      24.853  44.524  48.965  1.00  0.00     0.239 C 
HETATM    5  C   UNL     1      25.349  43.854  50.233  1.00  0.00     0.066 C 
HETATM    6  C   UNL     1      26.024  44.852  51.176  1.00  0.00     0.065 C 
HETATM    7  C   UNL     1      25.046  45.998  51.511  1.00  0.00     0.055 C 
HETATM    8  C   UNL     1      26.485  44.132  52.459  1.00  0.00     0.038 C 
HETATM    9  C   UNL     1      27.066  45.099  53.490  1.00  0.00     0.003 C 
HETATM   10  C   UNL     1      26.084  46.217  53.817  1.00  0.00     0.001 C 
HETATM   11  C   UNL     1      25.638  46.959  52.559  1.00  0.00     0.010 C 
ENDROOT
BRANCH   2  12
HETATM   12  C   UNL     1      22.495  45.239  49.537  1.00  0.00     0.338 C 
BRANCH  12  13
HETATM   13  C   UNL     1      21.757  45.079  48.203  1.00  0.00     0.248 C 
HETATM   14  N   UNL     1      21.656  46.246  47.471  1.00  0.00    -0.319 N 
HETATM   15  H   UNL     1      22.070  47.107  47.833  1.00  0.00     0.169 HD
HETATM   16  O   UNL     1      21.206  44.000  47.995  1.00  0.00    -0.271 OA
BRANCH  14  17
HETATM   17  C   UNL     1      20.859  46.448  46.348  1.00  0.00     0.094 A 
HETATM   18  S   UNL     1      21.181  45.652  44.886  1.00  0.00    -0.075 SA
HETATM   19  C   UNL     1      19.860  46.380  44.118  1.00  0.00    -0.008 A 
HETATM   20  C   UNL     1      19.150  47.222  44.954  1.00  0.00    -0.026 A 
HETATM   21  C   UNL     1      19.518  46.070  42.691  1.00  0.00     0.047 C 
HETATM   22  C   UNL     1      17.927  47.951  44.461  1.00  0.00     0.041 C 
HETATM   23  C   UNL     1      19.756  47.295  46.270  1.00  0.00     0.080 A 
HETATM   24  C   UNL     1      17.397  47.379  43.136  1.00  0.00     0.005 C 
HETATM   25  C   UNL     1      18.528  47.103  42.140  1.00  0.00     0.005 C 
BRANCH  23  26
HETATM   26  C   UNL     1      19.318  48.081  47.430  1.00  0.00     0.296 C 
HETATM   27  O   UNL     1      19.140  49.296  47.359  1.00  0.00    -0.259 OA
BRANCH  26  28
HETATM   28  O   UNL     1      19.143  47.343  48.558  1.00  0.00    -0.322 OA
HETATM   29  C   UNL     1      19.063  48.097  49.768  1.00  0.00     0.213 C 
ENDBRANCH  26  28
ENDBRANCH  23  26
ENDBRANCH  14  17
ENDBRANCH  12  13
ENDBRANCH   2  12
BRANCH   1  30
HETATM   30  C   UNL     1      25.291  47.858  49.628  1.00  0.00     0.006 A 
HETATM   31  C   UNL     1      24.654  48.835  48.823  1.00  0.00     0.077 A 
HETATM   32  C   UNL     1      25.404  49.856  48.218  1.00  0.00     0.037 A 
HETATM   33  C   UNL     1      26.781  49.938  48.409  1.00  0.00     0.003 A 
HETATM   34  C   UNL     1      27.418  49.004  49.210  1.00  0.00     0.001 A 
HETATM   35  C   UNL     1      26.681  47.984  49.814  1.00  0.00     0.012 A 
BRANCH  31  36
HETATM   36  O   UNL     1      23.292  48.714  48.676  1.00  0.00    -0.351 OA
BRANCH  36  37
HETATM   37  C   UNL     1      22.621  49.752  47.951  1.00  0.00     0.171 C 
HETATM   38  C   UNL     1      21.969  50.691  48.949  1.00  0.00     0.034 C 
ENDBRANCH  36  37
ENDBRANCH  31  36
ENDBRANCH   1  30
BRANCH   6  39
HETATM   39  O   UNL     1      27.157  45.377  50.490  1.00  0.00    -0.389 OA
HETATM   40  H   UNL     1      27.109  45.154  49.540  1.00  0.00     0.210 HD
ENDBRANCH   6  39
TORSDOF 9
ENDMDL
MODEL 5
REMARK VINA RESULT:      -8.3      2.327      8.365
REMARK  9 active torsions:
REMARK  status: ('A' for Active; 'I' for Inactive)
REMARK    1  A    between atoms: C_2  and  O_3 
REMARK    2  A    between atoms: O_3  and  C_4 
REMARK    3  A    between atoms: C_5  and  C_6 
REMARK    4  A    between atoms: N_7  and  C_9 
REMARK    5  A    between atoms: C_9  and  C_10 
REMARK       I    between atoms: C_10  and  N_11 
REMARK    6  A    between atoms: N_11  and  C_12 
REMARK    7  A    between atoms: C_20  and  C_21 
REMARK    8  A    between atoms: C_21  and  O_22 
REMARK    9  A    between atoms: C_28  and  O_29 
ROOT
HETATM    1  C   UNL     1      20.774  47.482  47.962  1.00  0.00     0.231 C 
HETATM    2  N   UNL     1      21.220  46.236  48.746  1.00  0.00    -0.054 N 
HETATM    3  H   UNL     1      21.631  46.615  49.619  1.00  0.00     0.281 HD
HETATM    4  C   UNL     1      20.126  45.294  49.181  1.00  0.00     0.239 C 
HETATM    5  C   UNL     1      19.219  44.912  48.026  1.00  0.00     0.066 C 
HETATM    6  C   UNL     1      18.639  46.143  47.328  1.00  0.00     0.065 C 
HETATM    7  C   UNL     1      19.784  47.056  46.842  1.00  0.00     0.055 C 
HETATM    8  C   UNL     1      17.749  45.706  46.147  1.00  0.00     0.038 C 
HETATM    9  C   UNL     1      17.231  46.896  45.339  1.00  0.00     0.003 C 
HETATM   10  C   UNL     1      18.375  47.779  44.859  1.00  0.00     0.001 C 
HETATM   11  C   UNL     1      19.252  48.245  46.019  1.00  0.00     0.010 C 
ENDROOT
BRANCH   2  12
HETATM   12  C   UNL     1      22.412  45.492  48.119  1.00  0.00     0.338 C 
BRANCH  12  13
HETATM   13  C   UNL     1      23.132  44.684  49.205  1.00  0.00     0.248 C 
HETATM   14  N   UNL     1      23.968  45.436  50.006  1.00  0.00    -0.319 N 
HETATM   15  H   UNL     1      24.048  46.442  49.850  1.00  0.00     0.169 HD
HETATM   16  O   UNL     1      23.022  43.461  49.156  1.00  0.00    -0.271 OA
BRANCH  14  17
HETATM   17  C   UNL     1      24.903  44.944  50.913  1.00  0.00     0.094 A 
HETATM   18  S   UNL     1      25.305  43.298  50.956  1.00  0.00    -0.075 SA
HETATM   19  C   UNL     1      26.415  43.530  52.212  1.00  0.00    -0.008 A 
HETATM   20  C   UNL     1      26.509  44.852  52.608  1.00  0.00    -0.026 A 
HETATM   21  C   UNL     1      27.217  42.391  52.767  1.00  0.00     0.047 C 
HETATM   22  C   UNL     1      27.458  45.266  53.703  1.00  0.00     0.041 C 
HETATM   23  C   UNL     1      25.590  45.693  51.865  1.00  0.00     0.080 A 
HETATM   24  C   UNL     1      28.497  44.179  54.021  1.00  0.00     0.005 C 
HETATM   25  C   UNL     1      27.862  42.787  54.100  1.00  0.00     0.005 C 
BRANCH  23  26
HETATM   26  C   UNL     1      25.376  47.140  51.993  1.00  0.00     0.296 C 
HETATM   27  O   UNL     1      25.256  47.682  53.091  1.00  0.00    -0.259 OA
BRANCH  26  28
HETATM   28  O   UNL     1      25.321  47.794  50.803  1.00  0.00    -0.322 OA
HETATM   29  C   UNL     1      26.578  47.963  50.146  1.00  0.00     0.213 C 
ENDBRANCH  26  28
ENDBRANCH  23  26
ENDBRANCH  14  17
ENDBRANCH  12  13
ENDBRANCH   2  12
BRANCH   1  30
HETATM   30  C   UNL     1      20.428  48.691  48.837  1.00  0.00     0.006 A 
HETATM   31  C   UNL     1      21.173  49.892  48.724  1.00  0.00     0.077 A 
HETATM   32  C   UNL     1      20.874  50.993  49.542  1.00  0.00     0.037 A 
HETATM   33  C   UNL     1      19.835  50.932  50.467  1.00  0.00     0.003 A 
HETATM   34  C   UNL     1      19.083  49.774  50.577  1.00  0.00     0.001 A 
HETATM   35  C   UNL     1      19.374  48.673  49.768  1.00  0.00     0.012 A 
BRANCH  31  36
HETATM   36  O   UNL     1      22.180  49.902  47.788  1.00  0.00    -0.351 OA
BRANCH  36  37
HETATM   37  C   UNL     1      23.255  50.826  47.999  1.00  0.00     0.171 C 
HETATM   38  C   UNL     1      24.567  50.070  47.896  1.00  0.00     0.034 C 
ENDBRANCH  36  37
ENDBRANCH  31  36
ENDBRANCH   1  30
BRANCH   6  39
HETATM   39  O   UNL     1      17.849  46.839  48.288  1.00  0.00    -0.389 OA
HETATM   40  H   UNL     1      16.906  46.806  48.036  1.00  0.00     0.210 HD
ENDBRANCH   6  39
TORSDOF 9
ENDMDL
MODEL 6
REMARK VINA RESULT:      -8.1      2.603      9.168
REMARK  9 active torsions:
REMARK  status: ('A' for Active; 'I' for Inactive)
REMARK    1  A    between atoms: C_2  and  O_3 
REMARK    2  A    between atoms: O_3  and  C_4 
REMARK    3  A    between atoms: C_5  and  C_6 
REMARK    4  A    between atoms: N_7  and  C_9 
REMARK    5  A    between atoms: C_9  and  C_10 
REMARK       I    between atoms: C_10  and  N_11 
REMARK    6  A    between atoms: N_11  and  C_12 
REMARK    7  A    between atoms: C_20  and  C_21 
REMARK    8  A    between atoms: C_21  and  O_22 
REMARK    9  A    between atoms: C_28  and  O_29 
ROOT
HETATM    1  C   UNL     1      18.448  49.898  46.805  1.00  0.00     0.231 C 
HETATM    2  N   UNL     1      18.516  48.405  47.167  1.00  0.00    -0.054 N 
HETATM    3  H   UNL     1      18.535  48.391  48.203  1.00  0.00     0.281 HD
HETATM    4  C   UNL     1      17.328  47.566  46.766  1.00  0.00     0.239 C 
HETATM    5  C   UNL     1      16.973  47.754  45.303  1.00  0.00     0.066 C 
HETATM    6  C   UNL     1      16.747  49.227  44.958  1.00  0.00     0.065 C 
HETATM    7  C   UNL     1      18.002  50.048  45.324  1.00  0.00     0.055 C 
HETATM    8  C   UNL     1      16.417  49.370  43.459  1.00  0.00     0.038 C 
HETATM    9  C   UNL     1      16.293  50.831  43.028  1.00  0.00     0.003 C 
HETATM   10  C   UNL     1      17.543  51.623  43.388  1.00  0.00     0.001 C 
HETATM   11  C   UNL     1      17.870  51.515  44.876  1.00  0.00     0.010 C 
ENDROOT
BRANCH   2  12
HETATM   12  C   UNL     1      19.852  47.731  46.805  1.00  0.00     0.338 C 
BRANCH  12  13
HETATM   13  C   UNL     1      20.708  47.595  48.070  1.00  0.00     0.248 C 
HETATM   14  N   UNL     1      21.994  47.152  47.834  1.00  0.00    -0.319 N 
HETATM   15  H   UNL     1      22.296  46.961  46.877  1.00  0.00     0.169 HD
HETATM   16  O   UNL     1      20.137  47.736  49.149  1.00  0.00    -0.271 OA
BRANCH  14  17
HETATM   17  C   UNL     1      22.909  46.729  48.794  1.00  0.00     0.094 A 
HETATM   18  S   UNL     1      23.895  47.834  49.618  1.00  0.00    -0.075 SA
HETATM   19  C   UNL     1      24.630  46.610  50.525  1.00  0.00    -0.008 A 
HETATM   20  C   UNL     1      24.135  45.352  50.231  1.00  0.00    -0.026 A 
HETATM   21  C   UNL     1      25.671  46.920  51.559  1.00  0.00     0.047 C 
HETATM   22  C   UNL     1      24.650  44.131  50.947  1.00  0.00     0.041 C 
HETATM   23  C   UNL     1      23.137  45.409  49.180  1.00  0.00     0.080 A 
HETATM   24  C   UNL     1      25.448  44.484  52.213  1.00  0.00     0.005 C 
HETATM   25  C   UNL     1      26.418  45.645  51.969  1.00  0.00     0.005 C 
BRANCH  23  26
HETATM   26  C   UNL     1      22.387  44.301  48.578  1.00  0.00     0.296 C 
HETATM   27  O   UNL     1      21.170  44.190  48.719  1.00  0.00    -0.259 OA
BRANCH  26  28
HETATM   28  O   UNL     1      23.161  43.434  47.873  1.00  0.00    -0.322 OA
HETATM   29  C   UNL     1      22.974  42.055  48.197  1.00  0.00     0.213 C 
ENDBRANCH  26  28
ENDBRANCH  23  26
ENDBRANCH  14  17
ENDBRANCH  12  13
ENDBRANCH   2  12
BRANCH   1  30
HETATM   30  C   UNL     1      17.787  50.778  47.871  1.00  0.00     0.006 A 
HETATM   31  C   UNL     1      18.560  51.707  48.611  1.00  0.00     0.077 A 
HETATM   32  C   UNL     1      17.960  52.497  49.605  1.00  0.00     0.037 A 
HETATM   33  C   UNL     1      16.598  52.395  49.872  1.00  0.00     0.003 A 
HETATM   34  C   UNL     1      15.823  51.507  49.145  1.00  0.00     0.001 A 
HETATM   35  C   UNL     1      16.409  50.716  48.155  1.00  0.00     0.012 A 
BRANCH  31  36
HETATM   36  O   UNL     1      19.897  51.776  48.300  1.00  0.00    -0.351 OA
BRANCH  36  37
HETATM   37  C   UNL     1      20.813  51.190  49.232  1.00  0.00     0.171 C 
HETATM   38  C   UNL     1      22.163  51.046  48.554  1.00  0.00     0.034 C 
ENDBRANCH  36  37
ENDBRANCH  31  36
ENDBRANCH   1  30
BRANCH   6  39
HETATM   39  O   UNL     1      15.640  49.676  45.735  1.00  0.00    -0.389 OA
HETATM   40  H   UNL     1      15.901  49.766  46.672  1.00  0.00     0.210 HD
ENDBRANCH   6  39
TORSDOF 9
ENDMDL
MODEL 7
REMARK VINA RESULT:      -8.0      2.592      9.222
REMARK  9 active torsions:
REMARK  status: ('A' for Active; 'I' for Inactive)
REMARK    1  A    between atoms: C_2  and  O_3 
REMARK    2  A    between atoms: O_3  and  C_4 
REMARK    3  A    between atoms: C_5  and  C_6 
REMARK    4  A    between atoms: N_7  and  C_9 
REMARK    5  A    between atoms: C_9  and  C_10 
REMARK       I    between atoms: C_10  and  N_11 
REMARK    6  A    between atoms: N_11  and  C_12 
REMARK    7  A    between atoms: C_20  and  C_21 
REMARK    8  A    between atoms: C_21  and  O_22 
REMARK    9  A    between atoms: C_28  and  O_29 
ROOT
HETATM    1  C   UNL     1      18.047  50.362  46.679  1.00  0.00     0.231 C 
HETATM    2  N   UNL     1      18.132  48.842  46.896  1.00  0.00    -0.054 N 
HETATM    3  H   UNL     1      18.151  48.729  47.926  1.00  0.00     0.281 HD
HETATM    4  C   UNL     1      16.953  48.033  46.416  1.00  0.00     0.239 C 
HETATM    5  C   UNL     1      16.595  48.357  44.978  1.00  0.00     0.066 C 
HETATM    6  C   UNL     1      16.353  49.853  44.776  1.00  0.00     0.065 C 
HETATM    7  C   UNL     1      17.599  50.649  45.219  1.00  0.00     0.055 C 
HETATM    8  C   UNL     1      16.020  50.137  43.297  1.00  0.00     0.038 C 
HETATM    9  C   UNL     1      15.880  51.631  43.009  1.00  0.00     0.003 C 
HETATM   10  C   UNL     1      17.122  52.398  43.444  1.00  0.00     0.001 C 
HETATM   11  C   UNL     1      17.451  52.151  44.915  1.00  0.00     0.010 C 
ENDROOT
BRANCH   2  12
HETATM   12  C   UNL     1      19.474  48.220  46.472  1.00  0.00     0.338 C 
BRANCH  12  13
HETATM   13  C   UNL     1      20.288  47.871  47.724  1.00  0.00     0.248 C 
HETATM   14  N   UNL     1      21.589  47.490  47.462  1.00  0.00    -0.319 N 
HETATM   15  H   UNL     1      21.927  47.474  46.498  1.00  0.00     0.169 HD
HETATM   16  O   UNL     1      19.677  47.812  48.789  1.00  0.00    -0.271 OA
BRANCH  14  17
HETATM   17  C   UNL     1      22.476  46.912  48.366  1.00  0.00     0.094 A 
HETATM   18  S   UNL     1      22.459  45.245  48.672  1.00  0.00    -0.075 SA
HETATM   19  C   UNL     1      23.736  45.363  49.775  1.00  0.00    -0.008 A 
HETATM   20  C   UNL     1      24.203  46.657  49.920  1.00  0.00    -0.026 A 
HETATM   21  C   UNL     1      24.293  44.151  50.460  1.00  0.00     0.047 C 
HETATM   22  C   UNL     1      25.350  46.966  50.846  1.00  0.00     0.041 C 
HETATM   23  C   UNL     1      23.438  47.588  49.113  1.00  0.00     0.080 A 
HETATM   24  C   UNL     1      26.119  45.705  51.271  1.00  0.00     0.005 C 
HETATM   25  C   UNL     1      25.173  44.560  51.647  1.00  0.00     0.005 C 
BRANCH  23  26
HETATM   26  C   UNL     1      23.607  49.042  48.997  1.00  0.00     0.296 C 
HETATM   27  O   UNL     1      23.292  49.805  49.909  1.00  0.00    -0.259 OA
BRANCH  26  28
HETATM   28  O   UNL     1      24.126  49.440  47.805  1.00  0.00    -0.322 OA
HETATM   29  C   UNL     1      25.420  50.041  47.879  1.00  0.00     0.213 C 
ENDBRANCH  26  28
ENDBRANCH  23  26
ENDBRANCH  14  17
ENDBRANCH  12  13
ENDBRANCH   2  12
BRANCH   1  30
HETATM   30  C   UNL     1      17.377  51.129  47.825  1.00  0.00     0.006 A 
HETATM   31  C   UNL     1      18.094  52.123  48.535  1.00  0.00     0.077 A 
HETATM   32  C   UNL     1      17.490  52.810  49.601  1.00  0.00     0.037 A 
HETATM   33  C   UNL     1      16.176  52.537  49.970  1.00  0.00     0.003 A 
HETATM   34  C   UNL     1      15.453  51.582  49.274  1.00  0.00     0.001 A 
HETATM   35  C   UNL     1      16.045  50.894  48.214  1.00  0.00     0.012 A 
BRANCH  31  36
HETATM   36  O   UNL     1      19.384  52.361  48.122  1.00  0.00    -0.351 OA
BRANCH  36  37
HETATM   37  C   UNL     1      20.381  51.413  48.526  1.00  0.00     0.171 C 
HETATM   38  C   UNL     1      20.265  51.203  50.025  1.00  0.00     0.034 C 
ENDBRANCH  36  37
ENDBRANCH  31  36
ENDBRANCH   1  30
BRANCH   6  39
HETATM   39  O   UNL     1      15.242  50.214  45.592  1.00  0.00    -0.389 OA
HETATM   40  H   UNL     1      14.409  50.110  45.091  1.00  0.00     0.210 HD
ENDBRANCH   6  39
TORSDOF 9
ENDMDL
MODEL 8
REMARK VINA RESULT:      -8.0      2.561      8.842
REMARK  9 active torsions:
REMARK  status: ('A' for Active; 'I' for Inactive)
REMARK    1  A    between atoms: C_2  and  O_3 
REMARK    2  A    between atoms: O_3  and  C_4 
REMARK    3  A    between atoms: C_5  and  C_6 
REMARK    4  A    between atoms: N_7  and  C_9 
REMARK    5  A    between atoms: C_9  and  C_10 
REMARK       I    between atoms: C_10  and  N_11 
REMARK    6  A    between atoms: N_11  and  C_12 
REMARK    7  A    between atoms: C_20  and  C_21 
REMARK    8  A    between atoms: C_21  and  O_22 
REMARK    9  A    between atoms: C_28  and  O_29 
ROOT
HETATM    1  C   UNL     1      20.903  47.577  48.016  1.00  0.00     0.231 C 
HETATM    2  N   UNL     1      21.512  46.439  48.853  1.00  0.00    -0.054 N 
HETATM    3  H   UNL     1      21.730  46.879  49.766  1.00  0.00     0.281 HD
HETATM    4  C   UNL     1      20.602  45.278  49.164  1.00  0.00     0.239 C 
HETATM    5  C   UNL     1      19.935  44.734  47.914  1.00  0.00     0.066 C 
HETATM    6  C   UNL     1      19.189  45.827  47.147  1.00  0.00     0.065 C 
HETATM    7  C   UNL     1      20.160  46.973  46.792  1.00  0.00     0.055 C 
HETATM    8  C   UNL     1      18.553  45.234  45.874  1.00  0.00     0.038 C 
HETATM    9  C   UNL     1      17.889  46.302  45.005  1.00  0.00     0.003 C 
HETATM   10  C   UNL     1      18.864  47.418  44.656  1.00  0.00     0.001 C 
HETATM   11  C   UNL     1      19.484  48.037  45.908  1.00  0.00     0.010 C 
ENDROOT
BRANCH   2  12
HETATM   12  C   UNL     1      22.899  45.978  48.371  1.00  0.00     0.338 C 
BRANCH  12  13
HETATM   13  C   UNL     1      23.950  46.350  49.424  1.00  0.00     0.248 C 
HETATM   14  N   UNL     1      24.644  45.271  49.933  1.00  0.00    -0.319 N 
HETATM   15  H   UNL     1      24.442  44.331  49.588  1.00  0.00     0.169 HD
HETATM   16  O   UNL     1      23.960  47.515  49.816  1.00  0.00    -0.271 OA
BRANCH  14  17
HETATM   17  C   UNL     1      25.485  45.281  51.042  1.00  0.00     0.094 A 
HETATM   18  S   UNL     1      25.385  46.504  52.211  1.00  0.00    -0.075 SA
HETATM   19  C   UNL     1      26.628  45.822  53.134  1.00  0.00    -0.008 A 
HETATM   20  C   UNL     1      27.129  44.656  52.582  1.00  0.00    -0.026 A 
HETATM   21  C   UNL     1      27.069  46.436  54.429  1.00  0.00     0.047 C 
HETATM   22  C   UNL     1      28.230  43.887  53.265  1.00  0.00     0.041 C 
HETATM   23  C   UNL     1      26.479  44.345  51.323  1.00  0.00     0.080 A 
HETATM   24  C   UNL     1      28.434  44.324  54.724  1.00  0.00     0.005 C 
HETATM   25  C   UNL     1      28.415  45.849  54.872  1.00  0.00     0.005 C 
BRANCH  23  26
HETATM   26  C   UNL     1      26.729  43.211  50.427  1.00  0.00     0.296 C 
HETATM   27  O   UNL     1      27.105  43.373  49.266  1.00  0.00    -0.259 OA
BRANCH  26  28
HETATM   28  O   UNL     1      26.501  41.999  50.998  1.00  0.00    -0.322 OA
HETATM   29  C   UNL     1      25.668  41.119  50.241  1.00  0.00     0.213 C 
ENDBRANCH  26  28
ENDBRANCH  23  26
ENDBRANCH  14  17
ENDBRANCH  12  13
ENDBRANCH   2  12
BRANCH   1  30
HETATM   30  C   UNL     1      20.209  48.667  48.840  1.00  0.00     0.006 A 
HETATM   31  C   UNL     1      20.695  49.999  48.816  1.00  0.00     0.077 A 
HETATM   32  C   UNL     1      20.076  50.994  49.589  1.00  0.00     0.037 A 
HETATM   33  C   UNL     1      18.969  50.698  50.379  1.00  0.00     0.003 A 
HETATM   34  C   UNL     1      18.468  49.406  50.399  1.00  0.00     0.001 A 
HETATM   35  C   UNL     1      19.077  48.409  49.635  1.00  0.00     0.012 A 
BRANCH  31  36
HETATM   36  O   UNL     1      21.783  50.239  48.011  1.00  0.00    -0.351 OA
BRANCH  36  37
HETATM   37  C   UNL     1      22.966  50.739  48.648  1.00  0.00     0.171 C 
HETATM   38  C   UNL     1      24.161  50.396  47.778  1.00  0.00     0.034 C 
ENDBRANCH  36  37
ENDBRANCH  31  36
ENDBRANCH   1  30
BRANCH   6  39
HETATM   39  O   UNL     1      18.165  46.320  48.007  1.00  0.00    -0.389 OA
HETATM   40  H   UNL     1      17.308  46.332  47.537  1.00  0.00     0.210 HD
ENDBRANCH   6  39
TORSDOF 9
ENDMDL
MODEL 9
REMARK VINA RESULT:      -7.9     22.004     24.184
REMARK  9 active torsions:
REMARK  status: ('A' for Active; 'I' for Inactive)
REMARK    1  A    between atoms: C_2  and  O_3 
REMARK    2  A    between atoms: O_3  and  C_4 
REMARK    3  A    between atoms: C_5  and  C_6 
REMARK    4  A    between atoms: N_7  and  C_9 
REMARK    5  A    between atoms: C_9  and  C_10 
REMARK       I    between atoms: C_10  and  N_11 
REMARK    6  A    between atoms: N_11  and  C_12 
REMARK    7  A    between atoms: C_20  and  C_21 
REMARK    8  A    between atoms: C_21  and  O_22 
REMARK    9  A    between atoms: C_28  and  O_29 
ROOT
HETATM    1  C   UNL     1      39.587  43.424  65.623  1.00  0.00     0.231 C 
HETATM    2  N   UNL     1      38.343  44.175  65.119  1.00  0.00    -0.054 N 
HETATM    3  H   UNL     1      38.631  45.171  65.108  1.00  0.00     0.281 HD
HETATM    4  C   UNL     1      37.898  43.861  63.712  1.00  0.00     0.239 C 
HETATM    5  C   UNL     1      37.758  42.367  63.486  1.00  0.00     0.066 C 
HETATM    6  C   UNL     1      39.043  41.617  63.836  1.00  0.00     0.065 C 
HETATM    7  C   UNL     1      39.439  41.911  65.298  1.00  0.00     0.055 C 
HETATM    8  C   UNL     1      38.844  40.103  63.617  1.00  0.00     0.038 C 
HETATM    9  C   UNL     1      40.058  39.287  64.059  1.00  0.00     0.003 C 
HETATM   10  C   UNL     1      40.428  39.583  65.507  1.00  0.00     0.001 C 
HETATM   11  C   UNL     1      40.656  41.076  65.736  1.00  0.00     0.010 C 
ENDROOT
BRANCH   2  12
HETATM   12  C   UNL     1      37.168  44.183  66.112  1.00  0.00     0.338 C 
BRANCH  12  13
HETATM   13  C   UNL     1      36.703  45.628  66.333  1.00  0.00     0.248 C 
HETATM   14  N   UNL     1      37.733  46.537  66.469  1.00  0.00    -0.319 N 
HETATM   15  H   UNL     1      38.701  46.218  66.405  1.00  0.00     0.169 HD
HETATM   16  O   UNL     1      35.501  45.805  66.522  1.00  0.00    -0.271 OA
BRANCH  14  17
HETATM   17  C   UNL     1      37.616  47.857  66.895  1.00  0.00     0.094 A 
HETATM   18  S   UNL     1      37.276  48.233  68.513  1.00  0.00    -0.075 SA
HETATM   19  C   UNL     1      37.313  49.897  68.207  1.00  0.00    -0.008 A 
HETATM   20  C   UNL     1      37.594  50.194  66.886  1.00  0.00    -0.026 A 
HETATM   21  C   UNL     1      37.100  50.898  69.303  1.00  0.00     0.047 C 
HETATM   22  C   UNL     1      37.688  51.623  66.418  1.00  0.00     0.041 C 
HETATM   23  C   UNL     1      37.742  48.989  66.092  1.00  0.00     0.080 A 
HETATM   24  C   UNL     1      37.807  52.617  67.585  1.00  0.00     0.005 C 
HETATM   25  C   UNL     1      36.828  52.288  68.716  1.00  0.00     0.005 C 
BRANCH  23  26
HETATM   26  C   UNL     1      38.029  48.875  64.658  1.00  0.00     0.296 C 
HETATM   27  O   UNL     1      37.187  48.467  63.859  1.00  0.00    -0.259 OA
BRANCH  26  28
HETATM   28  O   UNL     1      39.290  49.251  64.319  1.00  0.00    -0.322 OA
HETATM   29  C   UNL     1      40.318  48.335  64.698  1.00  0.00     0.213 C 
ENDBRANCH  26  28
ENDBRANCH  23  26
ENDBRANCH  14  17
ENDBRANCH  12  13
ENDBRANCH   2  12
BRANCH   1  30
HETATM   30  C   UNL     1      40.916  44.121  65.316  1.00  0.00     0.006 A 
HETATM   31  C   UNL     1      41.858  44.351  66.350  1.00  0.00     0.077 A 
HETATM   32  C   UNL     1      43.067  45.011  66.075  1.00  0.00     0.037 A 
HETATM   33  C   UNL     1      43.368  45.440  64.786  1.00  0.00     0.003 A 
HETATM   34  C   UNL     1      42.467  45.207  63.759  1.00  0.00     0.001 A 
HETATM   35  C   UNL     1      41.263  44.551  64.022  1.00  0.00     0.012 A 
BRANCH  31  36
HETATM   36  O   UNL     1      41.516  43.897  67.602  1.00  0.00    -0.351 OA
BRANCH  36  37
HETATM   37  C   UNL     1      41.639  44.826  68.686  1.00  0.00     0.171 C 
HETATM   38  C   UNL     1      40.417  45.725  68.690  1.00  0.00     0.034 C 
ENDBRANCH  36  37
ENDBRANCH  31  36
ENDBRANCH   1  30
BRANCH   6  39
HETATM   39  O   UNL     1      40.061  42.095  62.961  1.00  0.00    -0.389 OA
HETATM   40  H   UNL     1      40.815  42.439  63.478  1.00  0.00     0.210 HD
ENDBRANCH   6  39
TORSDOF 9
ENDMDL
MODEL 10
REMARK VINA RESULT:      -7.9      2.829      8.842
REMARK  9 active torsions:
REMARK  status: ('A' for Active; 'I' for Inactive)
REMARK    1  A    between atoms: C_2  and  O_3 
REMARK    2  A    between atoms: O_3  and  C_4 
REMARK    3  A    between atoms: C_5  and  C_6 
REMARK    4  A    between atoms: N_7  and  C_9 
REMARK    5  A    between atoms: C_9  and  C_10 
REMARK       I    between atoms: C_10  and  N_11 
REMARK    6  A    between atoms: N_11  and  C_12 
REMARK    7  A    between atoms: C_20  and  C_21 
REMARK    8  A    between atoms: C_21  and  O_22 
REMARK    9  A    between atoms: C_28  and  O_29 
ROOT
HETATM    1  C   UNL     1      20.977  47.511  47.804  1.00  0.00     0.231 C 
HETATM    2  N   UNL     1      21.561  46.319  48.581  1.00  0.00    -0.054 N 
HETATM    3  H   UNL     1      21.950  46.740  49.445  1.00  0.00     0.281 HD
HETATM    4  C   UNL     1      20.575  45.275  49.041  1.00  0.00     0.239 C 
HETATM    5  C   UNL     1      19.687  44.799  47.907  1.00  0.00     0.066 C 
HETATM    6  C   UNL     1      18.973  45.963  47.218  1.00  0.00     0.065 C 
HETATM    7  C   UNL     1      20.012  46.984  46.706  1.00  0.00     0.055 C 
HETATM    8  C   UNL     1      18.106  45.435  46.057  1.00  0.00     0.038 C 
HETATM    9  C   UNL     1      17.457  46.563  45.257  1.00  0.00     0.003 C 
HETATM   10  C   UNL     1      18.497  47.554  44.752  1.00  0.00     0.001 C 
HETATM   11  C   UNL     1      19.347  48.110  45.892  1.00  0.00     0.010 C 
ENDROOT
BRANCH   2  12
HETATM   12  C   UNL     1      22.808  45.694  47.931  1.00  0.00     0.338 C 
BRANCH  12  13
HETATM   13  C   UNL     1      23.887  45.489  49.000  1.00  0.00     0.248 C 
HETATM   14  N   UNL     1      24.757  44.451  48.730  1.00  0.00    -0.319 N 
HETATM   15  H   UNL     1      24.650  43.911  47.869  1.00  0.00     0.169 HD
HETATM   16  O   UNL     1      23.779  46.142  50.036  1.00  0.00    -0.271 OA
BRANCH  14  17
HETATM   17  C   UNL     1      25.681  43.899  49.614  1.00  0.00     0.094 A 
HETATM   18  S   UNL     1      26.804  44.869  50.432  1.00  0.00    -0.075 SA
HETATM   19  C   UNL     1      27.475  43.539  51.234  1.00  0.00    -0.008 A 
HETATM   20  C   UNL     1      26.855  42.346  50.907  1.00  0.00    -0.026 A 
HETATM   21  C   UNL     1      28.594  43.702  52.219  1.00  0.00     0.047 C 
HETATM   22  C   UNL     1      27.297  41.048  51.532  1.00  0.00     0.041 C 
HETATM   23  C   UNL     1      25.811  42.546  49.921  1.00  0.00     0.080 A 
HETATM   24  C   UNL     1      28.190  41.263  52.764  1.00  0.00     0.005 C 
HETATM   25  C   UNL     1      29.245  42.348  52.522  1.00  0.00     0.005 C 
BRANCH  23  26
HETATM   26  C   UNL     1      24.934  41.541  49.309  1.00  0.00     0.296 C 
HETATM   27  O   UNL     1      25.382  40.510  48.807  1.00  0.00    -0.259 OA
BRANCH  26  28
HETATM   28  O   UNL     1      23.615  41.865  49.349  1.00  0.00    -0.322 OA
HETATM   29  C   UNL     1      22.850  41.432  48.223  1.00  0.00     0.213 C 
ENDBRANCH  26  28
ENDBRANCH  23  26
ENDBRANCH  14  17
ENDBRANCH  12  13
ENDBRANCH   2  12
BRANCH   1  30
HETATM   30  C   UNL     1      20.531  48.683  48.683  1.00  0.00     0.006 A 
HETATM   31  C   UNL     1      21.104  49.968  48.507  1.00  0.00     0.077 A 
HETATM   32  C   UNL     1      20.714  51.038  49.328  1.00  0.00     0.037 A 
HETATM   33  C   UNL     1      19.751  50.863  50.318  1.00  0.00     0.003 A 
HETATM   34  C   UNL     1      19.165  49.619  50.491  1.00  0.00     0.001 A 
HETATM   35  C   UNL     1      19.547  48.548  49.680  1.00  0.00     0.012 A 
BRANCH  31  36
HETATM   36  O   UNL     1      22.041  50.088  47.509  1.00  0.00    -0.351 OA
BRANCH  36  37
HETATM   37  C   UNL     1      23.323  50.611  47.880  1.00  0.00     0.171 C 
HETATM   38  C   UNL     1      24.136  49.493  48.506  1.00  0.00     0.034 C 
ENDBRANCH  36  37
ENDBRANCH  31  36
ENDBRANCH   1  30
BRANCH   6  39
HETATM   39  O   UNL     1      18.138  46.581  48.193  1.00  0.00    -0.389 OA
HETATM   40  H   UNL     1      17.272  46.805  47.802  1.00  0.00     0.210 HD
ENDBRANCH   6  39
TORSDOF 9
ENDMDL
