MODEL 1
REMARK VINA RESULT:      -9.0      0.000      0.000
REMARK  6 active torsions:
REMARK  status: ('A' for Active; 'I' for Inactive)
REMARK    1  A    between atoms: C_2  and  C_3 
REMARK    2  A    between atoms: C_3  and  O_4 
REMARK    3  A    between atoms: O_4  and  C_5 
REMARK    4  A    between atoms: C_8  and  C_9 
REMARK    5  A    between atoms: C_9  and  N_10 
REMARK       I    between atoms: N_10  and  C_11 
REMARK       I    between atoms: C_11  and  N_12 
REMARK    6  A    between atoms: N_12  and  C_13 
ROOT
HETATM    1  N   UNL     1      26.059  44.584  52.678  1.00  0.00    -0.339 N 
HETATM    2  C   UNL     1      25.947  44.413  54.013  1.00  0.00     0.316 C 
HETATM    3  N   UNL     1      27.034  44.636  54.779  1.00  0.00    -0.338 N 
HETATM    4  O   UNL     1      24.905  44.065  54.562  1.00  0.00    -0.247 OA
HETATM    5  H   UNL     1      26.985  44.598  52.289  1.00  0.00     0.164 HD
HETATM    6  H   UNL     1      26.792  44.504  55.754  1.00  0.00     0.164 HD
ENDROOT
BRANCH   1   7
HETATM    7  C   UNL     1      24.989  44.218  51.780  1.00  0.00     0.164 C 
BRANCH   7   8
HETATM    8  C   UNL     1      24.555  45.354  50.898  1.00  0.00    -0.021 A 
HETATM    9  C   UNL     1      24.941  46.663  51.177  1.00  0.00     0.128 A 
HETATM   10  N   UNL     1      24.552  47.742  50.457  1.00  0.00    -0.235 NA
HETATM   11  C   UNL     1      23.748  47.514  49.391  1.00  0.00     0.186 A 
HETATM   12  C   UNL     1      23.334  46.240  49.009  1.00  0.00     0.087 A 
HETATM   13  C   UNL     1      23.748  45.148  49.774  1.00  0.00     0.038 A 
HETATM   14 CL   UNL     1      22.320  45.965  47.642  1.00  0.00    -0.080 Cl
BRANCH  11  15
HETATM   15  O   UNL     1      23.305  48.594  48.651  1.00  0.00    -0.333 OA
BRANCH  15  16
HETATM   16  C   UNL     1      22.094  49.172  49.148  1.00  0.00     0.181 C 
BRANCH  16  17
HETATM   17  C   UNL     1      22.190  50.702  49.038  1.00  0.00     0.002 C 
HETATM   18  C   UNL     1      20.889  51.280  48.484  1.00  0.00     0.011 C 
HETATM   19  C   UNL     1      23.372  51.123  48.161  1.00  0.00     0.011 C 
ENDBRANCH  16  17
ENDBRANCH  15  16
ENDBRANCH  11  15
ENDBRANCH   7   8
ENDBRANCH   1   7
BRANCH   3  20
HETATM   20  C   UNL     1      28.420  45.054  54.525  1.00  0.00     0.090 C 
HETATM   21  C   UNL     1      29.108  45.781  55.714  1.00  0.00     0.067 C 
HETATM   22  C   UNL     1      30.102  44.921  56.406  1.00  0.00    -0.013 A 
HETATM   23  C   UNL     1      30.480  43.677  55.962  1.00  0.00     0.035 A 
HETATM   24  C   UNL     1      30.857  45.121  57.575  1.00  0.00     0.148 A 
HETATM   25  N   UNL     1      31.413  43.215  56.841  1.00  0.00    -0.282 N 
HETATM   26  C   UNL     1      29.957  42.957  54.779  1.00  0.00     0.061 C 
HETATM   27  H   UNL     1      31.922  42.336  56.828  1.00  0.00     0.189 HD
HETATM   28  N   UNL     1      31.641  44.074  57.851  1.00  0.00    -0.187 NA
HETATM   29  C   UNL     1      29.275  43.959  53.835  1.00  0.00     0.031 C 
ENDBRANCH   3  20
TORSDOF 6
ENDMDL
MODEL 2
REMARK VINA RESULT:      -8.5      3.537     10.526
REMARK  6 active torsions:
REMARK  status: ('A' for Active; 'I' for Inactive)
REMARK    1  A    between atoms: C_2  and  C_3 
REMARK    2  A    between atoms: C_3  and  O_4 
REMARK    3  A    between atoms: O_4  and  C_5 
REMARK    4  A    between atoms: C_8  and  C_9 
REMARK    5  A    between atoms: C_9  and  N_10 
REMARK       I    between atoms: N_10  and  C_11 
REMARK       I    between atoms: C_11  and  N_12 
REMARK    6  A    between atoms: N_12  and  C_13 
ROOT
HETATM    1  N   UNL     1      25.037  48.958  49.161  1.00  0.00    -0.339 N 
HETATM    2  C   UNL     1      24.656  49.753  48.138  1.00  0.00     0.316 C 
HETATM    3  N   UNL     1      23.363  50.129  48.070  1.00  0.00    -0.338 N 
HETATM    4  O   UNL     1      25.429  50.150  47.270  1.00  0.00    -0.247 OA
HETATM    5  H   UNL     1      24.316  48.464  49.658  1.00  0.00     0.164 HD
HETATM    6  H   UNL     1      23.234  50.747  47.277  1.00  0.00     0.164 HD
ENDROOT
BRANCH   1   7
HETATM    7  C   UNL     1      26.363  48.390  49.220  1.00  0.00     0.164 C 
BRANCH   7   8
HETATM    8  C   UNL     1      26.452  47.211  50.146  1.00  0.00    -0.021 A 
HETATM    9  C   UNL     1      26.845  45.961  49.675  1.00  0.00     0.128 A 
HETATM   10  N   UNL     1      26.904  44.843  50.437  1.00  0.00    -0.235 NA
HETATM   11  C   UNL     1      26.571  44.970  51.744  1.00  0.00     0.186 A 
HETATM   12  C   UNL     1      26.198  46.183  52.319  1.00  0.00     0.087 A 
HETATM   13  C   UNL     1      26.141  47.317  51.506  1.00  0.00     0.038 A 
HETATM   14 CL   UNL     1      25.788  46.332  53.987  1.00  0.00    -0.080 Cl
BRANCH  11  15
HETATM   15  O   UNL     1      26.589  43.845  52.546  1.00  0.00    -0.333 OA
BRANCH  15  16
HETATM   16  C   UNL     1      27.761  43.042  52.384  1.00  0.00     0.181 C 
BRANCH  16  17
HETATM   17  C   UNL     1      28.924  43.699  53.145  1.00  0.00     0.002 C 
HETATM   18  C   UNL     1      30.175  42.825  53.066  1.00  0.00     0.011 C 
HETATM   19  C   UNL     1      28.554  43.961  54.607  1.00  0.00     0.011 C 
ENDBRANCH  16  17
ENDBRANCH  15  16
ENDBRANCH  11  15
ENDBRANCH   7   8
ENDBRANCH   1   7
BRANCH   3  20
HETATM   20  C   UNL     1      22.161  49.885  48.881  1.00  0.00     0.090 C 
HETATM   21  C   UNL     1      21.385  51.168  49.294  1.00  0.00     0.067 C 
HETATM   22  C   UNL     1      20.128  51.342  48.523  1.00  0.00    -0.013 A 
HETATM   23  C   UNL     1      19.629  50.407  47.648  1.00  0.00     0.035 A 
HETATM   24  C   UNL     1      19.195  52.393  48.484  1.00  0.00     0.148 A 
HETATM   25  N   UNL     1      18.464  50.914  47.156  1.00  0.00    -0.282 N 
HETATM   26  C   UNL     1      20.247  49.113  47.281  1.00  0.00     0.061 C 
HETATM   27  H   UNL     1      17.816  50.498  46.494  1.00  0.00     0.189 HD
HETATM   28  N   UNL     1      18.192  52.141  47.636  1.00  0.00    -0.187 NA
HETATM   29  C   UNL     1      21.284  48.725  48.346  1.00  0.00     0.031 C 
ENDBRANCH   3  20
TORSDOF 6
ENDMDL
MODEL 3
REMARK VINA RESULT:      -8.2      3.237     10.533
REMARK  6 active torsions:
REMARK  status: ('A' for Active; 'I' for Inactive)
REMARK    1  A    between atoms: C_2  and  C_3 
REMARK    2  A    between atoms: C_3  and  O_4 
REMARK    3  A    between atoms: O_4  and  C_5 
REMARK    4  A    between atoms: C_8  and  C_9 
REMARK    5  A    between atoms: C_9  and  N_10 
REMARK       I    between atoms: N_10  and  C_11 
REMARK       I    between atoms: C_11  and  N_12 
REMARK    6  A    between atoms: N_12  and  C_13 
ROOT
HETATM    1  N   UNL     1      23.112  47.380  49.619  1.00  0.00    -0.339 N 
HETATM    2  C   UNL     1      23.248  48.713  49.453  1.00  0.00     0.316 C 
HETATM    3  N   UNL     1      22.131  49.465  49.381  1.00  0.00    -0.338 N 
HETATM    4  O   UNL     1      24.338  49.273  49.364  1.00  0.00    -0.247 OA
HETATM    5  H   UNL     1      22.216  46.976  49.411  1.00  0.00     0.164 HD
HETATM    6  H   UNL     1      22.387  50.441  49.293  1.00  0.00     0.164 HD
ENDROOT
BRANCH   1   7
HETATM    7  C   UNL     1      24.248  46.493  49.551  1.00  0.00     0.164 C 
BRANCH   7   8
HETATM    8  C   UNL     1      24.716  46.040  50.905  1.00  0.00    -0.021 A 
HETATM    9  C   UNL     1      24.496  44.735  51.337  1.00  0.00     0.128 A 
HETATM   10  N   UNL     1      24.845  44.267  52.559  1.00  0.00    -0.235 NA
HETATM   11  C   UNL     1      25.464  45.133  53.396  1.00  0.00     0.186 A 
HETATM   12  C   UNL     1      25.760  46.449  53.046  1.00  0.00     0.087 A 
HETATM   13  C   UNL     1      25.382  46.903  51.781  1.00  0.00     0.038 A 
HETATM   14 CL   UNL     1      26.558  47.537  54.119  1.00  0.00    -0.080 Cl
BRANCH  11  15
HETATM   15  O   UNL     1      25.807  44.701  54.663  1.00  0.00    -0.333 OA
BRANCH  15  16
HETATM   16  C   UNL     1      26.738  43.616  54.667  1.00  0.00     0.181 C 
BRANCH  16  17
HETATM   17  C   UNL     1      28.116  44.139  54.232  1.00  0.00     0.002 C 
HETATM   18  C   UNL     1      29.029  42.977  53.844  1.00  0.00     0.011 C 
HETATM   19  C   UNL     1      28.766  44.976  55.337  1.00  0.00     0.011 C 
ENDBRANCH  16  17
ENDBRANCH  15  16
ENDBRANCH  11  15
ENDBRANCH   7   8
ENDBRANCH   1   7
BRANCH   3  20
HETATM   20  C   UNL     1      20.687  49.197  49.446  1.00  0.00     0.090 C 
HETATM   21  C   UNL     1      19.885  50.172  50.352  1.00  0.00     0.067 C 
HETATM   22  C   UNL     1      19.084  51.146  49.566  1.00  0.00    -0.013 A 
HETATM   23  C   UNL     1      18.951  51.103  48.199  1.00  0.00     0.035 A 
HETATM   24  C   UNL     1      18.318  52.258  49.959  1.00  0.00     0.148 A 
HETATM   25  N   UNL     1      18.135  52.138  47.853  1.00  0.00    -0.282 N 
HETATM   26  C   UNL     1      19.590  50.142  47.272  1.00  0.00     0.061 C 
HETATM   27  H   UNL     1      17.806  52.411  46.932  1.00  0.00     0.189 HD
HETATM   28  N   UNL     1      17.756  52.874  48.914  1.00  0.00    -0.187 NA
HETATM   29  C   UNL     1      20.054  48.907  48.061  1.00  0.00     0.031 C 
ENDBRANCH   3  20
TORSDOF 6
ENDMDL
MODEL 4
REMARK VINA RESULT:      -8.0      4.431      8.244
REMARK  6 active torsions:
REMARK  status: ('A' for Active; 'I' for Inactive)
REMARK    1  A    between atoms: C_2  and  C_3 
REMARK    2  A    between atoms: C_3  and  O_4 
REMARK    3  A    between atoms: O_4  and  C_5 
REMARK    4  A    between atoms: C_8  and  C_9 
REMARK    5  A    between atoms: C_9  and  N_10 
REMARK       I    between atoms: N_10  and  C_11 
REMARK       I    between atoms: C_11  and  N_12 
REMARK    6  A    between atoms: N_12  and  C_13 
ROOT
HETATM    1  N   UNL     1      25.754  44.172  50.939  1.00  0.00    -0.339 N 
HETATM    2  C   UNL     1      26.562  44.048  49.863  1.00  0.00     0.316 C 
HETATM    3  N   UNL     1      26.872  42.807  49.437  1.00  0.00    -0.338 N 
HETATM    4  O   UNL     1      27.028  45.010  49.257  1.00  0.00    -0.247 OA
HETATM    5  H   UNL     1      25.642  43.367  51.529  1.00  0.00     0.164 HD
HETATM    6  H   UNL     1      27.451  42.871  48.608  1.00  0.00     0.164 HD
ENDROOT
BRANCH   1   7
HETATM    7  C   UNL     1      25.501  45.456  51.547  1.00  0.00     0.164 C 
BRANCH   7   8
HETATM    8  C   UNL     1      26.352  45.704  52.760  1.00  0.00    -0.021 A 
HETATM    9  C   UNL     1      27.314  44.780  53.159  1.00  0.00     0.128 A 
HETATM   10  N   UNL     1      28.085  44.910  54.265  1.00  0.00    -0.235 NA
HETATM   11  C   UNL     1      27.908  46.027  55.011  1.00  0.00     0.186 A 
HETATM   12  C   UNL     1      26.996  47.027  54.677  1.00  0.00     0.087 A 
HETATM   13  C   UNL     1      26.212  46.861  53.535  1.00  0.00     0.038 A 
HETATM   14 CL   UNL     1      26.791  48.449  55.630  1.00  0.00    -0.080 Cl
BRANCH  11  15
HETATM   15  O   UNL     1      28.654  46.181  56.164  1.00  0.00    -0.333 OA
BRANCH  15  16
HETATM   16  C   UNL     1      30.018  45.775  56.023  1.00  0.00     0.181 C 
BRANCH  16  17
HETATM   17  C   UNL     1      30.344  44.737  57.109  1.00  0.00     0.002 C 
HETATM   18  C   UNL     1      30.753  45.433  58.407  1.00  0.00     0.011 C 
HETATM   19  C   UNL     1      31.449  43.782  56.651  1.00  0.00     0.011 C 
ENDBRANCH  16  17
ENDBRANCH  15  16
ENDBRANCH  11  15
ENDBRANCH   7   8
ENDBRANCH   1   7
BRANCH   3  20
HETATM   20  C   UNL     1      26.531  41.443  49.864  1.00  0.00     0.090 C 
HETATM   21  C   UNL     1      26.813  40.341  48.804  1.00  0.00     0.067 C 
HETATM   22  C   UNL     1      28.012  39.528  49.136  1.00  0.00    -0.013 A 
HETATM   23  C   UNL     1      28.709  39.638  50.315  1.00  0.00     0.035 A 
HETATM   24  C   UNL     1      28.688  38.525  48.420  1.00  0.00     0.148 A 
HETATM   25  N   UNL     1      29.719  38.725  50.258  1.00  0.00    -0.282 N 
HETATM   26  C   UNL     1      28.442  40.582  51.424  1.00  0.00     0.061 C 
HETATM   27  H   UNL     1      30.430  38.515  50.953  1.00  0.00     0.189 HD
HETATM   28  N   UNL     1      29.740  38.050  49.095  1.00  0.00    -0.187 NA
HETATM   29  C   UNL     1      27.005  41.113  51.303  1.00  0.00     0.031 C 
ENDBRANCH   3  20
TORSDOF 6
ENDMDL
MODEL 5
REMARK VINA RESULT:      -7.9      2.227      3.289
REMARK  6 active torsions:
REMARK  status: ('A' for Active; 'I' for Inactive)
REMARK    1  A    between atoms: C_2  and  C_3 
REMARK    2  A    between atoms: C_3  and  O_4 
REMARK    3  A    between atoms: O_4  and  C_5 
REMARK    4  A    between atoms: C_8  and  C_9 
REMARK    5  A    between atoms: C_9  and  N_10 
REMARK       I    between atoms: N_10  and  C_11 
REMARK       I    between atoms: C_11  and  N_12 
REMARK    6  A    between atoms: N_12  and  C_13 
ROOT
HETATM    1  N   UNL     1      25.047  45.013  50.133  1.00  0.00    -0.339 N 
HETATM    2  C   UNL     1      26.391  45.146  50.173  1.00  0.00     0.316 C 
HETATM    3  N   UNL     1      27.014  44.972  51.357  1.00  0.00    -0.338 N 
HETATM    4  O   UNL     1      27.071  45.415  49.187  1.00  0.00    -0.247 OA
HETATM    5  H   UNL     1      24.550  45.065  51.004  1.00  0.00     0.164 HD
HETATM    6  H   UNL     1      28.014  45.066  51.228  1.00  0.00     0.164 HD
ENDROOT
BRANCH   1   7
HETATM    7  C   UNL     1      24.295  45.333  48.942  1.00  0.00     0.164 C 
BRANCH   7   8
HETATM    8  C   UNL     1      23.514  46.610  49.072  1.00  0.00    -0.021 A 
HETATM    9  C   UNL     1      24.117  47.771  49.548  1.00  0.00     0.128 A 
HETATM   10  N   UNL     1      23.469  48.945  49.736  1.00  0.00    -0.235 NA
HETATM   11  C   UNL     1      22.153  48.979  49.421  1.00  0.00     0.186 A 
HETATM   12  C   UNL     1      21.466  47.882  48.906  1.00  0.00     0.087 A 
HETATM   13  C   UNL     1      22.160  46.684  48.728  1.00  0.00     0.038 A 
HETATM   14 CL   UNL     1      19.792  47.944  48.498  1.00  0.00    -0.080 Cl
BRANCH  11  15
HETATM   15  O   UNL     1      21.450  50.151  49.629  1.00  0.00    -0.333 OA
BRANCH  15  16
HETATM   16  C   UNL     1      21.413  51.010  48.487  1.00  0.00     0.181 C 
BRANCH  16  17
HETATM   17  C   UNL     1      20.065  51.749  48.462  1.00  0.00     0.002 C 
HETATM   18  C   UNL     1      19.349  51.597  49.802  1.00  0.00     0.011 C 
HETATM   19  C   UNL     1      19.175  51.242  47.325  1.00  0.00     0.011 C 
ENDBRANCH  16  17
ENDBRANCH  15  16
ENDBRANCH  11  15
ENDBRANCH   7   8
ENDBRANCH   1   7
BRANCH   3  20
HETATM   20  C   UNL     1      26.583  44.646  52.724  1.00  0.00     0.090 C 
HETATM   21  C   UNL     1      27.677  43.987  53.610  1.00  0.00     0.067 C 
HETATM   22  C   UNL     1      28.226  44.924  54.623  1.00  0.00    -0.013 A 
HETATM   23  C   UNL     1      27.728  46.184  54.851  1.00  0.00     0.035 A 
HETATM   24  C   UNL     1      29.288  44.795  55.536  1.00  0.00     0.148 A 
HETATM   25  N   UNL     1      28.474  46.723  55.857  1.00  0.00    -0.282 N 
HETATM   26  C   UNL     1      26.618  46.847  54.130  1.00  0.00     0.061 C 
HETATM   27  H   UNL     1      28.388  47.634  56.297  1.00  0.00     0.189 HD
HETATM   28  N   UNL     1      29.451  45.898  56.274  1.00  0.00    -0.187 NA
HETATM   29  C   UNL     1      25.779  45.785  53.402  1.00  0.00     0.031 C 
ENDBRANCH   3  20
TORSDOF 6
ENDMDL
MODEL 6
REMARK VINA RESULT:      -7.7     17.624     19.711
REMARK  6 active torsions:
REMARK  status: ('A' for Active; 'I' for Inactive)
REMARK    1  A    between atoms: C_2  and  C_3 
REMARK    2  A    between atoms: C_3  and  O_4 
REMARK    3  A    between atoms: O_4  and  C_5 
REMARK    4  A    between atoms: C_8  and  C_9 
REMARK    5  A    between atoms: C_9  and  N_10 
REMARK       I    between atoms: N_10  and  C_11 
REMARK       I    between atoms: C_11  and  N_12 
REMARK    6  A    between atoms: N_12  and  C_13 
ROOT
HETATM    1  N   UNL     1      39.384  40.754  63.435  1.00  0.00    -0.339 N 
HETATM    2  C   UNL     1      39.729  39.656  62.728  1.00  0.00     0.316 C 
HETATM    3  N   UNL     1      40.469  38.709  63.341  1.00  0.00    -0.338 N 
HETATM    4  O   UNL     1      39.403  39.479  61.558  1.00  0.00    -0.247 OA
HETATM    5  H   UNL     1      39.905  40.950  64.272  1.00  0.00     0.164 HD
HETATM    6  H   UNL     1      40.619  37.936  62.705  1.00  0.00     0.164 HD
ENDROOT
BRANCH   1   7
HETATM    7  C   UNL     1      38.728  41.877  62.808  1.00  0.00     0.164 C 
BRANCH   7   8
HETATM    8  C   UNL     1      39.225  43.201  63.315  1.00  0.00    -0.021 A 
HETATM    9  C   UNL     1      38.339  44.159  63.800  1.00  0.00     0.128 A 
HETATM   10  N   UNL     1      38.707  45.390  64.230  1.00  0.00    -0.235 NA
HETATM   11  C   UNL     1      40.028  45.686  64.193  1.00  0.00     0.186 A 
HETATM   12  C   UNL     1      40.997  44.784  63.757  1.00  0.00     0.087 A 
HETATM   13  C   UNL     1      40.586  43.525  63.316  1.00  0.00     0.038 A 
HETATM   14 CL   UNL     1      42.677  45.171  63.728  1.00  0.00    -0.080 Cl
BRANCH  11  15
HETATM   15  O   UNL     1      40.438  46.943  64.593  1.00  0.00    -0.333 OA
BRANCH  15  16
HETATM   16  C   UNL     1      39.517  47.595  65.472  1.00  0.00     0.181 C 
BRANCH  16  17
HETATM   17  C   UNL     1      39.002  48.875  64.795  1.00  0.00     0.002 C 
HETATM   18  C   UNL     1      39.369  50.103  65.626  1.00  0.00     0.011 C 
HETATM   19  C   UNL     1      37.488  48.817  64.578  1.00  0.00     0.011 C 
ENDBRANCH  16  17
ENDBRANCH  15  16
ENDBRANCH  11  15
ENDBRANCH   7   8
ENDBRANCH   1   7
BRANCH   3  20
HETATM   20  C   UNL     1      41.041  38.541  64.685  1.00  0.00     0.090 C 
HETATM   21  C   UNL     1      40.173  37.695  65.659  1.00  0.00     0.067 C 
HETATM   22  C   UNL     1      40.729  36.336  65.879  1.00  0.00    -0.013 A 
HETATM   23  C   UNL     1      41.945  35.917  65.395  1.00  0.00     0.035 A 
HETATM   24  C   UNL     1      40.225  35.222  66.574  1.00  0.00     0.148 A 
HETATM   25  N   UNL     1      42.112  34.632  65.816  1.00  0.00    -0.282 N 
HETATM   26  C   UNL     1      42.883  36.694  64.553  1.00  0.00     0.061 C 
HETATM   27  H   UNL     1      42.895  34.005  65.658  1.00  0.00     0.189 HD
HETATM   28  N   UNL     1      41.058  34.178  66.518  1.00  0.00    -0.187 NA
HETATM   29  C   UNL     1      42.551  38.190  64.669  1.00  0.00     0.031 C 
ENDBRANCH   3  20
TORSDOF 6
ENDMDL
MODEL 7
REMARK VINA RESULT:      -7.6      3.280      5.378
REMARK  6 active torsions:
REMARK  status: ('A' for Active; 'I' for Inactive)
REMARK    1  A    between atoms: C_2  and  C_3 
REMARK    2  A    between atoms: C_3  and  O_4 
REMARK    3  A    between atoms: O_4  and  C_5 
REMARK    4  A    between atoms: C_8  and  C_9 
REMARK    5  A    between atoms: C_9  and  N_10 
REMARK       I    between atoms: N_10  and  C_11 
REMARK       I    between atoms: C_11  and  N_12 
REMARK    6  A    between atoms: N_12  and  C_13 
ROOT
HETATM    1  N   UNL     1      24.588  48.432  49.419  1.00  0.00    -0.339 N 
HETATM    2  C   UNL     1      25.923  48.258  49.527  1.00  0.00     0.316 C 
HETATM    3  N   UNL     1      26.377  47.325  50.388  1.00  0.00    -0.338 N 
HETATM    4  O   UNL     1      26.741  48.906  48.879  1.00  0.00    -0.247 OA
HETATM    5  H   UNL     1      24.012  48.071  50.159  1.00  0.00     0.164 HD
HETATM    6  H   UNL     1      27.388  47.283  50.336  1.00  0.00     0.164 HD
ENDROOT
BRANCH   1   7
HETATM    7  C   UNL     1      24.030  49.509  48.637  1.00  0.00     0.164 C 
BRANCH   7   8
HETATM    8  C   UNL     1      22.537  49.614  48.770  1.00  0.00    -0.021 A 
HETATM    9  C   UNL     1      21.766  48.492  49.061  1.00  0.00     0.128 A 
HETATM   10  N   UNL     1      20.414  48.497  49.150  1.00  0.00    -0.235 NA
HETATM   11  C   UNL     1      19.789  49.683  48.956  1.00  0.00     0.186 A 
HETATM   12  C   UNL     1      20.473  50.869  48.693  1.00  0.00     0.087 A 
HETATM   13  C   UNL     1      21.865  50.829  48.602  1.00  0.00     0.038 A 
HETATM   14 CL   UNL     1      19.664  52.373  48.460  1.00  0.00    -0.080 Cl
BRANCH  11  15
HETATM   15  O   UNL     1      18.409  49.723  49.007  1.00  0.00    -0.333 OA
BRANCH  15  16
HETATM   16  C   UNL     1      17.774  49.048  47.917  1.00  0.00     0.181 C 
BRANCH  16  17
HETATM   17  C   UNL     1      16.731  49.987  47.289  1.00  0.00     0.002 C 
HETATM   18  C   UNL     1      17.361  50.808  46.165  1.00  0.00     0.011 C 
HETATM   19  C   UNL     1      16.115  50.914  48.340  1.00  0.00     0.011 C 
ENDBRANCH  16  17
ENDBRANCH  15  16
ENDBRANCH  11  15
ENDBRANCH   7   8
ENDBRANCH   1   7
BRANCH   3  20
HETATM   20  C   UNL     1      25.754  46.368  51.313  1.00  0.00     0.090 C 
HETATM   21  C   UNL     1      26.461  44.986  51.392  1.00  0.00     0.067 C 
HETATM   22  C   UNL     1      27.235  44.815  52.648  1.00  0.00    -0.013 A 
HETATM   23  C   UNL     1      27.214  45.713  53.688  1.00  0.00     0.035 A 
HETATM   24  C   UNL     1      28.103  43.797  53.079  1.00  0.00     0.148 A 
HETATM   25  N   UNL     1      28.026  45.205  54.659  1.00  0.00    -0.282 N 
HETATM   26  C   UNL     1      26.481  46.998  53.742  1.00  0.00     0.061 C 
HETATM   27  H   UNL     1      28.244  45.589  55.573  1.00  0.00     0.189 HD
HETATM   28  N   UNL     1      28.600  44.044  54.296  1.00  0.00    -0.187 NA
HETATM   29  C   UNL     1      25.371  46.993  52.679  1.00  0.00     0.031 C 
ENDBRANCH   3  20
TORSDOF 6
ENDMDL
MODEL 8
REMARK VINA RESULT:      -7.6     12.969     15.371
REMARK  6 active torsions:
REMARK  status: ('A' for Active; 'I' for Inactive)
REMARK    1  A    between atoms: C_2  and  C_3 
REMARK    2  A    between atoms: C_3  and  O_4 
REMARK    3  A    between atoms: O_4  and  C_5 
REMARK    4  A    between atoms: C_8  and  C_9 
REMARK    5  A    between atoms: C_9  and  N_10 
REMARK       I    between atoms: N_10  and  C_11 
REMARK       I    between atoms: C_11  and  N_12 
REMARK    6  A    between atoms: N_12  and  C_13 
ROOT
HETATM    1  N   UNL     1      30.773  48.616  40.559  1.00  0.00    -0.339 N 
HETATM    2  C   UNL     1      29.861  47.695  40.176  1.00  0.00     0.316 C 
HETATM    3  N   UNL     1      28.628  48.121  39.837  1.00  0.00    -0.338 N 
HETATM    4  O   UNL     1      30.101  46.492  40.122  1.00  0.00    -0.247 OA
HETATM    5  H   UNL     1      30.431  49.519  40.836  1.00  0.00     0.164 HD
HETATM    6  H   UNL     1      28.068  47.331  39.540  1.00  0.00     0.164 HD
ENDROOT
BRANCH   1   7
HETATM    7  C   UNL     1      32.061  48.227  41.083  1.00  0.00     0.164 C 
BRANCH   7   8
HETATM    8  C   UNL     1      32.776  49.356  41.769  1.00  0.00    -0.021 A 
HETATM    9  C   UNL     1      34.086  49.683  41.429  1.00  0.00     0.128 A 
HETATM   10  N   UNL     1      34.811  50.654  42.033  1.00  0.00    -0.235 NA
HETATM   11  C   UNL     1      34.201  51.354  43.020  1.00  0.00     0.186 A 
HETATM   12  C   UNL     1      32.883  51.126  43.411  1.00  0.00     0.087 A 
HETATM   13  C   UNL     1      32.164  50.115  42.772  1.00  0.00     0.038 A 
HETATM   14 CL   UNL     1      32.118  52.033  44.661  1.00  0.00    -0.080 Cl
BRANCH  11  15
HETATM   15  O   UNL     1      34.920  52.331  43.682  1.00  0.00    -0.333 OA
BRANCH  15  16
HETATM   16  C   UNL     1      36.335  52.215  43.515  1.00  0.00     0.181 C 
BRANCH  16  17
HETATM   17  C   UNL     1      37.019  53.395  44.225  1.00  0.00     0.002 C 
HETATM   18  C   UNL     1      37.822  54.226  43.226  1.00  0.00     0.011 C 
HETATM   19  C   UNL     1      37.926  52.910  45.359  1.00  0.00     0.011 C 
ENDBRANCH  16  17
ENDBRANCH  15  16
ENDBRANCH  11  15
ENDBRANCH   7   8
ENDBRANCH   1   7
BRANCH   3  20
HETATM   20  C   UNL     1      27.960  49.428  39.763  1.00  0.00     0.090 C 
HETATM   21  C   UNL     1      28.057  50.281  41.059  1.00  0.00     0.067 C 
HETATM   22  C   UNL     1      29.015  51.408  40.926  1.00  0.00    -0.013 A 
HETATM   23  C   UNL     1      29.637  51.750  39.750  1.00  0.00     0.035 A 
HETATM   24  C   UNL     1      29.493  52.343  41.861  1.00  0.00     0.148 A 
HETATM   25  N   UNL     1      30.417  52.835  40.020  1.00  0.00    -0.282 N 
HETATM   26  C   UNL     1      29.516  51.060  38.445  1.00  0.00     0.061 C 
HETATM   27  H   UNL     1      31.012  53.365  39.391  1.00  0.00     0.189 HD
HETATM   28  N   UNL     1      30.363  53.199  41.314  1.00  0.00    -0.187 NA
HETATM   29  C   UNL     1      28.248  50.192  38.446  1.00  0.00     0.031 C 
ENDBRANCH   3  20
TORSDOF 6
ENDMDL
MODEL 9
REMARK VINA RESULT:      -7.6      2.629      3.768
REMARK  6 active torsions:
REMARK  status: ('A' for Active; 'I' for Inactive)
REMARK    1  A    between atoms: C_2  and  C_3 
REMARK    2  A    between atoms: C_3  and  O_4 
REMARK    3  A    between atoms: O_4  and  C_5 
REMARK    4  A    between atoms: C_8  and  C_9 
REMARK    5  A    between atoms: C_9  and  N_10 
REMARK       I    between atoms: N_10  and  C_11 
REMARK       I    between atoms: C_11  and  N_12 
REMARK    6  A    between atoms: N_12  and  C_13 
ROOT
HETATM    1  N   UNL     1      23.896  45.414  49.625  1.00  0.00    -0.339 N 
HETATM    2  C   UNL     1      23.954  44.399  50.515  1.00  0.00     0.316 C 
HETATM    3  N   UNL     1      25.066  44.273  51.266  1.00  0.00    -0.338 N 
HETATM    4  O   UNL     1      23.045  43.589  50.672  1.00  0.00    -0.247 OA
HETATM    5  H   UNL     1      24.761  45.853  49.366  1.00  0.00     0.164 HD
HETATM    6  H   UNL     1      24.953  43.496  51.907  1.00  0.00     0.164 HD
ENDROOT
BRANCH   1   7
HETATM    7  C   UNL     1      22.810  45.525  48.680  1.00  0.00     0.164 C 
BRANCH   7   8
HETATM    8  C   UNL     1      22.269  46.923  48.576  1.00  0.00    -0.021 A 
HETATM    9  C   UNL     1      22.923  47.989  49.187  1.00  0.00     0.128 A 
HETATM   10  N   UNL     1      22.473  49.267  49.178  1.00  0.00    -0.235 NA
HETATM   11  C   UNL     1      21.318  49.508  48.512  1.00  0.00     0.186 A 
HETATM   12  C   UNL     1      20.607  48.516  47.840  1.00  0.00     0.087 A 
HETATM   13  C   UNL     1      21.094  47.208  47.873  1.00  0.00     0.038 A 
HETATM   14 CL   UNL     1      19.145  48.840  46.987  1.00  0.00    -0.080 Cl
BRANCH  11  15
HETATM   15  O   UNL     1      20.811  50.793  48.507  1.00  0.00    -0.333 OA
BRANCH  15  16
HETATM   16  C   UNL     1      20.360  51.238  49.789  1.00  0.00     0.181 C 
BRANCH  16  17
HETATM   17  C   UNL     1      18.976  51.888  49.633  1.00  0.00     0.002 C 
HETATM   18  C   UNL     1      17.873  50.858  49.871  1.00  0.00     0.011 C 
HETATM   19  C   UNL     1      18.815  52.525  48.251  1.00  0.00     0.011 C 
ENDBRANCH  16  17
ENDBRANCH  15  16
ENDBRANCH  11  15
ENDBRANCH   7   8
ENDBRANCH   1   7
BRANCH   3  20
HETATM   20  C   UNL     1      26.333  45.008  51.386  1.00  0.00     0.090 C 
HETATM   21  C   UNL     1      26.349  46.099  52.494  1.00  0.00     0.067 C 
HETATM   22  C   UNL     1      27.140  45.688  53.683  1.00  0.00    -0.013 A 
HETATM   23  C   UNL     1      27.893  44.540  53.743  1.00  0.00     0.035 A 
HETATM   24  C   UNL     1      27.325  46.296  54.937  1.00  0.00     0.148 A 
HETATM   25  N   UNL     1      28.480  44.522  54.973  1.00  0.00    -0.282 N 
HETATM   26  C   UNL     1      28.022  43.504  52.693  1.00  0.00     0.061 C 
HETATM   27  H   UNL     1      29.112  43.832  55.367  1.00  0.00     0.189 HD
HETATM   28  N   UNL     1      28.125  45.576  55.729  1.00  0.00    -0.187 NA
HETATM   29  C   UNL     1      27.582  44.091  51.343  1.00  0.00     0.031 C 
ENDBRANCH   3  20
TORSDOF 6
ENDMDL
MODEL 10
REMARK VINA RESULT:      -7.5     12.674     14.072
REMARK  6 active torsions:
REMARK  status: ('A' for Active; 'I' for Inactive)
REMARK    1  A    between atoms: C_2  and  C_3 
REMARK    2  A    between atoms: C_3  and  O_4 
REMARK    3  A    between atoms: O_4  and  C_5 
REMARK    4  A    between atoms: C_8  and  C_9 
REMARK    5  A    between atoms: C_9  and  N_10 
REMARK       I    between atoms: N_10  and  C_11 
REMARK       I    between atoms: C_11  and  N_12 
REMARK    6  A    between atoms: N_12  and  C_13 
ROOT
HETATM    1  N   UNL     1      31.259  51.918  40.228  1.00  0.00    -0.339 N 
HETATM    2  C   UNL     1      31.179  53.004  41.028  1.00  0.00     0.316 C 
HETATM    3  N   UNL     1      31.465  52.853  42.337  1.00  0.00    -0.338 N 
HETATM    4  O   UNL     1      30.860  54.118  40.621  1.00  0.00    -0.247 OA
HETATM    5  H   UNL     1      31.256  51.016  40.669  1.00  0.00     0.164 HD
HETATM    6  H   UNL     1      31.397  53.751  42.801  1.00  0.00     0.164 HD
ENDROOT
BRANCH   1   7
HETATM    7  C   UNL     1      30.823  51.963  38.852  1.00  0.00     0.164 C 
BRANCH   7   8
HETATM    8  C   UNL     1      29.581  51.155  38.607  1.00  0.00    -0.021 A 
HETATM    9  C   UNL     1      28.394  51.769  38.219  1.00  0.00     0.128 A 
HETATM   10  N   UNL     1      27.224  51.115  38.025  1.00  0.00    -0.235 NA
HETATM   11  C   UNL     1      27.232  49.773  38.210  1.00  0.00     0.186 A 
HETATM   12  C   UNL     1      28.375  49.060  38.566  1.00  0.00     0.087 A 
HETATM   13  C   UNL     1      29.564  49.764  38.763  1.00  0.00     0.038 A 
HETATM   14 CL   UNL     1      28.371  47.351  38.786  1.00  0.00    -0.080 Cl
BRANCH  11  15
HETATM   15  O   UNL     1      26.049  49.074  38.053  1.00  0.00    -0.333 OA
BRANCH  15  16
HETATM   16  C   UNL     1      25.096  49.318  39.091  1.00  0.00     0.181 C 
BRANCH  16  17
HETATM   17  C   UNL     1      24.548  47.971  39.591  1.00  0.00     0.002 C 
HETATM   18  C   UNL     1      25.319  47.507  40.826  1.00  0.00     0.011 C 
HETATM   19  C   UNL     1      24.614  46.904  38.496  1.00  0.00     0.011 C 
ENDBRANCH  16  17
ENDBRANCH  15  16
ENDBRANCH  11  15
ENDBRANCH   7   8
ENDBRANCH   1   7
BRANCH   3  20
HETATM   20  C   UNL     1      31.877  51.732  43.193  1.00  0.00     0.090 C 
HETATM   21  C   UNL     1      31.211  50.370  42.845  1.00  0.00     0.067 C 
HETATM   22  C   UNL     1      32.145  49.441  42.160  1.00  0.00    -0.013 A 
HETATM   23  C   UNL     1      33.484  49.693  41.982  1.00  0.00     0.035 A 
HETATM   24  C   UNL     1      31.945  48.178  41.575  1.00  0.00     0.148 A 
HETATM   25  N   UNL     1      34.004  48.611  41.338  1.00  0.00    -0.282 N 
HETATM   26  C   UNL     1      34.221  50.914  42.381  1.00  0.00     0.061 C 
HETATM   27  H   UNL     1      34.962  48.439  41.050  1.00  0.00     0.189 HD
HETATM   28  N   UNL     1      33.073  47.681  41.056  1.00  0.00    -0.187 NA
HETATM   29  C   UNL     1      33.406  51.676  43.438  1.00  0.00     0.031 C 
ENDBRANCH   3  20
TORSDOF 6
ENDMDL
