MODEL 1
REMARK VINA RESULT:     -11.2      0.000      0.000
REMARK  7 active torsions:
REMARK  status: ('A' for Active; 'I' for Inactive)
REMARK    1  A    between atoms: C_2  and  C_3 
REMARK    2  A    between atoms: N_16  and  C_17 
REMARK    3  A    between atoms: C_17  and  C_18 
REMARK       I    between atoms: C_18  and  N_19 
REMARK    4  A    between atoms: N_19  and  C_20 
REMARK    5  A    between atoms: C_21  and  C_22 
REMARK       I    between atoms: C_22  and  N_23 
REMARK    6  A    between atoms: N_23  and  C_24 
REMARK    7  A    between atoms: C_24  and  C_25 
ROOT
HETATM    1  C   UNL     1      24.485  45.046  49.092  1.00  0.00     0.240 C 
ENDROOT
BRANCH   1   2
HETATM    2  N   UNL     1      25.176  44.138  49.973  1.00  0.00    -0.259 N 
HETATM    3  C   UNL     1      24.546  43.453  50.953  1.00  0.00     0.326 C 
HETATM    4  N   UNL     1      25.473  42.960  51.828  1.00  0.00    -0.321 N 
HETATM    5  O   UNL     1      23.342  43.338  51.118  1.00  0.00    -0.247 OA
HETATM    6  C   UNL     1      26.810  43.498  51.616  1.00  0.00     0.140 C 
HETATM    7  H   UNL     1      25.115  42.609  52.704  1.00  0.00     0.165 HD
HETATM    8  C   UNL     1      27.825  42.388  51.353  1.00  0.00     0.055 C 
HETATM    9  C   UNL     1      26.504  44.248  50.275  1.00  0.00     0.261 C 
HETATM   10  O   UNL     1      27.304  44.894  49.609  1.00  0.00    -0.270 OA
BRANCH   6  11
HETATM   11  C   UNL     1      27.259  44.437  52.761  1.00  0.00    -0.010 C 
HETATM   12  C   UNL     1      28.415  44.200  53.586  1.00  0.00    -0.017 A 
HETATM   13  C   UNL     1      28.641  45.050  54.707  1.00  0.00    -0.025 A 
HETATM   14  C   UNL     1      29.386  43.186  53.377  1.00  0.00     0.013 A 
HETATM   15  C   UNL     1      29.705  44.812  55.593  1.00  0.00     0.012 A 
HETATM   16  C   UNL     1      27.817  46.153  54.945  1.00  0.00     0.012 C 
HETATM   17  C   UNL     1      30.593  43.763  55.384  1.00  0.00     0.001 A 
HETATM   18  C   UNL     1      30.444  42.961  54.265  1.00  0.00     0.001 A 
HETATM   19  C   UNL     1      26.774  46.450  54.085  1.00  0.00     0.002 C 
HETATM   20  C   UNL     1      26.505  45.607  53.013  1.00  0.00     0.011 C 
ENDBRANCH   6  11
ENDBRANCH   1   2
BRANCH   1  21
HETATM   21  C   UNL     1      24.216  46.459  49.612  1.00  0.00     0.240 C 
HETATM   22  N   UNL     1      23.639  47.238  48.612  1.00  0.00    -0.325 N 
HETATM   23  H   UNL     1      23.894  46.981  47.666  1.00  0.00     0.169 HD
HETATM   24  O   UNL     1      24.548  46.871  50.718  1.00  0.00    -0.271 OA
BRANCH  22  25
HETATM   25  C   UNL     1      23.107  48.535  48.767  1.00  0.00     0.050 A 
HETATM   26  C   UNL     1      21.755  48.854  48.960  1.00  0.00     0.058 A 
HETATM   27  C   UNL     1      21.351  50.200  49.025  1.00  0.00     0.019 A 
HETATM   28  C   UNL     1      22.283  51.229  48.905  1.00  0.00     0.001 A 
HETATM   29  C   UNL     1      23.621  50.921  48.692  1.00  0.00     0.002 A 
HETATM   30  C   UNL     1      24.027  49.587  48.612  1.00  0.00     0.030 A 
BRANCH  26  31
HETATM   31  C   UNL     1      20.640  47.892  48.839  1.00  0.00     0.254 C 
HETATM   32  N   UNL     1      19.414  48.353  49.246  1.00  0.00    -0.351 N 
HETATM   33  H   UNL     1      19.438  48.990  50.042  1.00  0.00     0.163 HD
HETATM   34  O   UNL     1      20.841  46.810  48.300  1.00  0.00    -0.268 OA
BRANCH  32  35
HETATM   35  C   UNL     1      18.264  47.482  49.172  1.00  0.00     0.187 C 
BRANCH  35  36
HETATM   36  C   UNL     1      17.136  48.218  48.549  1.00  0.00     0.070 A 
HETATM   37  O   UNL     1      17.112  49.572  48.724  1.00  0.00    -0.325 OA
HETATM   38  C   UNL     1      16.008  50.036  48.085  1.00  0.00     0.142 A 
HETATM   39  C   UNL     1      15.318  49.001  47.502  1.00  0.00     0.027 A 
HETATM   40  C   UNL     1      16.043  47.824  47.804  1.00  0.00     0.036 A 
ENDBRANCH  35  36
ENDBRANCH  32  35
ENDBRANCH  26  31
ENDBRANCH  22  25
ENDBRANCH   1  21
TORSDOF 7
ENDMDL
MODEL 2
REMARK VINA RESULT:     -11.1      2.531      3.718
REMARK  7 active torsions:
REMARK  status: ('A' for Active; 'I' for Inactive)
REMARK    1  A    between atoms: C_2  and  C_3 
REMARK    2  A    between atoms: N_16  and  C_17 
REMARK    3  A    between atoms: C_17  and  C_18 
REMARK       I    between atoms: C_18  and  N_19 
REMARK    4  A    between atoms: N_19  and  C_20 
REMARK    5  A    between atoms: C_21  and  C_22 
REMARK       I    between atoms: C_22  and  N_23 
REMARK    6  A    between atoms: N_23  and  C_24 
REMARK    7  A    between atoms: C_24  and  C_25 
ROOT
HETATM    1  C   UNL     1      26.500  47.582  51.499  1.00  0.00     0.240 C 
ENDROOT
BRANCH   1   2
HETATM    2  N   UNL     1      26.202  46.703  52.601  1.00  0.00    -0.259 N 
HETATM    3  C   UNL     1      26.144  47.132  53.881  1.00  0.00     0.326 C 
HETATM    4  N   UNL     1      26.193  46.055  54.722  1.00  0.00    -0.321 N 
HETATM    5  O   UNL     1      26.134  48.288  54.273  1.00  0.00    -0.247 OA
HETATM    6  C   UNL     1      26.536  44.811  54.046  1.00  0.00     0.140 C 
HETATM    7  H   UNL     1      26.362  46.259  55.696  1.00  0.00     0.165 HD
HETATM    8  C   UNL     1      25.457  43.749  54.247  1.00  0.00     0.055 C 
HETATM    9  C   UNL     1      26.456  45.361  52.581  1.00  0.00     0.261 C 
HETATM   10  O   UNL     1      26.648  44.717  51.557  1.00  0.00    -0.270 OA
BRANCH   6  11
HETATM   11  C   UNL     1      27.941  44.293  54.438  1.00  0.00    -0.010 C 
HETATM   12  C   UNL     1      28.708  44.810  55.540  1.00  0.00    -0.017 A 
HETATM   13  C   UNL     1      30.050  44.362  55.710  1.00  0.00    -0.025 A 
HETATM   14  C   UNL     1      28.241  45.735  56.510  1.00  0.00     0.013 A 
HETATM   15  C   UNL     1      30.870  44.897  56.716  1.00  0.00     0.012 A 
HETATM   16  C   UNL     1      30.580  43.365  54.886  1.00  0.00     0.012 C 
HETATM   17  C   UNL     1      30.389  45.853  57.603  1.00  0.00     0.001 A 
HETATM   18  C   UNL     1      29.068  46.259  57.512  1.00  0.00     0.001 A 
HETATM   19  C   UNL     1      29.803  42.783  53.898  1.00  0.00     0.002 C 
HETATM   20  C   UNL     1      28.508  43.239  53.684  1.00  0.00     0.011 C 
ENDBRANCH   6  11
ENDBRANCH   1   2
BRANCH   1  21
HETATM   21  C   UNL     1      25.867  47.251  50.146  1.00  0.00     0.240 C 
HETATM   22  N   UNL     1      24.496  47.055  50.292  1.00  0.00    -0.325 N 
HETATM   23  H   UNL     1      24.206  46.704  51.198  1.00  0.00     0.169 HD
HETATM   24  O   UNL     1      26.492  47.089  49.104  1.00  0.00    -0.271 OA
BRANCH  22  25
HETATM   25  C   UNL     1      23.561  46.893  49.250  1.00  0.00     0.050 A 
HETATM   26  C   UNL     1      22.727  47.893  48.727  1.00  0.00     0.058 A 
HETATM   27  C   UNL     1      21.783  47.574  47.734  1.00  0.00     0.019 A 
HETATM   28  C   UNL     1      21.666  46.272  47.254  1.00  0.00     0.001 A 
HETATM   29  C   UNL     1      22.473  45.272  47.782  1.00  0.00     0.002 A 
HETATM   30  C   UNL     1      23.403  45.577  48.780  1.00  0.00     0.030 A 
BRANCH  26  31
HETATM   31  C   UNL     1      22.557  49.237  49.317  1.00  0.00     0.254 C 
HETATM   32  N   UNL     1      21.273  49.572  49.665  1.00  0.00    -0.351 N 
HETATM   33  H   UNL     1      20.551  49.204  49.044  1.00  0.00     0.163 HD
HETATM   34  O   UNL     1      23.550  49.914  49.557  1.00  0.00    -0.268 OA
BRANCH  32  35
HETATM   35  C   UNL     1      21.006  50.868  50.243  1.00  0.00     0.187 C 
BRANCH  35  36
HETATM   36  C   UNL     1      19.920  51.527  49.476  1.00  0.00     0.070 A 
HETATM   37  O   UNL     1      18.830  51.941  50.185  1.00  0.00    -0.325 OA
HETATM   38  C   UNL     1      17.969  52.504  49.298  1.00  0.00     0.142 A 
HETATM   39  C   UNL     1      18.489  52.457  48.026  1.00  0.00     0.027 A 
HETATM   40  C   UNL     1      19.748  51.822  48.139  1.00  0.00     0.036 A 
ENDBRANCH  35  36
ENDBRANCH  32  35
ENDBRANCH  26  31
ENDBRANCH  22  25
ENDBRANCH   1  21
TORSDOF 7
ENDMDL
MODEL 3
REMARK VINA RESULT:     -10.9      1.411      2.514
REMARK  7 active torsions:
REMARK  status: ('A' for Active; 'I' for Inactive)
REMARK    1  A    between atoms: C_2  and  C_3 
REMARK    2  A    between atoms: N_16  and  C_17 
REMARK    3  A    between atoms: C_17  and  C_18 
REMARK       I    between atoms: C_18  and  N_19 
REMARK    4  A    between atoms: N_19  and  C_20 
REMARK    5  A    between atoms: C_21  and  C_22 
REMARK       I    between atoms: C_22  and  N_23 
REMARK    6  A    between atoms: N_23  and  C_24 
REMARK    7  A    between atoms: C_24  and  C_25 
ROOT
HETATM    1  C   UNL     1      24.228  45.158  50.309  1.00  0.00     0.240 C 
ENDROOT
BRANCH   1   2
HETATM    2  N   UNL     1      25.081  45.678  51.347  1.00  0.00    -0.259 N 
HETATM    3  C   UNL     1      26.215  46.363  51.083  1.00  0.00     0.326 C 
HETATM    4  N   UNL     1      26.981  46.424  52.214  1.00  0.00    -0.321 N 
HETATM    5  O   UNL     1      26.580  46.802  50.004  1.00  0.00    -0.247 OA
HETATM    6  C   UNL     1      26.504  45.554  53.281  1.00  0.00     0.140 C 
HETATM    7  H   UNL     1      27.935  46.729  52.089  1.00  0.00     0.165 HD
HETATM    8  C   UNL     1      26.204  46.341  54.554  1.00  0.00     0.055 C 
HETATM    9  C   UNL     1      25.156  45.138  52.600  1.00  0.00     0.261 C 
HETATM   10  O   UNL     1      24.307  44.393  53.074  1.00  0.00    -0.270 OA
BRANCH   6  11
HETATM   11  C   UNL     1      27.457  44.363  53.544  1.00  0.00    -0.010 C 
HETATM   12  C   UNL     1      28.584  44.421  54.438  1.00  0.00    -0.017 A 
HETATM   13  C   UNL     1      29.479  43.314  54.483  1.00  0.00    -0.025 A 
HETATM   14  C   UNL     1      28.890  45.495  55.314  1.00  0.00     0.013 A 
HETATM   15  C   UNL     1      30.640  43.351  55.273  1.00  0.00     0.012 A 
HETATM   16  C   UNL     1      29.215  42.152  53.752  1.00  0.00     0.012 C 
HETATM   17  C   UNL     1      30.934  44.456  56.065  1.00  0.00     0.001 A 
HETATM   18  C   UNL     1      30.049  45.520  56.100  1.00  0.00     0.001 A 
HETATM   19  C   UNL     1      28.069  42.051  52.982  1.00  0.00     0.002 C 
HETATM   20  C   UNL     1      27.208  43.137  52.885  1.00  0.00     0.011 C 
ENDBRANCH   6  11
ENDBRANCH   1   2
BRANCH   1  21
HETATM   21  C   UNL     1      23.673  46.156  49.291  1.00  0.00     0.240 C 
HETATM   22  N   UNL     1      23.545  47.415  49.872  1.00  0.00    -0.325 N 
HETATM   23  H   UNL     1      23.374  47.412  50.871  1.00  0.00     0.169 HD
HETATM   24  O   UNL     1      23.305  45.866  48.158  1.00  0.00    -0.271 OA
BRANCH  22  25
HETATM   25  C   UNL     1      23.222  48.614  49.204  1.00  0.00     0.050 A 
HETATM   26  C   UNL     1      21.930  49.124  49.002  1.00  0.00     0.058 A 
HETATM   27  C   UNL     1      21.746  50.298  48.250  1.00  0.00     0.019 A 
HETATM   28  C   UNL     1      22.836  50.971  47.702  1.00  0.00     0.001 A 
HETATM   29  C   UNL     1      24.116  50.461  47.879  1.00  0.00     0.002 A 
HETATM   30  C   UNL     1      24.305  49.286  48.612  1.00  0.00     0.030 A 
BRANCH  26  31
HETATM   31  C   UNL     1      20.683  48.386  49.291  1.00  0.00     0.254 C 
HETATM   32  N   UNL     1      19.795  49.027  50.117  1.00  0.00    -0.351 N 
HETATM   33  H   UNL     1      20.224  49.589  50.853  1.00  0.00     0.163 HD
HETATM   34  O   UNL     1      20.466  47.328  48.711  1.00  0.00    -0.268 OA
BRANCH  32  35
HETATM   35  C   UNL     1      18.550  48.381  50.463  1.00  0.00     0.187 C 
BRANCH  35  36
HETATM   36  C   UNL     1      17.577  48.580  49.361  1.00  0.00     0.070 A 
HETATM   37  O   UNL     1      16.885  47.480  48.944  1.00  0.00    -0.325 OA
HETATM   38  C   UNL     1      16.066  47.882  47.938  1.00  0.00     0.142 A 
HETATM   39  C   UNL     1      16.222  49.226  47.698  1.00  0.00     0.027 A 
HETATM   40  C   UNL     1      17.201  49.679  48.615  1.00  0.00     0.036 A 
ENDBRANCH  35  36
ENDBRANCH  32  35
ENDBRANCH  26  31
ENDBRANCH  22  25
ENDBRANCH   1  21
TORSDOF 7
ENDMDL
MODEL 4
REMARK VINA RESULT:     -10.8      2.710      5.254
REMARK  7 active torsions:
REMARK  status: ('A' for Active; 'I' for Inactive)
REMARK    1  A    between atoms: C_2  and  C_3 
REMARK    2  A    between atoms: N_16  and  C_17 
REMARK    3  A    between atoms: C_17  and  C_18 
REMARK       I    between atoms: C_18  and  N_19 
REMARK    4  A    between atoms: N_19  and  C_20 
REMARK    5  A    between atoms: C_21  and  C_22 
REMARK       I    between atoms: C_22  and  N_23 
REMARK    6  A    between atoms: N_23  and  C_24 
REMARK    7  A    between atoms: C_24  and  C_25 
ROOT
HETATM    1  C   UNL     1      24.564  43.114  50.827  1.00  0.00     0.240 C 
ENDROOT
BRANCH   1   2
HETATM    2  N   UNL     1      25.354  44.194  51.363  1.00  0.00    -0.259 N 
HETATM    3  C   UNL     1      26.292  44.840  50.637  1.00  0.00     0.326 C 
HETATM    4  N   UNL     1      27.103  45.553  51.477  1.00  0.00    -0.321 N 
HETATM    5  O   UNL     1      26.478  44.764  49.433  1.00  0.00    -0.247 OA
HETATM    6  C   UNL     1      26.900  45.232  52.883  1.00  0.00     0.140 C 
HETATM    7  H   UNL     1      27.957  45.909  51.074  1.00  0.00     0.165 HD
HETATM    8  C   UNL     1      26.526  46.472  53.692  1.00  0.00     0.055 C 
HETATM    9  C   UNL     1      25.631  44.334  52.694  1.00  0.00     0.261 C 
HETATM   10  O   UNL     1      24.998  43.781  53.584  1.00  0.00    -0.270 OA
BRANCH   6  11
HETATM   11  C   UNL     1      28.104  44.479  53.498  1.00  0.00    -0.010 C 
HETATM   12  C   UNL     1      28.711  44.827  54.756  1.00  0.00    -0.017 A 
HETATM   13  C   UNL     1      29.908  44.162  55.147  1.00  0.00    -0.025 A 
HETATM   14  C   UNL     1      28.210  45.783  55.678  1.00  0.00     0.013 A 
HETATM   15  C   UNL     1      30.588  44.522  56.322  1.00  0.00     0.012 A 
HETATM   16  C   UNL     1      30.430  43.120  54.375  1.00  0.00     0.012 C 
HETATM   17  C   UNL     1      30.094  45.514  57.162  1.00  0.00     0.001 A 
HETATM   18  C   UNL     1      28.895  46.132  56.849  1.00  0.00     0.001 A 
HETATM   19  C   UNL     1      29.783  42.705  53.223  1.00  0.00     0.002 C 
HETATM   20  C   UNL     1      28.640  43.373  52.798  1.00  0.00     0.011 C 
ENDBRANCH   6  11
ENDBRANCH   1   2
BRANCH   1  21
HETATM   21  C   UNL     1      23.253  43.483  50.131  1.00  0.00     0.240 C 
HETATM   22  N   UNL     1      23.503  43.916  48.832  1.00  0.00    -0.325 N 
HETATM   23  H   UNL     1      24.406  44.354  48.691  1.00  0.00     0.169 HD
HETATM   24  O   UNL     1      22.153  43.487  50.672  1.00  0.00    -0.271 OA
BRANCH  22  25
HETATM   25  C   UNL     1      22.536  44.185  47.841  1.00  0.00     0.050 A 
HETATM   26  C   UNL     1      21.952  45.433  47.575  1.00  0.00     0.058 A 
HETATM   27  C   UNL     1      20.941  45.545  46.604  1.00  0.00     0.019 A 
HETATM   28  C   UNL     1      20.512  44.427  45.891  1.00  0.00     0.001 A 
HETATM   29  C   UNL     1      21.070  43.184  46.164  1.00  0.00     0.002 A 
HETATM   30  C   UNL     1      22.064  43.063  47.138  1.00  0.00     0.030 A 
BRANCH  26  31
HETATM   31  C   UNL     1      22.115  46.633  48.422  1.00  0.00     0.254 C 
HETATM   32  N   UNL     1      23.409  46.965  48.735  1.00  0.00    -0.351 N 
HETATM   33  H   UNL     1      24.034  46.169  48.870  1.00  0.00     0.163 HD
HETATM   34  O   UNL     1      21.130  47.307  48.698  1.00  0.00    -0.268 OA
BRANCH  32  35
HETATM   35  C   UNL     1      23.668  48.118  49.564  1.00  0.00     0.187 C 
BRANCH  35  36
HETATM   36  C   UNL     1      24.986  48.694  49.197  1.00  0.00     0.070 A 
HETATM   37  O   UNL     1      26.092  48.070  49.698  1.00  0.00    -0.325 OA
HETATM   38  C   UNL     1      27.174  48.756  49.248  1.00  0.00     0.142 A 
HETATM   39  C   UNL     1      26.781  49.815  48.465  1.00  0.00     0.027 A 
HETATM   40  C   UNL     1      25.367  49.779  48.434  1.00  0.00     0.036 A 
ENDBRANCH  35  36
ENDBRANCH  32  35
ENDBRANCH  26  31
ENDBRANCH  22  25
ENDBRANCH   1  21
TORSDOF 7
ENDMDL
MODEL 5
REMARK VINA RESULT:     -10.8      2.175      3.739
REMARK  7 active torsions:
REMARK  status: ('A' for Active; 'I' for Inactive)
REMARK    1  A    between atoms: C_2  and  C_3 
REMARK    2  A    between atoms: N_16  and  C_17 
REMARK    3  A    between atoms: C_17  and  C_18 
REMARK       I    between atoms: C_18  and  N_19 
REMARK    4  A    between atoms: N_19  and  C_20 
REMARK    5  A    between atoms: C_21  and  C_22 
REMARK       I    between atoms: C_22  and  N_23 
REMARK    6  A    between atoms: N_23  and  C_24 
REMARK    7  A    between atoms: C_24  and  C_25 
ROOT
HETATM    1  C   UNL     1      24.426  43.527  50.465  1.00  0.00     0.240 C 
ENDROOT
BRANCH   1   2
HETATM    2  N   UNL     1      25.188  44.520  51.179  1.00  0.00    -0.259 N 
HETATM    3  C   UNL     1      26.120  45.293  50.580  1.00  0.00     0.326 C 
HETATM    4  N   UNL     1      26.907  45.876  51.534  1.00  0.00    -0.321 N 
HETATM    5  O   UNL     1      26.319  45.416  49.382  1.00  0.00    -0.247 OA
HETATM    6  C   UNL     1      26.696  45.328  52.867  1.00  0.00     0.140 C 
HETATM    7  H   UNL     1      27.757  46.308  51.205  1.00  0.00     0.165 HD
HETATM    8  C   UNL     1      26.288  46.413  53.861  1.00  0.00     0.055 C 
HETATM    9  C   UNL     1      25.448  44.449  52.519  1.00  0.00     0.261 C 
HETATM   10  O   UNL     1      24.818  43.746  53.300  1.00  0.00    -0.270 OA
BRANCH   6  11
HETATM   11  C   UNL     1      27.910  44.508  53.369  1.00  0.00    -0.010 C 
HETATM   12  C   UNL     1      28.628  44.799  54.581  1.00  0.00    -0.017 A 
HETATM   13  C   UNL     1      29.822  44.073  54.861  1.00  0.00    -0.025 A 
HETATM   14  C   UNL     1      28.246  45.754  55.560  1.00  0.00     0.013 A 
HETATM   15  C   UNL     1      30.607  44.374  55.986  1.00  0.00     0.012 A 
HETATM   16  C   UNL     1      30.233  43.028  54.029  1.00  0.00     0.012 C 
HETATM   17  C   UNL     1      30.226  45.366  56.883  1.00  0.00     0.001 A 
HETATM   18  C   UNL     1      29.036  46.043  56.680  1.00  0.00     0.001 A 
HETATM   19  C   UNL     1      29.479  42.670  52.924  1.00  0.00     0.002 C 
HETATM   20  C   UNL     1      28.338  43.397  52.606  1.00  0.00     0.011 C 
ENDBRANCH   6  11
ENDBRANCH   1   2
BRANCH   1  21
HETATM   21  C   UNL     1      23.091  43.967  49.862  1.00  0.00     0.240 C 
HETATM   22  N   UNL     1      23.308  44.728  48.717  1.00  0.00    -0.325 N 
HETATM   23  H   UNL     1      24.177  45.248  48.704  1.00  0.00     0.169 HD
HETATM   24  O   UNL     1      21.994  43.759  50.369  1.00  0.00    -0.271 OA
BRANCH  22  25
HETATM   25  C   UNL     1      22.323  45.168  47.808  1.00  0.00     0.050 A 
HETATM   26  C   UNL     1      21.871  46.488  47.658  1.00  0.00     0.058 A 
HETATM   27  C   UNL     1      20.826  46.777  46.763  1.00  0.00     0.019 A 
HETATM   28  C   UNL     1      20.232  45.765  46.011  1.00  0.00     0.001 A 
HETATM   29  C   UNL     1      20.660  44.452  46.170  1.00  0.00     0.002 A 
HETATM   30  C   UNL     1      21.688  44.156  47.069  1.00  0.00     0.030 A 
BRANCH  26  31
HETATM   31  C   UNL     1      22.217  47.602  48.566  1.00  0.00     0.254 C 
HETATM   32  N   UNL     1      21.277  48.596  48.667  1.00  0.00    -0.351 N 
HETATM   33  H   UNL     1      20.770  48.795  47.804  1.00  0.00     0.163 HD
HETATM   34  O   UNL     1      23.237  47.528  49.240  1.00  0.00    -0.268 OA
BRANCH  32  35
HETATM   35  C   UNL     1      21.529  49.731  49.524  1.00  0.00     0.187 C 
BRANCH  35  36
HETATM   36  C   UNL     1      20.459  50.739  49.322  1.00  0.00     0.070 A 
HETATM   37  O   UNL     1      19.451  50.761  50.242  1.00  0.00    -0.325 OA
HETATM   38  C   UNL     1      18.591  51.742  49.866  1.00  0.00     0.142 A 
HETATM   39  C   UNL     1      19.029  52.352  48.714  1.00  0.00     0.027 A 
HETATM   40  C   UNL     1      20.234  51.702  48.359  1.00  0.00     0.036 A 
ENDBRANCH  35  36
ENDBRANCH  32  35
ENDBRANCH  26  31
ENDBRANCH  22  25
ENDBRANCH   1  21
TORSDOF 7
ENDMDL
MODEL 6
REMARK VINA RESULT:     -10.6      1.968      3.006
REMARK  7 active torsions:
REMARK  status: ('A' for Active; 'I' for Inactive)
REMARK    1  A    between atoms: C_2  and  C_3 
REMARK    2  A    between atoms: N_16  and  C_17 
REMARK    3  A    between atoms: C_17  and  C_18 
REMARK       I    between atoms: C_18  and  N_19 
REMARK    4  A    between atoms: N_19  and  C_20 
REMARK    5  A    between atoms: C_21  and  C_22 
REMARK       I    between atoms: C_22  and  N_23 
REMARK    6  A    between atoms: N_23  and  C_24 
REMARK    7  A    between atoms: C_24  and  C_25 
ROOT
HETATM    1  C   UNL     1      24.314  45.434  48.993  1.00  0.00     0.240 C 
ENDROOT
BRANCH   1   2
HETATM    2  N   UNL     1      24.825  44.333  49.770  1.00  0.00    -0.259 N 
HETATM    3  C   UNL     1      24.062  43.643  50.645  1.00  0.00     0.326 C 
HETATM    4  N   UNL     1      24.869  42.913  51.472  1.00  0.00    -0.321 N 
HETATM    5  O   UNL     1      22.849  43.697  50.771  1.00  0.00    -0.247 OA
HETATM    6  C   UNL     1      26.279  43.259  51.354  1.00  0.00     0.140 C 
HETATM    7  H   UNL     1      24.428  42.520  52.291  1.00  0.00     0.165 HD
HETATM    8  C   UNL     1      27.124  42.044  50.978  1.00  0.00     0.055 C 
HETATM    9  C   UNL     1      26.142  44.200  50.110  1.00  0.00     0.261 C 
HETATM   10  O   UNL     1      27.055  44.788  49.544  1.00  0.00    -0.270 OA
BRANCH   6  11
HETATM   11  C   UNL     1      26.820  43.975  52.615  1.00  0.00    -0.010 C 
HETATM   12  C   UNL     1      28.116  43.722  53.187  1.00  0.00    -0.017 A 
HETATM   13  C   UNL     1      28.444  44.327  54.435  1.00  0.00    -0.025 A 
HETATM   14  C   UNL     1      29.133  42.920  52.607  1.00  0.00     0.013 A 
HETATM   15  C   UNL     1      29.660  44.047  55.079  1.00  0.00     0.012 A 
HETATM   16  C   UNL     1      27.567  45.229  55.043  1.00  0.00     0.012 C 
HETATM   17  C   UNL     1      30.600  43.200  54.503  1.00  0.00     0.001 A 
HETATM   18  C   UNL     1      30.344  42.651  53.257  1.00  0.00     0.001 A 
HETATM   19  C   UNL     1      26.369  45.564  54.435  1.00  0.00     0.002 C 
HETATM   20  C   UNL     1      26.007  44.948  53.242  1.00  0.00     0.011 C 
ENDBRANCH   6  11
ENDBRANCH   1   2
BRANCH   1  21
HETATM   21  C   UNL     1      23.076  45.171  48.134  1.00  0.00     0.240 C 
HETATM   22  N   UNL     1      21.944  45.704  48.745  1.00  0.00    -0.325 N 
HETATM   23  H   UNL     1      21.981  45.744  49.757  1.00  0.00     0.169 HD
HETATM   24  O   UNL     1      23.069  44.503  47.105  1.00  0.00    -0.271 OA
BRANCH  22  25
HETATM   25  C   UNL     1      20.656  45.798  48.180  1.00  0.00     0.050 A 
HETATM   26  C   UNL     1      19.790  46.898  48.277  1.00  0.00     0.058 A 
HETATM   27  C   UNL     1      18.498  46.829  47.727  1.00  0.00     0.019 A 
HETATM   28  C   UNL     1      18.063  45.677  47.074  1.00  0.00     0.001 A 
HETATM   29  C   UNL     1      18.907  44.576  46.991  1.00  0.00     0.002 A 
HETATM   30  C   UNL     1      20.187  44.632  47.550  1.00  0.00     0.030 A 
BRANCH  26  31
HETATM   31  C   UNL     1      20.013  48.066  49.156  1.00  0.00     0.254 C 
HETATM   32  N   UNL     1      18.917  48.492  49.862  1.00  0.00    -0.351 N 
HETATM   33  H   UNL     1      18.028  48.401  49.369  1.00  0.00     0.163 HD
HETATM   34  O   UNL     1      21.149  48.507  49.286  1.00  0.00    -0.268 OA
BRANCH  32  35
HETATM   35  C   UNL     1      19.035  49.631  50.741  1.00  0.00     0.187 C 
BRANCH  35  36
HETATM   36  C   UNL     1      18.665  50.861  49.997  1.00  0.00     0.070 A 
HETATM   37  O   UNL     1      17.419  51.369  50.226  1.00  0.00    -0.325 OA
HETATM   38  C   UNL     1      17.291  52.475  49.448  1.00  0.00     0.142 A 
HETATM   39  C   UNL     1      18.437  52.685  48.718  1.00  0.00     0.027 A 
HETATM   40  C   UNL     1      19.325  51.641  49.069  1.00  0.00     0.036 A 
ENDBRANCH  35  36
ENDBRANCH  32  35
ENDBRANCH  26  31
ENDBRANCH  22  25
ENDBRANCH   1  21
TORSDOF 7
ENDMDL
MODEL 7
REMARK VINA RESULT:     -10.5      1.998      3.477
REMARK  7 active torsions:
REMARK  status: ('A' for Active; 'I' for Inactive)
REMARK    1  A    between atoms: C_2  and  C_3 
REMARK    2  A    between atoms: N_16  and  C_17 
REMARK    3  A    between atoms: C_17  and  C_18 
REMARK       I    between atoms: C_18  and  N_19 
REMARK    4  A    between atoms: N_19  and  C_20 
REMARK    5  A    between atoms: C_21  and  C_22 
REMARK       I    between atoms: C_22  and  N_23 
REMARK    6  A    between atoms: N_23  and  C_24 
REMARK    7  A    between atoms: C_24  and  C_25 
ROOT
HETATM    1  C   UNL     1      24.497  45.357  49.362  1.00  0.00     0.240 C 
ENDROOT
BRANCH   1   2
HETATM    2  N   UNL     1      25.091  44.183  49.950  1.00  0.00    -0.259 N 
HETATM    3  C   UNL     1      24.422  43.379  50.804  1.00  0.00     0.326 C 
HETATM    4  N   UNL     1      25.312  42.573  51.458  1.00  0.00    -0.321 N 
HETATM    5  O   UNL     1      23.226  43.392  51.049  1.00  0.00    -0.247 OA
HETATM    6  C   UNL     1      26.701  42.960  51.250  1.00  0.00     0.140 C 
HETATM    7  H   UNL     1      24.956  42.077  52.262  1.00  0.00     0.165 HD
HETATM    8  C   UNL     1      27.518  41.816  50.653  1.00  0.00     0.055 C 
HETATM    9  C   UNL     1      26.435  44.039  50.145  1.00  0.00     0.261 C 
HETATM   10  O   UNL     1      27.285  44.709  49.571  1.00  0.00    -0.270 OA
BRANCH   6  11
HETATM   11  C   UNL     1      27.353  43.533  52.531  1.00  0.00    -0.010 C 
HETATM   12  C   UNL     1      27.013  44.810  53.102  1.00  0.00    -0.017 A 
HETATM   13  C   UNL     1      27.787  45.301  54.193  1.00  0.00    -0.025 A 
HETATM   14  C   UNL     1      25.942  45.643  52.685  1.00  0.00     0.013 A 
HETATM   15  C   UNL     1      27.553  46.575  54.732  1.00  0.00     0.012 A 
HETATM   16  C   UNL     1      28.793  44.516  54.764  1.00  0.00     0.012 C 
HETATM   17  C   UNL     1      26.534  47.386  54.245  1.00  0.00     0.001 A 
HETATM   18  C   UNL     1      25.716  46.911  53.233  1.00  0.00     0.001 A 
HETATM   19  C   UNL     1      29.044  43.240  54.290  1.00  0.00     0.002 C 
HETATM   20  C   UNL     1      28.333  42.760  53.196  1.00  0.00     0.011 C 
ENDBRANCH   6  11
ENDBRANCH   1   2
BRANCH   1  21
HETATM   21  C   UNL     1      23.331  45.144  48.395  1.00  0.00     0.240 C 
HETATM   22  N   UNL     1      22.149  45.621  48.954  1.00  0.00    -0.325 N 
HETATM   23  H   UNL     1      22.108  45.590  49.966  1.00  0.00     0.169 HD
HETATM   24  O   UNL     1      23.411  44.551  47.325  1.00  0.00    -0.271 OA
BRANCH  22  25
HETATM   25  C   UNL     1      20.905  45.743  48.300  1.00  0.00     0.050 A 
HETATM   26  C   UNL     1      20.083  46.880  48.294  1.00  0.00     0.058 A 
HETATM   27  C   UNL     1      18.828  46.839  47.661  1.00  0.00     0.019 A 
HETATM   28  C   UNL     1      18.387  45.678  47.029  1.00  0.00     0.001 A 
HETATM   29  C   UNL     1      19.186  44.542  47.048  1.00  0.00     0.002 A 
HETATM   30  C   UNL     1      20.428  44.571  47.688  1.00  0.00     0.030 A 
BRANCH  26  31
HETATM   31  C   UNL     1      20.298  48.075  49.138  1.00  0.00     0.254 C 
HETATM   32  N   UNL     1      19.201  48.512  49.834  1.00  0.00    -0.351 N 
HETATM   33  H   UNL     1      18.311  48.398  49.348  1.00  0.00     0.163 HD
HETATM   34  O   UNL     1      21.431  48.529  49.251  1.00  0.00    -0.268 OA
BRANCH  32  35
HETATM   35  C   UNL     1      19.311  49.677  50.680  1.00  0.00     0.187 C 
BRANCH  35  36
HETATM   36  C   UNL     1      18.939  50.882  49.898  1.00  0.00     0.070 A 
HETATM   37  O   UNL     1      17.761  51.490  50.227  1.00  0.00    -0.325 OA
HETATM   38  C   UNL     1      17.616  52.553  49.394  1.00  0.00     0.142 A 
HETATM   39  C   UNL     1      18.683  52.638  48.531  1.00  0.00     0.027 A 
HETATM   40  C   UNL     1      19.537  51.556  48.853  1.00  0.00     0.036 A 
ENDBRANCH  35  36
ENDBRANCH  32  35
ENDBRANCH  26  31
ENDBRANCH  22  25
ENDBRANCH   1  21
TORSDOF 7
ENDMDL
MODEL 8
REMARK VINA RESULT:     -10.4      2.075      3.943
REMARK  7 active torsions:
REMARK  status: ('A' for Active; 'I' for Inactive)
REMARK    1  A    between atoms: C_2  and  C_3 
REMARK    2  A    between atoms: N_16  and  C_17 
REMARK    3  A    between atoms: C_17  and  C_18 
REMARK       I    between atoms: C_18  and  N_19 
REMARK    4  A    between atoms: N_19  and  C_20 
REMARK    5  A    between atoms: C_21  and  C_22 
REMARK       I    between atoms: C_22  and  N_23 
REMARK    6  A    between atoms: N_23  and  C_24 
REMARK    7  A    between atoms: C_24  and  C_25 
ROOT
HETATM    1  C   UNL     1      24.826  43.677  51.195  1.00  0.00     0.240 C 
ENDROOT
BRANCH   1   2
HETATM    2  N   UNL     1      25.312  44.901  51.780  1.00  0.00    -0.259 N 
HETATM    3  C   UNL     1      26.178  45.719  51.144  1.00  0.00     0.326 C 
HETATM    4  N   UNL     1      26.723  46.592  52.045  1.00  0.00    -0.321 N 
HETATM    5  O   UNL     1      26.517  45.670  49.972  1.00  0.00    -0.247 OA
HETATM    6  C   UNL     1      26.424  46.251  53.429  1.00  0.00     0.140 C 
HETATM    7  H   UNL     1      27.529  47.111  51.730  1.00  0.00     0.165 HD
HETATM    8  C   UNL     1      25.713  47.396  54.147  1.00  0.00     0.055 C 
HETATM    9  C   UNL     1      25.394  45.109  53.128  1.00  0.00     0.261 C 
HETATM   10  O   UNL     1      24.786  44.447  53.959  1.00  0.00    -0.270 OA
BRANCH   6  11
HETATM   11  C   UNL     1      27.675  45.767  54.203  1.00  0.00    -0.010 C 
HETATM   12  C   UNL     1      28.456  44.619  53.826  1.00  0.00    -0.017 A 
HETATM   13  C   UNL     1      29.493  44.180  54.700  1.00  0.00    -0.025 A 
HETATM   14  C   UNL     1      28.302  43.870  52.630  1.00  0.00     0.013 A 
HETATM   15  C   UNL     1      30.229  43.017  54.424  1.00  0.00     0.012 A 
HETATM   16  C   UNL     1      29.813  44.907  55.849  1.00  0.00     0.012 C 
HETATM   17  C   UNL     1      29.996  42.276  53.270  1.00  0.00     0.001 A 
HETATM   18  C   UNL     1      29.045  42.714  52.364  1.00  0.00     0.001 A 
HETATM   19  C   UNL     1      29.139  46.078  56.152  1.00  0.00     0.002 C 
HETATM   20  C   UNL     1      28.092  46.498  55.340  1.00  0.00     0.011 C 
ENDBRANCH   6  11
ENDBRANCH   1   2
BRANCH   1  21
HETATM   21  C   UNL     1      23.561  43.762  50.339  1.00  0.00     0.240 C 
HETATM   22  N   UNL     1      23.866  44.267  49.078  1.00  0.00    -0.325 N 
HETATM   23  H   UNL     1      24.660  44.896  49.047  1.00  0.00     0.169 HD
HETATM   24  O   UNL     1      22.430  43.512  50.740  1.00  0.00    -0.271 OA
BRANCH  22  25
HETATM   25  C   UNL     1      22.993  44.337  47.973  1.00  0.00     0.050 A 
HETATM   26  C   UNL     1      22.421  45.504  47.446  1.00  0.00     0.058 A 
HETATM   27  C   UNL     1      21.504  45.422  46.383  1.00  0.00     0.019 A 
HETATM   28  C   UNL     1      21.156  44.188  45.837  1.00  0.00     0.001 A 
HETATM   29  C   UNL     1      21.703  43.025  46.367  1.00  0.00     0.002 A 
HETATM   30  C   UNL     1      22.603  43.099  47.434  1.00  0.00     0.030 A 
BRANCH  26  31
HETATM   31  C   UNL     1      22.489  46.835  48.086  1.00  0.00     0.254 C 
HETATM   32  N   UNL     1      21.529  47.731  47.690  1.00  0.00    -0.351 N 
HETATM   33  H   UNL     1      21.259  47.663  46.708  1.00  0.00     0.163 HD
HETATM   34  O   UNL     1      23.301  47.025  48.984  1.00  0.00    -0.268 OA
BRANCH  32  35
HETATM   35  C   UNL     1      21.519  49.060  48.254  1.00  0.00     0.187 C 
BRANCH  35  36
HETATM   36  C   UNL     1      20.412  49.162  49.237  1.00  0.00     0.070 A 
HETATM   37  O   UNL     1      19.656  48.042  49.431  1.00  0.00    -0.325 OA
HETATM   38  C   UNL     1      18.710  48.355  50.354  1.00  0.00     0.142 A 
HETATM   39  C   UNL     1      18.844  49.663  50.756  1.00  0.00     0.027 A 
HETATM   40  C   UNL     1      19.941  50.187  50.032  1.00  0.00     0.036 A 
ENDBRANCH  35  36
ENDBRANCH  32  35
ENDBRANCH  26  31
ENDBRANCH  22  25
ENDBRANCH   1  21
TORSDOF 7
ENDMDL
MODEL 9
REMARK VINA RESULT:     -10.1      2.462     11.288
REMARK  7 active torsions:
REMARK  status: ('A' for Active; 'I' for Inactive)
REMARK    1  A    between atoms: C_2  and  C_3 
REMARK    2  A    between atoms: N_16  and  C_17 
REMARK    3  A    between atoms: C_17  and  C_18 
REMARK       I    between atoms: C_18  and  N_19 
REMARK    4  A    between atoms: N_19  and  C_20 
REMARK    5  A    between atoms: C_21  and  C_22 
REMARK       I    between atoms: C_22  and  N_23 
REMARK    6  A    between atoms: N_23  and  C_24 
REMARK    7  A    between atoms: C_24  and  C_25 
ROOT
HETATM    1  C   UNL     1      20.741  48.020  49.176  1.00  0.00     0.240 C 
ENDROOT
BRANCH   1   2
HETATM    2  N   UNL     1      19.967  49.232  49.270  1.00  0.00    -0.259 N 
HETATM    3  C   UNL     1      19.071  49.450  50.257  1.00  0.00     0.326 C 
HETATM    4  N   UNL     1      18.256  50.491  49.908  1.00  0.00    -0.321 N 
HETATM    5  O   UNL     1      18.920  48.795  51.276  1.00  0.00    -0.247 OA
HETATM    6  C   UNL     1      18.407  50.899  48.518  1.00  0.00     0.140 C 
HETATM    7  H   UNL     1      17.426  50.612  50.469  1.00  0.00     0.165 HD
HETATM    8  C   UNL     1      18.792  52.372  48.405  1.00  0.00     0.055 C 
HETATM    9  C   UNL     1      19.655  50.010  48.191  1.00  0.00     0.261 C 
HETATM   10  O   UNL     1      20.243  49.958  47.118  1.00  0.00    -0.270 OA
BRANCH   6  11
HETATM   11  C   UNL     1      17.163  50.557  47.663  1.00  0.00    -0.010 C 
HETATM   12  C   UNL     1      16.790  51.268  46.469  1.00  0.00    -0.017 A 
HETATM   13  C   UNL     1      15.542  50.964  45.852  1.00  0.00    -0.025 A 
HETATM   14  C   UNL     1      17.572  52.258  45.818  1.00  0.00     0.013 A 
HETATM   15  C   UNL     1      15.091  51.685  44.735  1.00  0.00     0.012 A 
HETATM   16  C   UNL     1      14.741  49.926  46.335  1.00  0.00     0.012 C 
HETATM   17  C   UNL     1      15.863  52.695  44.172  1.00  0.00     0.001 A 
HETATM   18  C   UNL     1      17.113  52.968  44.703  1.00  0.00     0.001 A 
HETATM   19  C   UNL     1      15.153  49.164  47.415  1.00  0.00     0.002 C 
HETATM   20  C   UNL     1      16.344  49.474  48.062  1.00  0.00     0.011 C 
ENDBRANCH   6  11
ENDBRANCH   1   2
BRANCH   1  21
HETATM   21  C   UNL     1      22.124  48.120  48.528  1.00  0.00     0.240 C 
HETATM   22  N   UNL     1      23.045  48.631  49.438  1.00  0.00    -0.325 N 
HETATM   23  H   UNL     1      22.659  49.255  50.136  1.00  0.00     0.169 HD
HETATM   24  O   UNL     1      22.362  47.874  47.351  1.00  0.00    -0.271 OA
BRANCH  22  25
HETATM   25  C   UNL     1      24.441  48.715  49.254  1.00  0.00     0.050 A 
HETATM   26  C   UNL     1      25.400  47.861  49.821  1.00  0.00     0.058 A 
HETATM   27  C   UNL     1      26.770  48.105  49.615  1.00  0.00     0.019 A 
HETATM   28  C   UNL     1      27.192  49.186  48.844  1.00  0.00     0.001 A 
HETATM   29  C   UNL     1      26.250  50.048  48.297  1.00  0.00     0.002 A 
HETATM   30  C   UNL     1      24.887  49.821  48.511  1.00  0.00     0.030 A 
BRANCH  26  31
HETATM   31  C   UNL     1      25.114  46.851  50.861  1.00  0.00     0.254 C 
HETATM   32  N   UNL     1      25.788  47.013  52.044  1.00  0.00    -0.351 N 
HETATM   33  H   UNL     1      26.737  47.377  51.950  1.00  0.00     0.163 HD
HETATM   34  O   UNL     1      24.240  46.016  50.658  1.00  0.00    -0.268 OA
BRANCH  32  35
HETATM   35  C   UNL     1      25.580  46.071  53.119  1.00  0.00     0.187 C 
BRANCH  35  36
HETATM   36  C   UNL     1      26.829  45.301  53.339  1.00  0.00     0.070 A 
HETATM   37  O   UNL     1      27.564  45.624  54.444  1.00  0.00    -0.325 OA
HETATM   38  C   UNL     1      28.653  44.812  54.448  1.00  0.00     0.142 A 
HETATM   39  C   UNL     1      28.632  43.972  53.360  1.00  0.00     0.027 A 
HETATM   40  C   UNL     1      27.455  44.289  52.640  1.00  0.00     0.036 A 
ENDBRANCH  35  36
ENDBRANCH  32  35
ENDBRANCH  26  31
ENDBRANCH  22  25
ENDBRANCH   1  21
TORSDOF 7
ENDMDL
MODEL 10
REMARK VINA RESULT:     -10.0      2.422      4.818
REMARK  7 active torsions:
REMARK  status: ('A' for Active; 'I' for Inactive)
REMARK    1  A    between atoms: C_2  and  C_3 
REMARK    2  A    between atoms: N_16  and  C_17 
REMARK    3  A    between atoms: C_17  and  C_18 
REMARK       I    between atoms: C_18  and  N_19 
REMARK    4  A    between atoms: N_19  and  C_20 
REMARK    5  A    between atoms: C_21  and  C_22 
REMARK       I    between atoms: C_22  and  N_23 
REMARK    6  A    between atoms: N_23  and  C_24 
REMARK    7  A    between atoms: C_24  and  C_25 
ROOT
HETATM    1  C   UNL     1      24.559  44.828  49.494  1.00  0.00     0.240 C 
ENDROOT
BRANCH   1   2
HETATM    2  N   UNL     1      25.135  45.316  50.722  1.00  0.00    -0.259 N 
HETATM    3  C   UNL     1      26.103  46.258  50.749  1.00  0.00     0.326 C 
HETATM    4  N   UNL     1      26.690  46.269  51.984  1.00  0.00    -0.321 N 
HETATM    5  O   UNL     1      26.485  46.952  49.821  1.00  0.00    -0.247 OA
HETATM    6  C   UNL     1      26.301  45.139  52.817  1.00  0.00     0.140 C 
HETATM    7  H   UNL     1      27.555  46.783  52.061  1.00  0.00     0.165 HD
HETATM    8  C   UNL     1      25.673  45.601  54.130  1.00  0.00     0.055 C 
HETATM    9  C   UNL     1      25.179  44.583  51.874  1.00  0.00     0.261 C 
HETATM   10  O   UNL     1      24.475  43.604  52.089  1.00  0.00    -0.270 OA
BRANCH   6  11
HETATM   11  C   UNL     1      27.464  44.145  53.047  1.00  0.00    -0.010 C 
HETATM   12  C   UNL     1      28.462  44.301  54.073  1.00  0.00    -0.017 A 
HETATM   13  C   UNL     1      29.571  43.408  54.091  1.00  0.00    -0.025 A 
HETATM   14  C   UNL     1      28.439  45.275  55.106  1.00  0.00     0.013 A 
HETATM   15  C   UNL     1      30.615  43.568  55.017  1.00  0.00     0.012 A 
HETATM   16  C   UNL     1      29.641  42.337  53.196  1.00  0.00     0.012 C 
HETATM   17  C   UNL     1      30.583  44.580  55.969  1.00  0.00     0.001 A 
HETATM   18  C   UNL     1      29.485  45.422  56.025  1.00  0.00     0.001 A 
HETATM   19  C   UNL     1      28.623  42.117  52.284  1.00  0.00     0.002 C 
HETATM   20  C   UNL     1      27.555  43.004  52.216  1.00  0.00     0.011 C 
ENDBRANCH   6  11
ENDBRANCH   1   2
BRANCH   1  21
HETATM   21  C   UNL     1      23.108  45.213  49.198  1.00  0.00     0.240 C 
HETATM   22  N   UNL     1      23.045  46.520  48.723  1.00  0.00    -0.325 N 
HETATM   23  H   UNL     1      23.777  47.135  49.058  1.00  0.00     0.169 HD
HETATM   24  O   UNL     1      22.136  44.505  49.437  1.00  0.00    -0.271 OA
BRANCH  22  25
HETATM   25  C   UNL     1      21.905  47.162  48.197  1.00  0.00     0.050 A 
HETATM   26  C   UNL     1      21.127  46.711  47.120  1.00  0.00     0.058 A 
HETATM   27  C   UNL     1      20.057  47.492  46.648  1.00  0.00     0.019 A 
HETATM   28  C   UNL     1      19.750  48.714  47.244  1.00  0.00     0.001 A 
HETATM   29  C   UNL     1      20.529  49.177  48.297  1.00  0.00     0.002 A 
HETATM   30  C   UNL     1      21.603  48.414  48.761  1.00  0.00     0.030 A 
BRANCH  26  31
HETATM   31  C   UNL     1      21.492  45.585  46.235  1.00  0.00     0.254 C 
HETATM   32  N   UNL     1      20.983  44.363  46.593  1.00  0.00    -0.351 N 
HETATM   33  H   UNL     1      20.915  44.206  47.599  1.00  0.00     0.163 HD
HETATM   34  O   UNL     1      22.117  45.812  45.206  1.00  0.00    -0.268 OA
BRANCH  32  35
HETATM   35  C   UNL     1      21.291  43.200  45.794  1.00  0.00     0.187 C 
BRANCH  35  36
HETATM   36  C   UNL     1      22.359  42.419  46.464  1.00  0.00     0.070 A 
HETATM   37  O   UNL     1      22.000  41.710  47.574  1.00  0.00    -0.325 OA
HETATM   38  C   UNL     1      23.117  41.082  48.024  1.00  0.00     0.142 A 
HETATM   39  C   UNL     1      24.193  41.379  47.222  1.00  0.00     0.027 A 
HETATM   40  C   UNL     1      23.706  42.246  46.215  1.00  0.00     0.036 A 
ENDBRANCH  35  36
ENDBRANCH  32  35
ENDBRANCH  26  31
ENDBRANCH  22  25
ENDBRANCH   1  21
TORSDOF 7
ENDMDL
