MODEL 1
REMARK VINA RESULT:     -10.7      0.000      0.000
REMARK  7 active torsions:
REMARK  status: ('A' for Active; 'I' for Inactive)
REMARK    1  A    between atoms: C_5  and  C_6 
REMARK       I    between atoms: C_6  and  N_7 
REMARK    2  A    between atoms: N_7  and  C_8 
REMARK    3  A    between atoms: C_8  and  C_9 
REMARK    4  A    between atoms: C_9  and  C_10 
REMARK    5  A    between atoms: N_15  and  C_17 
REMARK    6  A    between atoms: C_17  and  C_18 
REMARK    7  A    between atoms: C_21  and  C_22 
ROOT
HETATM    1  C   UNL     1      24.284  49.907  48.064  1.00  0.00     0.131 A 
HETATM    2  N   UNL     1      24.832  48.875  48.794  1.00  0.00    -0.319 N 
HETATM    3  C   UNL     1      26.194  48.992  48.652  1.00  0.00     0.131 A 
HETATM    4  C   UNL     1      27.237  48.153  49.304  1.00  0.00     0.108 C 
HETATM    5  C   UNL     1      26.929  47.893  50.773  1.00  0.00     0.243 C 
HETATM    6  N   UNL     1      25.920  46.761  50.968  1.00  0.00    -0.065 N 
HETATM    7  H   UNL     1      26.481  45.898  50.919  1.00  0.00     0.280 HD
HETATM    8  C   UNL     1      24.854  46.616  49.896  1.00  0.00     0.255 C 
HETATM    9  C   UNL     1      24.103  47.912  49.589  1.00  0.00     0.159 C 
HETATM   10  N   UNL     1      26.447  50.002  47.854  1.00  0.00    -0.135 NA
HETATM   11  N   UNL     1      25.263  50.574  47.494  1.00  0.00    -0.135 NA
ENDROOT
BRANCH   1  12
HETATM   12  C   UNL     1      22.832  50.249  47.966  1.00  0.00     0.100 C 
BRANCH  12  13
HETATM   13  C   UNL     1      22.373  51.079  49.172  1.00  0.00     0.130 C 
BRANCH  13  14
HETATM   14  N   UNL     1      21.090  50.663  49.726  1.00  0.00    -0.360 N 
HETATM   15  C   UNL     1      19.910  51.278  49.393  1.00  0.00     0.223 C 
HETATM   16  O   UNL     1      19.777  52.047  48.443  1.00  0.00    -0.273 OA
HETATM   17  H   UNL     1      21.138  50.122  50.584  1.00  0.00     0.162 HD
BRANCH  15  18
HETATM   18  C   UNL     1      18.715  50.863  50.241  1.00  0.00     0.103 C 
HETATM   19  C   UNL     1      17.418  51.168  49.488  1.00  0.00     0.248 C 
HETATM   20  N   UNL     1      17.259  50.241  48.302  1.00  0.00    -0.074 N 
HETATM   21  C   UNL     1      16.069  50.601  47.459  1.00  0.00     0.269 C 
HETATM   22  H   UNL     1      18.095  50.413  47.710  1.00  0.00     0.279 HD
HETATM   23  C   UNL     1      17.255  48.790  48.700  1.00  0.00     0.234 C 
HETATM   24  C   UNL     1      18.551  48.458  49.428  1.00  0.00     0.029 C 
HETATM   25  C   UNL     1      18.806  49.382  50.620  1.00  0.00     0.017 C 
ENDBRANCH  15  18
ENDBRANCH  13  14
ENDBRANCH  12  13
ENDBRANCH   1  12
BRANCH   6  26
HETATM   26  C   UNL     1      25.341  46.748  52.378  1.00  0.00     0.273 C 
BRANCH  26  27
HETATM   27  C   UNL     1      26.368  46.462  53.437  1.00  0.00    -0.033 A 
HETATM   28  C   UNL     1      26.906  45.178  53.578  1.00  0.00     0.010 A 
HETATM   29  C   UNL     1      27.841  44.908  54.582  1.00  0.00     0.015 A 
HETATM   30  C   UNL     1      28.266  45.909  55.466  1.00  0.00    -0.002 A 
HETATM   31  C   UNL     1      27.729  47.194  55.315  1.00  0.00     0.015 A 
HETATM   32  C   UNL     1      26.788  47.470  54.316  1.00  0.00     0.010 A 
BRANCH  30  33
HETATM   33  C   UNL     1      29.248  45.626  56.510  1.00  0.00     0.085 A 
HETATM   34  O   UNL     1      30.213  44.709  56.196  1.00  0.00    -0.322 OA
HETATM   35  C   UNL     1      31.022  44.580  57.277  1.00  0.00     0.142 A 
HETATM   36  C   UNL     1      30.596  45.399  58.293  1.00  0.00     0.027 A 
HETATM   37  C   UNL     1      29.451  46.075  57.802  1.00  0.00     0.040 A 
ENDBRANCH  30  33
ENDBRANCH  26  27
ENDBRANCH   6  26
TORSDOF 7
ENDMDL
MODEL 2
REMARK VINA RESULT:     -10.2      1.739      2.373
REMARK  7 active torsions:
REMARK  status: ('A' for Active; 'I' for Inactive)
REMARK    1  A    between atoms: C_5  and  C_6 
REMARK       I    between atoms: C_6  and  N_7 
REMARK    2  A    between atoms: N_7  and  C_8 
REMARK    3  A    between atoms: C_8  and  C_9 
REMARK    4  A    between atoms: C_9  and  C_10 
REMARK    5  A    between atoms: N_15  and  C_17 
REMARK    6  A    between atoms: C_17  and  C_18 
REMARK    7  A    between atoms: C_21  and  C_22 
ROOT
HETATM    1  C   UNL     1      22.786  47.811  48.424  1.00  0.00     0.131 A 
HETATM    2  N   UNL     1      23.896  47.233  49.001  1.00  0.00    -0.319 N 
HETATM    3  C   UNL     1      24.810  48.246  49.163  1.00  0.00     0.131 A 
HETATM    4  C   UNL     1      26.149  48.149  49.806  1.00  0.00     0.108 C 
HETATM    5  C   UNL     1      26.111  47.329  51.089  1.00  0.00     0.243 C 
HETATM    6  N   UNL     1      26.148  45.823  50.823  1.00  0.00    -0.065 N 
HETATM    7  H   UNL     1      27.147  45.603  50.696  1.00  0.00     0.280 HD
HETATM    8  C   UNL     1      25.461  45.346  49.555  1.00  0.00     0.255 C 
HETATM    9  C   UNL     1      24.026  45.849  49.400  1.00  0.00     0.159 C 
HETATM   10  N   UNL     1      24.300  49.353  48.676  1.00  0.00    -0.135 NA
HETATM   11  N   UNL     1      23.043  49.085  48.224  1.00  0.00    -0.135 NA
ENDROOT
BRANCH   1  12
HETATM   12  C   UNL     1      21.491  47.131  48.118  1.00  0.00     0.100 C 
BRANCH  12  13
HETATM   13  C   UNL     1      20.330  47.768  48.892  1.00  0.00     0.130 C 
BRANCH  13  14
HETATM   14  N   UNL     1      20.158  49.194  48.639  1.00  0.00    -0.360 N 
HETATM   15  C   UNL     1      19.145  49.685  47.855  1.00  0.00     0.223 C 
HETATM   16  O   UNL     1      18.166  49.030  47.502  1.00  0.00    -0.273 OA
HETATM   17  H   UNL     1      20.978  49.770  48.801  1.00  0.00     0.162 HD
BRANCH  15  18
HETATM   18  C   UNL     1      19.262  51.166  47.517  1.00  0.00     0.103 C 
HETATM   19  C   UNL     1      17.920  51.683  46.996  1.00  0.00     0.248 C 
HETATM   20  N   UNL     1      16.896  51.727  48.110  1.00  0.00    -0.074 N 
HETATM   21  C   UNL     1      15.530  52.098  47.607  1.00  0.00     0.269 C 
HETATM   22  H   UNL     1      16.823  50.749  48.449  1.00  0.00     0.279 HD
HETATM   23  C   UNL     1      17.332  52.593  49.261  1.00  0.00     0.234 C 
HETATM   24  C   UNL     1      18.654  52.078  49.814  1.00  0.00     0.029 C 
HETATM   25  C   UNL     1      19.734  51.965  48.737  1.00  0.00     0.017 C 
ENDBRANCH  15  18
ENDBRANCH  13  14
ENDBRANCH  12  13
ENDBRANCH   1  12
BRANCH   6  26
HETATM   26  C   UNL     1      25.743  45.015  52.050  1.00  0.00     0.273 C 
BRANCH  26  27
HETATM   27  C   UNL     1      26.869  44.814  53.024  1.00  0.00    -0.033 A 
HETATM   28  C   UNL     1      27.890  43.897  52.751  1.00  0.00     0.010 A 
HETATM   29  C   UNL     1      28.922  43.691  53.672  1.00  0.00     0.015 A 
HETATM   30  C   UNL     1      28.966  44.396  54.882  1.00  0.00    -0.002 A 
HETATM   31  C   UNL     1      27.944  45.317  55.147  1.00  0.00     0.015 A 
HETATM   32  C   UNL     1      26.905  45.524  54.232  1.00  0.00     0.010 A 
BRANCH  30  33
HETATM   33  C   UNL     1      30.049  44.184  55.840  1.00  0.00     0.085 A 
HETATM   34  O   UNL     1      30.132  45.089  56.863  1.00  0.00    -0.322 OA
HETATM   35  C   UNL     1      31.187  44.733  57.638  1.00  0.00     0.142 A 
HETATM   36  C   UNL     1      31.794  43.610  57.133  1.00  0.00     0.027 A 
HETATM   37  C   UNL     1      31.063  43.254  55.972  1.00  0.00     0.040 A 
ENDBRANCH  30  33
ENDBRANCH  26  27
ENDBRANCH   6  26
TORSDOF 7
ENDMDL
MODEL 3
REMARK VINA RESULT:      -9.7      2.381      3.411
REMARK  7 active torsions:
REMARK  status: ('A' for Active; 'I' for Inactive)
REMARK    1  A    between atoms: C_5  and  C_6 
REMARK       I    between atoms: C_6  and  N_7 
REMARK    2  A    between atoms: N_7  and  C_8 
REMARK    3  A    between atoms: C_8  and  C_9 
REMARK    4  A    between atoms: C_9  and  C_10 
REMARK    5  A    between atoms: N_15  and  C_17 
REMARK    6  A    between atoms: C_17  and  C_18 
REMARK    7  A    between atoms: C_21  and  C_22 
ROOT
HETATM    1  C   UNL     1      22.565  46.141  48.578  1.00  0.00     0.131 A 
HETATM    2  N   UNL     1      23.290  45.439  49.516  1.00  0.00    -0.319 N 
HETATM    3  C   UNL     1      22.725  44.188  49.575  1.00  0.00     0.131 A 
HETATM    4  C   UNL     1      23.189  43.034  50.392  1.00  0.00     0.108 C 
HETATM    5  C   UNL     1      24.703  42.874  50.351  1.00  0.00     0.243 C 
HETATM    6  N   UNL     1      25.418  43.821  51.314  1.00  0.00    -0.065 N 
HETATM    7  H   UNL     1      25.379  43.346  52.228  1.00  0.00     0.280 HD
HETATM    8  C   UNL     1      24.769  45.177  51.532  1.00  0.00     0.255 C 
HETATM    9  C   UNL     1      24.445  45.925  50.238  1.00  0.00     0.159 C 
HETATM   10  N   UNL     1      21.700  44.152  48.755  1.00  0.00    -0.135 NA
HETATM   11  N   UNL     1      21.604  45.361  48.133  1.00  0.00    -0.135 NA
ENDROOT
BRANCH   1  12
HETATM   12  C   UNL     1      22.840  47.531  48.104  1.00  0.00     0.100 C 
BRANCH  12  13
HETATM   13  C   UNL     1      22.490  48.567  49.180  1.00  0.00     0.130 C 
BRANCH  13  14
HETATM   14  N   UNL     1      21.088  48.558  49.579  1.00  0.00    -0.360 N 
HETATM   15  C   UNL     1      20.355  49.709  49.723  1.00  0.00     0.223 C 
HETATM   16  O   UNL     1      20.712  50.809  49.307  1.00  0.00    -0.273 OA
HETATM   17  H   UNL     1      20.768  47.711  50.040  1.00  0.00     0.162 HD
BRANCH  15  18
HETATM   18  C   UNL     1      18.988  49.518  50.366  1.00  0.00     0.103 C 
HETATM   19  C   UNL     1      18.060  50.663  49.953  1.00  0.00     0.248 C 
HETATM   20  N   UNL     1      17.701  50.556  48.487  1.00  0.00    -0.074 N 
HETATM   21  C   UNL     1      16.904  51.738  48.013  1.00  0.00     0.269 C 
HETATM   22  H   UNL     1      18.607  50.597  47.983  1.00  0.00     0.279 HD
HETATM   23  C   UNL     1      17.034  49.250  48.150  1.00  0.00     0.234 C 
HETATM   24  C   UNL     1      17.953  48.096  48.527  1.00  0.00     0.029 C 
HETATM   25  C   UNL     1      18.396  48.156  49.990  1.00  0.00     0.017 C 
ENDBRANCH  15  18
ENDBRANCH  13  14
ENDBRANCH  12  13
ENDBRANCH   1  12
BRANCH   6  26
HETATM   26  C   UNL     1      26.909  43.925  51.014  1.00  0.00     0.273 C 
BRANCH  26  27
HETATM   27  C   UNL     1      27.763  43.926  52.249  1.00  0.00    -0.033 A 
HETATM   28  C   UNL     1      27.432  44.735  53.342  1.00  0.00     0.010 A 
HETATM   29  C   UNL     1      28.245  44.755  54.480  1.00  0.00     0.015 A 
HETATM   30  C   UNL     1      29.401  43.968  54.560  1.00  0.00    -0.002 A 
HETATM   31  C   UNL     1      29.723  43.156  53.465  1.00  0.00     0.015 A 
HETATM   32  C   UNL     1      28.918  43.135  52.320  1.00  0.00     0.010 A 
BRANCH  30  33
HETATM   33  C   UNL     1      30.245  43.985  55.752  1.00  0.00     0.085 A 
HETATM   34  O   UNL     1      30.070  45.047  56.597  1.00  0.00    -0.322 OA
HETATM   35  C   UNL     1      30.932  44.890  57.633  1.00  0.00     0.142 A 
HETATM   36  C   UNL     1      31.667  43.742  57.474  1.00  0.00     0.027 A 
HETATM   37  C   UNL     1      31.227  43.157  56.261  1.00  0.00     0.040 A 
ENDBRANCH  30  33
ENDBRANCH  26  27
ENDBRANCH   6  26
TORSDOF 7
ENDMDL
MODEL 4
REMARK VINA RESULT:      -9.4      1.796      2.579
REMARK  7 active torsions:
REMARK  status: ('A' for Active; 'I' for Inactive)
REMARK    1  A    between atoms: C_5  and  C_6 
REMARK       I    between atoms: C_6  and  N_7 
REMARK    2  A    between atoms: N_7  and  C_8 
REMARK    3  A    between atoms: C_8  and  C_9 
REMARK    4  A    between atoms: C_9  and  C_10 
REMARK    5  A    between atoms: N_15  and  C_17 
REMARK    6  A    between atoms: C_17  and  C_18 
REMARK    7  A    between atoms: C_21  and  C_22 
ROOT
HETATM    1  C   UNL     1      22.871  49.173  48.050  1.00  0.00     0.131 A 
HETATM    2  N   UNL     1      23.804  48.367  48.666  1.00  0.00    -0.319 N 
HETATM    3  C   UNL     1      25.024  48.962  48.446  1.00  0.00     0.131 A 
HETATM    4  C   UNL     1      26.344  48.514  48.965  1.00  0.00     0.108 C 
HETATM    5  C   UNL     1      26.274  48.093  50.427  1.00  0.00     0.243 C 
HETATM    6  N   UNL     1      25.741  46.671  50.603  1.00  0.00    -0.065 N 
HETATM    7  H   UNL     1      26.560  46.063  50.454  1.00  0.00     0.280 HD
HETATM    8  C   UNL     1      24.704  46.211  49.593  1.00  0.00     0.255 C 
HETATM    9  C   UNL     1      23.526  47.172  49.432  1.00  0.00     0.159 C 
HETATM   10  N   UNL     1      24.841  50.033  47.711  1.00  0.00    -0.135 NA
HETATM   11  N   UNL     1      23.506  50.168  47.470  1.00  0.00    -0.135 NA
ENDROOT
BRANCH   1  12
HETATM   12  C   UNL     1      21.389  48.986  48.071  1.00  0.00     0.100 C 
BRANCH  12  13
HETATM   13  C   UNL     1      20.659  50.333  48.165  1.00  0.00     0.130 C 
BRANCH  13  14
HETATM   14  N   UNL     1      19.775  50.610  47.040  1.00  0.00    -0.360 N 
HETATM   15  C   UNL     1      18.634  49.885  46.804  1.00  0.00     0.223 C 
HETATM   16  O   UNL     1      18.121  49.122  47.620  1.00  0.00    -0.273 OA
HETATM   17  H   UNL     1      20.188  51.139  46.278  1.00  0.00     0.162 HD
BRANCH  15  18
HETATM   18  C   UNL     1      17.968  50.164  45.463  1.00  0.00     0.103 C 
HETATM   19  C   UNL     1      16.719  49.293  45.318  1.00  0.00     0.248 C 
HETATM   20  N   UNL     1      15.636  49.749  46.272  1.00  0.00    -0.074 N 
HETATM   21  C   UNL     1      14.446  48.832  46.255  1.00  0.00     0.269 C 
HETATM   22  H   UNL     1      16.055  49.662  47.218  1.00  0.00     0.279 HD
HETATM   23  C   UNL     1      15.247  51.187  46.060  1.00  0.00     0.234 C 
HETATM   24  C   UNL     1      16.473  52.076  46.228  1.00  0.00     0.029 C 
HETATM   25  C   UNL     1      17.631  51.653  45.323  1.00  0.00     0.017 C 
ENDBRANCH  15  18
ENDBRANCH  13  14
ENDBRANCH  12  13
ENDBRANCH   1  12
BRANCH   6  26
HETATM   26  C   UNL     1      25.327  46.388  52.042  1.00  0.00     0.273 C 
BRANCH  26  27
HETATM   27  C   UNL     1      26.455  45.885  52.895  1.00  0.00    -0.033 A 
HETATM   28  C   UNL     1      27.065  44.656  52.616  1.00  0.00     0.010 A 
HETATM   29  C   UNL     1      28.097  44.176  53.429  1.00  0.00     0.015 A 
HETATM   30  C   UNL     1      28.550  44.909  54.534  1.00  0.00    -0.002 A 
HETATM   31  C   UNL     1      27.941  46.141  54.804  1.00  0.00     0.015 A 
HETATM   32  C   UNL     1      26.903  46.625  53.998  1.00  0.00     0.010 A 
BRANCH  30  33
HETATM   33  C   UNL     1      29.633  44.409  55.377  1.00  0.00     0.085 A 
HETATM   34  O   UNL     1      29.968  45.189  56.450  1.00  0.00    -0.322 OA
HETATM   35  C   UNL     1      30.982  44.569  57.105  1.00  0.00     0.142 A 
HETATM   36  C   UNL     1      31.314  43.397  56.472  1.00  0.00     0.027 A 
HETATM   37  C   UNL     1      30.447  43.292  55.356  1.00  0.00     0.040 A 
ENDBRANCH  30  33
ENDBRANCH  26  27
ENDBRANCH   6  26
TORSDOF 7
ENDMDL
MODEL 5
REMARK VINA RESULT:      -9.3      2.643      3.385
REMARK  7 active torsions:
REMARK  status: ('A' for Active; 'I' for Inactive)
REMARK    1  A    between atoms: C_5  and  C_6 
REMARK       I    between atoms: C_6  and  N_7 
REMARK    2  A    between atoms: N_7  and  C_8 
REMARK    3  A    between atoms: C_8  and  C_9 
REMARK    4  A    between atoms: C_9  and  C_10 
REMARK    5  A    between atoms: N_15  and  C_17 
REMARK    6  A    between atoms: C_17  and  C_18 
REMARK    7  A    between atoms: C_21  and  C_22 
ROOT
HETATM    1  C   UNL     1      23.952  49.876  48.297  1.00  0.00     0.131 A 
HETATM    2  N   UNL     1      24.595  48.881  49.001  1.00  0.00    -0.319 N 
HETATM    3  C   UNL     1      25.925  48.981  48.670  1.00  0.00     0.131 A 
HETATM    4  C   UNL     1      27.047  48.172  49.218  1.00  0.00     0.108 C 
HETATM    5  C   UNL     1      26.942  47.993  50.727  1.00  0.00     0.243 C 
HETATM    6  N   UNL     1      25.969  46.879  51.119  1.00  0.00    -0.065 N 
HETATM    7  H   UNL     1      26.519  46.011  51.041  1.00  0.00     0.280 HD
HETATM    8  C   UNL     1      24.768  46.684  50.210  1.00  0.00     0.255 C 
HETATM    9  C   UNL     1      23.981  47.966  49.938  1.00  0.00     0.159 C 
HETATM   10  N   UNL     1      26.067  49.946  47.792  1.00  0.00    -0.135 NA
HETATM   11  N   UNL     1      24.845  50.505  47.565  1.00  0.00    -0.135 NA
ENDROOT
BRANCH   1  12
HETATM   12  C   UNL     1      22.500  50.221  48.378  1.00  0.00     0.100 C 
BRANCH  12  13
HETATM   13  C   UNL     1      21.665  49.340  47.440  1.00  0.00     0.130 C 
BRANCH  13  14
HETATM   14  N   UNL     1      21.392  48.007  47.964  1.00  0.00    -0.360 N 
HETATM   15  C   UNL     1      20.474  47.164  47.389  1.00  0.00     0.223 C 
HETATM   16  O   UNL     1      19.986  47.334  46.274  1.00  0.00    -0.273 OA
HETATM   17  H   UNL     1      21.669  47.849  48.928  1.00  0.00     0.162 HD
BRANCH  15  18
HETATM   18  C   UNL     1      20.158  45.917  48.204  1.00  0.00     0.103 C 
HETATM   19  C   UNL     1      19.219  45.007  47.409  1.00  0.00     0.248 C 
HETATM   20  N   UNL     1      19.940  44.398  46.226  1.00  0.00    -0.074 N 
HETATM   21  C   UNL     1      19.014  43.609  45.345  1.00  0.00     0.269 C 
HETATM   22  H   UNL     1      20.260  45.206  45.659  1.00  0.00     0.279 HD
HETATM   23  C   UNL     1      21.149  43.601  46.636  1.00  0.00     0.234 C 
HETATM   24  C   UNL     1      22.112  44.496  47.405  1.00  0.00     0.029 C 
HETATM   25  C   UNL     1      21.445  45.184  48.597  1.00  0.00     0.017 C 
ENDBRANCH  15  18
ENDBRANCH  13  14
ENDBRANCH  12  13
ENDBRANCH   1  12
BRANCH   6  26
HETATM   26  C   UNL     1      25.587  46.945  52.592  1.00  0.00     0.273 C 
BRANCH  26  27
HETATM   27  C   UNL     1      26.659  46.424  53.506  1.00  0.00    -0.033 A 
HETATM   28  C   UNL     1      27.285  47.274  54.426  1.00  0.00     0.010 A 
HETATM   29  C   UNL     1      28.302  46.793  55.256  1.00  0.00     0.015 A 
HETATM   30  C   UNL     1      28.719  45.457  55.194  1.00  0.00    -0.002 A 
HETATM   31  C   UNL     1      28.085  44.610  54.276  1.00  0.00     0.015 A 
HETATM   32  C   UNL     1      27.069  45.085  53.437  1.00  0.00     0.010 A 
BRANCH  30  33
HETATM   33  C   UNL     1      29.777  44.955  56.067  1.00  0.00     0.085 A 
HETATM   34  O   UNL     1      30.433  43.836  55.634  1.00  0.00    -0.322 OA
HETATM   35  C   UNL     1      31.368  43.524  56.566  1.00  0.00     0.142 A 
HETATM   36  C   UNL     1      31.329  44.423  57.603  1.00  0.00     0.027 A 
HETATM   37  C   UNL     1      30.302  45.347  57.284  1.00  0.00     0.040 A 
ENDBRANCH  30  33
ENDBRANCH  26  27
ENDBRANCH   6  26
TORSDOF 7
ENDMDL
MODEL 6
REMARK VINA RESULT:      -9.2      2.342     10.455
REMARK  7 active torsions:
REMARK  status: ('A' for Active; 'I' for Inactive)
REMARK    1  A    between atoms: C_5  and  C_6 
REMARK       I    between atoms: C_6  and  N_7 
REMARK    2  A    between atoms: N_7  and  C_8 
REMARK    3  A    between atoms: C_8  and  C_9 
REMARK    4  A    between atoms: C_9  and  C_10 
REMARK    5  A    between atoms: N_15  and  C_17 
REMARK    6  A    between atoms: C_17  and  C_18 
REMARK    7  A    between atoms: C_21  and  C_22 
ROOT
HETATM    1  C   UNL     1      25.766  44.951  49.443  1.00  0.00     0.131 A 
HETATM    2  N   UNL     1      25.271  46.237  49.432  1.00  0.00    -0.319 N 
HETATM    3  C   UNL     1      26.360  47.064  49.574  1.00  0.00     0.131 A 
HETATM    4  C   UNL     1      26.362  48.552  49.555  1.00  0.00     0.108 C 
HETATM    5  C   UNL     1      25.475  49.113  48.452  1.00  0.00     0.243 C 
HETATM    6  N   UNL     1      23.997  49.137  48.844  1.00  0.00    -0.065 N 
HETATM    7  H   UNL     1      23.885  50.002  49.393  1.00  0.00     0.280 HD
HETATM    8  C   UNL     1      23.523  48.015  49.751  1.00  0.00     0.255 C 
HETATM    9  C   UNL     1      23.888  46.617  49.250  1.00  0.00     0.159 C 
HETATM   10  N   UNL     1      27.436  46.322  49.702  1.00  0.00    -0.135 NA
HETATM   11  N   UNL     1      27.068  45.012  49.615  1.00  0.00    -0.135 NA
ENDROOT
BRANCH   1  12
HETATM   12  C   UNL     1      24.978  43.697  49.246  1.00  0.00     0.100 C 
BRANCH  12  13
HETATM   13  C   UNL     1      25.024  42.808  50.495  1.00  0.00     0.130 C 
BRANCH  13  14
HETATM   14  N   UNL     1      24.993  43.546  51.752  1.00  0.00    -0.360 N 
HETATM   15  C   UNL     1      26.024  43.503  52.656  1.00  0.00     0.223 C 
HETATM   16  O   UNL     1      27.143  43.060  52.406  1.00  0.00    -0.273 OA
HETATM   17  H   UNL     1      24.072  43.835  52.068  1.00  0.00     0.162 HD
BRANCH  15  18
HETATM   18  C   UNL     1      25.716  44.145  54.003  1.00  0.00     0.103 C 
HETATM   19  C   UNL     1      26.939  44.038  54.916  1.00  0.00     0.248 C 
HETATM   20  N   UNL     1      28.054  44.935  54.422  1.00  0.00    -0.074 N 
HETATM   21  C   UNL     1      29.318  44.752  55.213  1.00  0.00     0.269 C 
HETATM   22  H   UNL     1      28.264  44.602  53.462  1.00  0.00     0.279 HD
HETATM   23  C   UNL     1      27.640  46.379  54.341  1.00  0.00     0.234 C 
HETATM   24  C   UNL     1      26.439  46.513  53.413  1.00  0.00     0.029 C 
HETATM   25  C   UNL     1      25.280  45.603  53.823  1.00  0.00     0.017 C 
ENDBRANCH  15  18
ENDBRANCH  13  14
ENDBRANCH  12  13
ENDBRANCH   1  12
BRANCH   6  26
HETATM   26  C   UNL     1      23.088  49.342  47.638  1.00  0.00     0.273 C 
BRANCH  26  27
HETATM   27  C   UNL     1      21.749  49.919  47.997  1.00  0.00    -0.033 A 
HETATM   28  C   UNL     1      21.659  51.070  48.789  1.00  0.00     0.010 A 
HETATM   29  C   UNL     1      20.410  51.589  49.145  1.00  0.00     0.015 A 
HETATM   30  C   UNL     1      19.223  50.978  48.720  1.00  0.00    -0.002 A 
HETATM   31  C   UNL     1      19.320  49.830  47.923  1.00  0.00     0.015 A 
HETATM   32  C   UNL     1      20.566  49.302  47.567  1.00  0.00     0.010 A 
BRANCH  30  33
HETATM   33  C   UNL     1      17.919  51.526  49.088  1.00  0.00     0.085 A 
HETATM   34  O   UNL     1      16.830  50.792  48.707  1.00  0.00    -0.322 OA
HETATM   35  C   UNL     1      15.723  51.453  49.131  1.00  0.00     0.142 A 
HETATM   36  C   UNL     1      16.077  52.609  49.782  1.00  0.00     0.027 A 
HETATM   37  C   UNL     1      17.493  52.659  49.754  1.00  0.00     0.040 A 
ENDBRANCH  30  33
ENDBRANCH  26  27
ENDBRANCH   6  26
TORSDOF 7
ENDMDL
MODEL 7
REMARK VINA RESULT:      -9.0      3.325     12.074
REMARK  7 active torsions:
REMARK  status: ('A' for Active; 'I' for Inactive)
REMARK    1  A    between atoms: C_5  and  C_6 
REMARK       I    between atoms: C_6  and  N_7 
REMARK    2  A    between atoms: N_7  and  C_8 
REMARK    3  A    between atoms: C_8  and  C_9 
REMARK    4  A    between atoms: C_9  and  C_10 
REMARK    5  A    between atoms: N_15  and  C_17 
REMARK    6  A    between atoms: C_17  and  C_18 
REMARK    7  A    between atoms: C_21  and  C_22 
ROOT
HETATM    1  C   UNL     1      22.738  47.596  48.726  1.00  0.00     0.131 A 
HETATM    2  N   UNL     1      21.729  48.462  49.091  1.00  0.00    -0.319 N 
HETATM    3  C   UNL     1      22.350  49.623  49.483  1.00  0.00     0.131 A 
HETATM    4  C   UNL     1      21.693  50.890  49.905  1.00  0.00     0.108 C 
HETATM    5  C   UNL     1      20.518  51.255  49.007  1.00  0.00     0.243 C 
HETATM    6  N   UNL     1      19.244  50.492  49.371  1.00  0.00    -0.065 N 
HETATM    7  H   UNL     1      18.831  51.026  50.150  1.00  0.00     0.280 HD
HETATM    8  C   UNL     1      19.431  49.081  49.899  1.00  0.00     0.255 C 
HETATM    9  C   UNL     1      20.309  48.198  49.012  1.00  0.00     0.159 C 
HETATM   10  N   UNL     1      23.648  49.454  49.400  1.00  0.00    -0.135 NA
HETATM   11  N   UNL     1      23.889  48.199  48.925  1.00  0.00    -0.135 NA
ENDROOT
BRANCH   1  12
HETATM   12  C   UNL     1      22.565  46.225  48.157  1.00  0.00     0.100 C 
BRANCH  12  13
HETATM   13  C   UNL     1      22.964  45.147  49.173  1.00  0.00     0.130 C 
BRANCH  13  14
HETATM   14  N   UNL     1      24.342  45.250  49.639  1.00  0.00    -0.360 N 
HETATM   15  C   UNL     1      24.700  44.996  50.939  1.00  0.00     0.223 C 
HETATM   16  O   UNL     1      23.974  44.434  51.757  1.00  0.00    -0.273 OA
HETATM   17  H   UNL     1      24.961  45.807  49.058  1.00  0.00     0.162 HD
BRANCH  15  18
HETATM   18  C   UNL     1      26.131  45.378  51.292  1.00  0.00     0.103 C 
HETATM   19  C   UNL     1      26.356  45.200  52.795  1.00  0.00     0.248 C 
HETATM   20  N   UNL     1      26.356  43.732  53.165  1.00  0.00    -0.074 N 
HETATM   21  C   UNL     1      26.436  43.524  54.650  1.00  0.00     0.269 C 
HETATM   22  H   UNL     1      25.424  43.380  52.873  1.00  0.00     0.279 HD
HETATM   23  C   UNL     1      27.408  42.951  52.424  1.00  0.00     0.234 C 
HETATM   24  C   UNL     1      27.185  43.091  50.924  1.00  0.00     0.029 C 
HETATM   25  C   UNL     1      27.131  44.553  50.475  1.00  0.00     0.017 C 
ENDBRANCH  15  18
ENDBRANCH  13  14
ENDBRANCH  12  13
ENDBRANCH   1  12
BRANCH   6  26
HETATM   26  C   UNL     1      18.194  50.573  48.269  1.00  0.00     0.273 C 
BRANCH  26  27
HETATM   27  C   UNL     1      17.101  51.559  48.564  1.00  0.00    -0.033 A 
HETATM   28  C   UNL     1      16.985  52.134  49.835  1.00  0.00     0.010 A 
HETATM   29  C   UNL     1      15.949  53.031  50.115  1.00  0.00     0.015 A 
HETATM   30  C   UNL     1      15.008  53.380  49.138  1.00  0.00    -0.002 A 
HETATM   31  C   UNL     1      15.133  52.806  47.866  1.00  0.00     0.015 A 
HETATM   32  C   UNL     1      16.163  51.903  47.579  1.00  0.00     0.010 A 
BRANCH  30  33
HETATM   33  C   UNL     1      13.931  54.323  49.430  1.00  0.00     0.085 A 
HETATM   34  O   UNL     1      14.139  55.615  49.035  1.00  0.00    -0.322 OA
HETATM   35  C   UNL     1      13.043  56.333  49.390  1.00  0.00     0.142 A 
HETATM   36  C   UNL     1      12.124  55.525  50.013  1.00  0.00     0.027 A 
HETATM   37  C   UNL     1      12.695  54.228  50.042  1.00  0.00     0.040 A 
ENDBRANCH  30  33
ENDBRANCH  26  27
ENDBRANCH   6  26
TORSDOF 7
ENDMDL
MODEL 8
REMARK VINA RESULT:      -9.0      3.266      4.435
REMARK  7 active torsions:
REMARK  status: ('A' for Active; 'I' for Inactive)
REMARK    1  A    between atoms: C_5  and  C_6 
REMARK       I    between atoms: C_6  and  N_7 
REMARK    2  A    between atoms: N_7  and  C_8 
REMARK    3  A    between atoms: C_8  and  C_9 
REMARK    4  A    between atoms: C_9  and  C_10 
REMARK    5  A    between atoms: N_15  and  C_17 
REMARK    6  A    between atoms: C_17  and  C_18 
REMARK    7  A    between atoms: C_21  and  C_22 
ROOT
HETATM    1  C   UNL     1      22.415  43.601  48.794  1.00  0.00     0.131 A 
HETATM    2  N   UNL     1      23.511  43.225  49.541  1.00  0.00    -0.319 N 
HETATM    3  C   UNL     1      23.901  42.001  49.052  1.00  0.00     0.131 A 
HETATM    4  C   UNL     1      25.080  41.201  49.480  1.00  0.00     0.108 C 
HETATM    5  C   UNL     1      26.323  42.062  49.661  1.00  0.00     0.243 C 
HETATM    6  N   UNL     1      26.345  42.784  51.009  1.00  0.00    -0.065 N 
HETATM    7  H   UNL     1      26.714  42.088  51.674  1.00  0.00     0.280 HD
HETATM    8  C   UNL     1      24.997  43.207  51.568  1.00  0.00     0.255 C 
HETATM    9  C   UNL     1      24.140  44.004  50.584  1.00  0.00     0.159 C 
HETATM   10  N   UNL     1      23.069  41.645  48.101  1.00  0.00    -0.135 NA
HETATM   11  N   UNL     1      22.151  42.639  47.937  1.00  0.00    -0.135 NA
ENDROOT
BRANCH   1  12
HETATM   12  C   UNL     1      21.676  44.895  48.898  1.00  0.00     0.100 C 
BRANCH  12  13
HETATM   13  C   UNL     1      22.143  45.891  47.829  1.00  0.00     0.130 C 
BRANCH  13  14
HETATM   14  N   UNL     1      21.966  47.290  48.202  1.00  0.00    -0.360 N 
HETATM   15  C   UNL     1      21.027  48.096  47.611  1.00  0.00     0.223 C 
HETATM   16  O   UNL     1      20.104  47.682  46.912  1.00  0.00    -0.273 OA
HETATM   17  H   UNL     1      22.753  47.719  48.680  1.00  0.00     0.162 HD
BRANCH  15  18
HETATM   18  C   UNL     1      21.145  49.574  47.961  1.00  0.00     0.103 C 
HETATM   19  C   UNL     1      20.135  50.380  47.141  1.00  0.00     0.248 C 
HETATM   20  N   UNL     1      18.722  50.091  47.603  1.00  0.00    -0.074 N 
HETATM   21  C   UNL     1      17.697  50.758  46.731  1.00  0.00     0.269 C 
HETATM   22  H   UNL     1      18.597  49.070  47.467  1.00  0.00     0.279 HD
HETATM   23  C   UNL     1      18.517  50.402  49.061  1.00  0.00     0.234 C 
HETATM   24  C   UNL     1      19.495  49.588  49.897  1.00  0.00     0.029 C 
HETATM   25  C   UNL     1      20.947  49.793  49.464  1.00  0.00     0.017 C 
ENDBRANCH  15  18
ENDBRANCH  13  14
ENDBRANCH  12  13
ENDBRANCH   1  12
BRANCH   6  26
HETATM   26  C   UNL     1      27.373  43.908  51.040  1.00  0.00     0.273 C 
BRANCH  26  27
HETATM   27  C   UNL     1      28.183  43.935  52.304  1.00  0.00    -0.033 A 
HETATM   28  C   UNL     1      29.276  43.076  52.467  1.00  0.00     0.010 A 
HETATM   29  C   UNL     1      30.012  43.083  53.656  1.00  0.00     0.015 A 
HETATM   30  C   UNL     1      29.681  43.947  54.708  1.00  0.00    -0.002 A 
HETATM   31  C   UNL     1      28.590  44.809  54.537  1.00  0.00     0.015 A 
HETATM   32  C   UNL     1      27.846  44.803  53.352  1.00  0.00     0.010 A 
BRANCH  30  33
HETATM   33  C   UNL     1      30.455  43.958  55.947  1.00  0.00     0.085 A 
HETATM   34  O   UNL     1      30.212  45.000  56.799  1.00  0.00    -0.322 OA
HETATM   35  C   UNL     1      31.016  44.840  57.880  1.00  0.00     0.142 A 
HETATM   36  C   UNL     1      31.782  43.709  57.743  1.00  0.00     0.027 A 
HETATM   37  C   UNL     1      31.424  43.139  56.497  1.00  0.00     0.040 A 
ENDBRANCH  30  33
ENDBRANCH  26  27
ENDBRANCH   6  26
TORSDOF 7
ENDMDL
MODEL 9
REMARK VINA RESULT:      -8.6      4.017      5.106
REMARK  7 active torsions:
REMARK  status: ('A' for Active; 'I' for Inactive)
REMARK    1  A    between atoms: C_5  and  C_6 
REMARK       I    between atoms: C_6  and  N_7 
REMARK    2  A    between atoms: N_7  and  C_8 
REMARK    3  A    between atoms: C_8  and  C_9 
REMARK    4  A    between atoms: C_9  and  C_10 
REMARK    5  A    between atoms: N_15  and  C_17 
REMARK    6  A    between atoms: C_17  and  C_18 
REMARK    7  A    between atoms: C_21  and  C_22 
ROOT
HETATM    1  C   UNL     1      23.245  48.675  48.438  1.00  0.00     0.131 A 
HETATM    2  N   UNL     1      23.667  47.546  49.108  1.00  0.00    -0.319 N 
HETATM    3  C   UNL     1      22.886  46.515  48.643  1.00  0.00     0.131 A 
HETATM    4  C   UNL     1      22.994  45.076  49.008  1.00  0.00     0.108 C 
HETATM    5  C   UNL     1      24.441  44.601  49.047  1.00  0.00     0.243 C 
HETATM    6  N   UNL     1      25.142  44.968  50.355  1.00  0.00    -0.065 N 
HETATM    7  H   UNL     1      24.867  44.228  51.017  1.00  0.00     0.280 HD
HETATM    8  C   UNL     1      24.717  46.274  51.004  1.00  0.00     0.255 C 
HETATM    9  C   UNL     1      24.753  47.476  50.060  1.00  0.00     0.159 C 
HETATM   10  N   UNL     1      22.023  46.999  47.781  1.00  0.00    -0.135 NA
HETATM   11  N   UNL     1      22.249  48.337  47.649  1.00  0.00    -0.135 NA
ENDROOT
BRANCH   1  12
HETATM   12  C   UNL     1      23.839  50.042  48.545  1.00  0.00     0.100 C 
BRANCH  12  13
HETATM   13  C   UNL     1      22.931  50.982  49.349  1.00  0.00     0.130 C 
BRANCH  13  14
HETATM   14  N   UNL     1      21.699  50.360  49.819  1.00  0.00    -0.360 N 
HETATM   15  C   UNL     1      20.460  50.885  49.548  1.00  0.00     0.223 C 
HETATM   16  O   UNL     1      20.249  51.756  48.707  1.00  0.00    -0.273 OA
HETATM   17  H   UNL     1      21.801  49.717  50.598  1.00  0.00     0.162 HD
BRANCH  15  18
HETATM   18  C   UNL     1      19.313  50.235  50.311  1.00  0.00     0.103 C 
HETATM   19  C   UNL     1      17.997  50.926  49.948  1.00  0.00     0.248 C 
HETATM   20  N   UNL     1      17.604  50.609  48.521  1.00  0.00    -0.074 N 
HETATM   21  C   UNL     1      16.390  51.380  48.086  1.00  0.00     0.269 C 
HETATM   22  H   UNL     1      18.391  50.957  47.941  1.00  0.00     0.279 HD
HETATM   23  C   UNL     1      17.455  49.132  48.278  1.00  0.00     0.234 C 
HETATM   24  C   UNL     1      18.765  48.428  48.606  1.00  0.00     0.029 C 
HETATM   25  C   UNL     1      19.253  48.731  50.024  1.00  0.00     0.017 C 
ENDBRANCH  15  18
ENDBRANCH  13  14
ENDBRANCH  12  13
ENDBRANCH   1  12
BRANCH   6  26
HETATM   26  C   UNL     1      26.656  44.829  50.251  1.00  0.00     0.273 C 
BRANCH  26  27
HETATM   27  C   UNL     1      27.120  43.401  50.245  1.00  0.00    -0.033 A 
HETATM   28  C   UNL     1      27.009  42.621  49.088  1.00  0.00     0.010 A 
HETATM   29  C   UNL     1      27.416  41.283  49.093  1.00  0.00     0.015 A 
HETATM   30  C   UNL     1      27.946  40.691  50.247  1.00  0.00    -0.002 A 
HETATM   31  C   UNL     1      28.060  41.478  51.400  1.00  0.00     0.015 A 
HETATM   32  C   UNL     1      27.650  42.816  51.404  1.00  0.00     0.010 A 
BRANCH  30  33
HETATM   33  C   UNL     1      28.377  39.295  50.249  1.00  0.00     0.085 A 
HETATM   34  O   UNL     1      27.475  38.387  49.767  1.00  0.00    -0.322 OA
HETATM   35  C   UNL     1      28.047  37.159  49.849  1.00  0.00     0.142 A 
HETATM   36  C   UNL     1      29.310  37.255  50.381  1.00  0.00     0.027 A 
HETATM   37  C   UNL     1      29.524  38.631  50.641  1.00  0.00     0.040 A 
ENDBRANCH  30  33
ENDBRANCH  26  27
ENDBRANCH   6  26
TORSDOF 7
ENDMDL
MODEL 10
REMARK VINA RESULT:      -8.6     12.736     14.390
REMARK  7 active torsions:
REMARK  status: ('A' for Active; 'I' for Inactive)
REMARK    1  A    between atoms: C_5  and  C_6 
REMARK       I    between atoms: C_6  and  N_7 
REMARK    2  A    between atoms: N_7  and  C_8 
REMARK    3  A    between atoms: C_8  and  C_9 
REMARK    4  A    between atoms: C_9  and  C_10 
REMARK    5  A    between atoms: N_15  and  C_17 
REMARK    6  A    between atoms: C_17  and  C_18 
REMARK    7  A    between atoms: C_21  and  C_22 
ROOT
HETATM    1  C   UNL     1      31.995  48.620  41.681  1.00  0.00     0.131 A 
HETATM    2  N   UNL     1      32.735  49.780  41.755  1.00  0.00    -0.319 N 
HETATM    3  C   UNL     1      32.325  50.419  42.901  1.00  0.00     0.131 A 
HETATM    4  C   UNL     1      32.870  51.684  43.463  1.00  0.00     0.108 C 
HETATM    5  C   UNL     1      34.392  51.728  43.409  1.00  0.00     0.243 C 
HETATM    6  N   UNL     1      34.917  52.135  42.031  1.00  0.00    -0.065 N 
HETATM    7  H   UNL     1      34.873  53.164  42.027  1.00  0.00     0.280 HD
HETATM    8  C   UNL     1      34.091  51.687  40.837  1.00  0.00     0.255 C 
HETATM    9  C   UNL     1      33.769  50.192  40.831  1.00  0.00     0.159 C 
HETATM   10  N   UNL     1      31.372  49.709  43.458  1.00  0.00    -0.135 NA
HETATM   11  N   UNL     1      31.171  48.591  42.705  1.00  0.00    -0.135 NA
ENDROOT
BRANCH   1  12
HETATM   12  C   UNL     1      32.130  47.548  40.648  1.00  0.00     0.100 C 
BRANCH  12  13
HETATM   13  C   UNL     1      31.019  47.649  39.593  1.00  0.00     0.130 C 
BRANCH  13  14
HETATM   14  N   UNL     1      29.917  48.525  39.972  1.00  0.00    -0.360 N 
HETATM   15  C   UNL     1      29.693  49.732  39.361  1.00  0.00     0.223 C 
HETATM   16  O   UNL     1      30.220  50.080  38.306  1.00  0.00    -0.273 OA
HETATM   17  H   UNL     1      29.521  48.357  40.892  1.00  0.00     0.162 HD
BRANCH  15  18
HETATM   18  C   UNL     1      28.647  50.606  40.042  1.00  0.00     0.103 C 
HETATM   19  C   UNL     1      29.338  51.616  40.960  1.00  0.00     0.248 C 
HETATM   20  N   UNL     1      30.087  52.651  40.148  1.00  0.00    -0.074 N 
HETATM   21  C   UNL     1      30.890  53.577  41.016  1.00  0.00     0.269 C 
HETATM   22  H   UNL     1      30.774  52.110  39.589  1.00  0.00     0.279 HD
HETATM   23  C   UNL     1      29.190  53.398  39.199  1.00  0.00     0.234 C 
HETATM   24  C   UNL     1      28.513  52.413  38.255  1.00  0.00     0.029 C 
HETATM   25  C   UNL     1      27.766  51.307  39.003  1.00  0.00     0.017 C 
ENDBRANCH  15  18
ENDBRANCH  13  14
ENDBRANCH  12  13
ENDBRANCH   1  12
BRANCH   6  26
HETATM   26  C   UNL     1      36.400  51.825  41.870  1.00  0.00     0.273 C 
BRANCH  26  27
HETATM   27  C   UNL     1      37.234  52.310  43.021  1.00  0.00    -0.033 A 
HETATM   28  C   UNL     1      37.269  53.670  43.351  1.00  0.00     0.010 A 
HETATM   29  C   UNL     1      38.069  54.123  44.405  1.00  0.00     0.015 A 
HETATM   30  C   UNL     1      38.847  53.235  45.159  1.00  0.00    -0.002 A 
HETATM   31  C   UNL     1      38.803  51.874  44.828  1.00  0.00     0.015 A 
HETATM   32  C   UNL     1      38.010  51.414  43.770  1.00  0.00     0.010 A 
BRANCH  30  33
HETATM   33  C   UNL     1      39.676  53.709  46.264  1.00  0.00     0.085 A 
HETATM   34  O   UNL     1      40.696  54.557  45.930  1.00  0.00    -0.322 OA
HETATM   35  C   UNL     1      41.346  54.885  47.075  1.00  0.00     0.142 A 
HETATM   36  C   UNL     1      40.766  54.258  48.150  1.00  0.00     0.027 A 
HETATM   37  C   UNL     1      39.690  53.498  47.630  1.00  0.00     0.040 A 
ENDBRANCH  30  33
ENDBRANCH  26  27
ENDBRANCH   6  26
TORSDOF 7
ENDMDL
