MODEL 1
REMARK VINA RESULT:      -8.4      0.000      0.000
REMARK  8 active torsions:
REMARK  status: ('A' for Active; 'I' for Inactive)
REMARK    1  A    between atoms: C_2  and  N_3 
REMARK    2  A    between atoms: C_2  and  C_17 
REMARK    3  A    between atoms: N_3  and  C_6 
REMARK    4  A    between atoms: C_6  and  C_7 
REMARK    5  A    between atoms: C_7  and  O_8 
REMARK    6  A    between atoms: C_7  and  C_9 
REMARK    7  A    between atoms: C_11  and  O_12 
REMARK    8  A    between atoms: C_17  and  C_18 
ROOT
HETATM    1  N   UNL     1      25.715  44.785  51.942  1.00  0.00    -0.068 N 
HETATM    2  H   UNL     1      24.674  44.753  51.976  1.00  0.00     0.277 HD
HETATM    3  H   UNL     1      25.972  45.272  52.818  1.00  0.00     0.277 HD
ENDROOT
BRANCH   1   4
HETATM    4  C   UNL     1      26.200  43.363  51.889  1.00  0.00     0.188 C 
HETATM    5  C   UNL     1      25.469  42.619  50.777  1.00  0.00     0.040 C 
BRANCH   4   6
HETATM    6  C   UNL     1      27.725  43.333  51.649  1.00  0.00     0.099 C 
BRANCH   6   7
HETATM    7  C   UNL     1      28.488  43.576  52.918  1.00  0.00     0.078 A 
HETATM    8  S   UNL     1      29.741  42.517  53.402  1.00  0.00    -0.073 SA
HETATM    9  C   UNL     1      30.039  43.500  54.783  1.00  0.00     0.035 A 
HETATM   10  C   UNL     1      29.151  44.580  54.774  1.00  0.00     0.074 A 
HETATM   11  C   UNL     1      30.992  43.331  55.800  1.00  0.00     0.021 A 
HETATM   12  N   UNL     1      28.265  44.614  53.701  1.00  0.00    -0.245 NA
HETATM   13  C   UNL     1      29.219  45.522  55.821  1.00  0.00     0.033 A 
HETATM   14  C   UNL     1      30.165  45.361  56.839  1.00  0.00     0.002 A 
HETATM   15  C   UNL     1      31.039  44.279  56.826  1.00  0.00     0.002 A 
ENDBRANCH   6   7
ENDBRANCH   4   6
ENDBRANCH   1   4
BRANCH   1  16
HETATM   16  C   UNL     1      26.098  45.702  50.813  1.00  0.00     0.269 C 
BRANCH  16  17
HETATM   17  C   UNL     1      25.173  46.935  50.870  1.00  0.00     0.177 C 
BRANCH  17  18
HETATM   18  O   UNL     1      25.209  47.442  52.215  1.00  0.00    -0.389 OA
HETATM   19  H   UNL     1      26.006  48.008  52.279  1.00  0.00     0.210 HD
ENDBRANCH  17  18
BRANCH  17  20
HETATM   20  C   UNL     1      25.575  47.990  49.870  1.00  0.00    -0.025 A 
HETATM   21  C   UNL     1      24.617  48.647  49.074  1.00  0.00     0.046 A 
HETATM   22  C   UNL     1      25.000  49.643  48.173  1.00  0.00     0.068 A 
HETATM   23  C   UNL     1      26.346  50.001  48.082  1.00  0.00     0.037 A 
HETATM   24  C   UNL     1      27.305  49.362  48.865  1.00  0.00     0.003 A 
HETATM   25  C   UNL     1      26.922  48.361  49.755  1.00  0.00     0.010 A 
BRANCH  22  26
HETATM   26  O   UNL     1      24.167  50.346  47.350  1.00  0.00    -0.356 OA
HETATM   27  C   UNL     1      22.780  50.343  47.666  1.00  0.00     0.210 C 
ENDBRANCH  22  26
ENDBRANCH  17  20
ENDBRANCH  16  17
ENDBRANCH   1  16
TORSDOF 8
ENDMDL
MODEL 2
REMARK VINA RESULT:      -8.4      2.314      3.394
REMARK  8 active torsions:
REMARK  status: ('A' for Active; 'I' for Inactive)
REMARK    1  A    between atoms: C_2  and  N_3 
REMARK    2  A    between atoms: C_2  and  C_17 
REMARK    3  A    between atoms: N_3  and  C_6 
REMARK    4  A    between atoms: C_6  and  C_7 
REMARK    5  A    between atoms: C_7  and  O_8 
REMARK    6  A    between atoms: C_7  and  C_9 
REMARK    7  A    between atoms: C_11  and  O_12 
REMARK    8  A    between atoms: C_17  and  C_18 
ROOT
HETATM    1  N   UNL     1      26.901  41.976  52.346  1.00  0.00    -0.068 N 
HETATM    2  H   UNL     1      26.409  41.059  52.377  1.00  0.00     0.277 HD
HETATM    3  H   UNL     1      26.281  42.603  52.889  1.00  0.00     0.277 HD
ENDROOT
BRANCH   1   4
HETATM    4  C   UNL     1      28.249  41.777  52.983  1.00  0.00     0.188 C 
HETATM    5  C   UNL     1      28.918  40.548  52.379  1.00  0.00     0.040 C 
BRANCH   4   6
HETATM    6  C   UNL     1      29.124  43.031  52.770  1.00  0.00     0.099 C 
BRANCH   6   7
HETATM    7  C   UNL     1      29.481  43.683  54.074  1.00  0.00     0.078 A 
HETATM    8  S   UNL     1      28.598  45.030  54.649  1.00  0.00    -0.073 SA
HETATM    9  C   UNL     1      29.573  45.065  56.067  1.00  0.00     0.035 A 
HETATM   10  C   UNL     1      30.512  44.032  55.999  1.00  0.00     0.074 A 
HETATM   11  C   UNL     1      29.509  45.941  57.162  1.00  0.00     0.021 A 
HETATM   12  N   UNL     1      30.451  43.245  54.853  1.00  0.00    -0.245 NA
HETATM   13  C   UNL     1      31.421  43.872  57.066  1.00  0.00     0.033 A 
HETATM   14  C   UNL     1      31.366  44.740  58.161  1.00  0.00     0.002 A 
HETATM   15  C   UNL     1      30.421  45.760  58.206  1.00  0.00     0.002 A 
ENDBRANCH   6   7
ENDBRANCH   4   6
ENDBRANCH   1   4
BRANCH   1  16
HETATM   16  C   UNL     1      26.860  42.458  50.923  1.00  0.00     0.269 C 
BRANCH  16  17
HETATM   17  C   UNL     1      25.581  43.303  50.745  1.00  0.00     0.177 C 
BRANCH  17  18
HETATM   18  O   UNL     1      24.651  42.902  51.766  1.00  0.00    -0.389 OA
HETATM   19  H   UNL     1      25.059  42.143  52.232  1.00  0.00     0.210 HD
ENDBRANCH  17  18
BRANCH  17  20
HETATM   20  C   UNL     1      25.867  44.782  50.808  1.00  0.00    -0.025 A 
HETATM   21  C   UNL     1      26.521  45.447  49.751  1.00  0.00     0.046 A 
HETATM   22  C   UNL     1      26.753  46.823  49.809  1.00  0.00     0.068 A 
HETATM   23  C   UNL     1      26.310  47.543  50.919  1.00  0.00     0.037 A 
HETATM   24  C   UNL     1      25.659  46.901  51.970  1.00  0.00     0.003 A 
HETATM   25  C   UNL     1      25.438  45.527  51.915  1.00  0.00     0.010 A 
BRANCH  22  26
HETATM   26  O   UNL     1      27.376  47.573  48.853  1.00  0.00    -0.356 OA
HETATM   27  C   UNL     1      27.744  48.901  49.201  1.00  0.00     0.210 C 
ENDBRANCH  22  26
ENDBRANCH  17  20
ENDBRANCH  16  17
ENDBRANCH   1  16
TORSDOF 8
ENDMDL
MODEL 3
REMARK VINA RESULT:      -8.1      2.665      7.967
REMARK  8 active torsions:
REMARK  status: ('A' for Active; 'I' for Inactive)
REMARK    1  A    between atoms: C_2  and  N_3 
REMARK    2  A    between atoms: C_2  and  C_17 
REMARK    3  A    between atoms: N_3  and  C_6 
REMARK    4  A    between atoms: C_6  and  C_7 
REMARK    5  A    between atoms: C_7  and  O_8 
REMARK    6  A    between atoms: C_7  and  C_9 
REMARK    7  A    between atoms: C_11  and  O_12 
REMARK    8  A    between atoms: C_17  and  C_18 
ROOT
HETATM    1  N   UNL     1      25.929  43.267  52.675  1.00  0.00    -0.068 N 
HETATM    2  H   UNL     1      25.073  42.710  52.880  1.00  0.00     0.277 HD
HETATM    3  H   UNL     1      26.687  42.562  52.689  1.00  0.00     0.277 HD
ENDROOT
BRANCH   1   4
HETATM    4  C   UNL     1      25.732  43.902  51.326  1.00  0.00     0.188 C 
HETATM    5  C   UNL     1      25.333  42.832  50.317  1.00  0.00     0.040 C 
BRANCH   4   6
HETATM    6  C   UNL     1      24.648  44.999  51.411  1.00  0.00     0.099 C 
BRANCH   6   7
HETATM    7  C   UNL     1      25.035  46.218  50.628  1.00  0.00     0.078 A 
HETATM    8  S   UNL     1      23.860  47.116  49.769  1.00  0.00    -0.073 SA
HETATM    9  C   UNL     1      25.073  48.232  49.274  1.00  0.00     0.035 A 
HETATM   10  C   UNL     1      26.302  47.835  49.807  1.00  0.00     0.074 A 
HETATM   11  C   UNL     1      24.946  49.378  48.473  1.00  0.00     0.021 A 
HETATM   12  N   UNL     1      26.271  46.679  50.582  1.00  0.00    -0.245 NA
HETATM   13  C   UNL     1      27.445  48.613  49.528  1.00  0.00     0.033 A 
HETATM   14  C   UNL     1      27.328  49.757  48.731  1.00  0.00     0.002 A 
HETATM   15  C   UNL     1      26.093  50.132  48.212  1.00  0.00     0.002 A 
ENDBRANCH   6   7
ENDBRANCH   4   6
ENDBRANCH   1   4
BRANCH   1  16
HETATM   16  C   UNL     1      26.165  44.173  53.852  1.00  0.00     0.269 C 
BRANCH  16  17
HETATM   17  C   UNL     1      27.373  45.074  53.521  1.00  0.00     0.177 C 
BRANCH  17  18
HETATM   18  O   UNL     1      26.961  46.439  53.711  1.00  0.00    -0.389 OA
HETATM   19  H   UNL     1      27.679  46.880  54.209  1.00  0.00     0.210 HD
ENDBRANCH  17  18
BRANCH  17  20
HETATM   20  C   UNL     1      28.577  44.738  54.363  1.00  0.00    -0.025 A 
HETATM   21  C   UNL     1      28.960  45.548  55.451  1.00  0.00     0.046 A 
HETATM   22  C   UNL     1      30.060  45.207  56.241  1.00  0.00     0.068 A 
HETATM   23  C   UNL     1      30.769  44.040  55.958  1.00  0.00     0.037 A 
HETATM   24  C   UNL     1      30.401  43.226  54.888  1.00  0.00     0.003 A 
HETATM   25  C   UNL     1      29.310  43.573  54.094  1.00  0.00     0.010 A 
BRANCH  22  26
HETATM   26  O   UNL     1      30.526  45.912  57.314  1.00  0.00    -0.356 OA
HETATM   27  C   UNL     1      30.976  45.168  58.440  1.00  0.00     0.210 C 
ENDBRANCH  22  26
ENDBRANCH  17  20
ENDBRANCH  16  17
ENDBRANCH   1  16
TORSDOF 8
ENDMDL
MODEL 4
REMARK VINA RESULT:      -8.0     11.369     13.188
REMARK  8 active torsions:
REMARK  status: ('A' for Active; 'I' for Inactive)
REMARK    1  A    between atoms: C_2  and  N_3 
REMARK    2  A    between atoms: C_2  and  C_17 
REMARK    3  A    between atoms: N_3  and  C_6 
REMARK    4  A    between atoms: C_6  and  C_7 
REMARK    5  A    between atoms: C_7  and  O_8 
REMARK    6  A    between atoms: C_7  and  C_9 
REMARK    7  A    between atoms: C_11  and  O_12 
REMARK    8  A    between atoms: C_17  and  C_18 
ROOT
HETATM    1  N   UNL     1      26.933  51.026  40.304  1.00  0.00    -0.068 N 
HETATM    2  H   UNL     1      26.208  51.654  40.709  1.00  0.00     0.277 HD
HETATM    3  H   UNL     1      27.415  50.642  41.136  1.00  0.00     0.277 HD
ENDROOT
BRANCH   1   4
HETATM    4  C   UNL     1      26.212  49.979  39.500  1.00  0.00     0.188 C 
HETATM    5  C   UNL     1      26.661  50.060  38.045  1.00  0.00     0.040 C 
BRANCH   4   6
HETATM    6  C   UNL     1      26.500  48.577  40.079  1.00  0.00     0.099 C 
BRANCH   6   7
HETATM    7  C   UNL     1      27.949  48.412  40.431  1.00  0.00     0.078 A 
HETATM    8  S   UNL     1      29.025  47.623  39.362  1.00  0.00    -0.073 SA
HETATM    9  C   UNL     1      30.325  47.916  40.451  1.00  0.00     0.035 A 
HETATM   10  C   UNL     1      29.838  48.605  41.565  1.00  0.00     0.074 A 
HETATM   11  C   UNL     1      31.679  47.564  40.328  1.00  0.00     0.021 A 
HETATM   12  N   UNL     1      28.475  48.885  41.545  1.00  0.00    -0.245 NA
HETATM   13  C   UNL     1      30.739  48.953  42.593  1.00  0.00     0.033 A 
HETATM   14  C   UNL     1      32.089  48.606  42.479  1.00  0.00     0.002 A 
HETATM   15  C   UNL     1      32.550  47.921  41.360  1.00  0.00     0.002 A 
ENDBRANCH   6   7
ENDBRANCH   4   6
ENDBRANCH   1   4
BRANCH   1  16
HETATM   16  C   UNL     1      27.932  51.896  39.593  1.00  0.00     0.269 C 
BRANCH  16  17
HETATM   17  C   UNL     1      28.943  52.408  40.638  1.00  0.00     0.177 C 
BRANCH  17  18
HETATM   18  O   UNL     1      28.544  51.889  41.918  1.00  0.00    -0.389 OA
HETATM   19  H   UNL     1      27.636  52.217  42.082  1.00  0.00     0.210 HD
ENDBRANCH  17  18
BRANCH  17  20
HETATM   20  C   UNL     1      30.358  52.013  40.298  1.00  0.00    -0.025 A 
HETATM   21  C   UNL     1      31.423  52.265  41.185  1.00  0.00     0.046 A 
HETATM   22  C   UNL     1      32.724  51.867  40.869  1.00  0.00     0.068 A 
HETATM   23  C   UNL     1      32.960  51.193  39.671  1.00  0.00     0.037 A 
HETATM   24  C   UNL     1      31.917  50.932  38.785  1.00  0.00     0.003 A 
HETATM   25  C   UNL     1      30.621  51.340  39.096  1.00  0.00     0.010 A 
BRANCH  22  26
HETATM   26  O   UNL     1      33.832  52.058  41.644  1.00  0.00    -0.356 OA
HETATM   27  C   UNL     1      34.811  51.027  41.652  1.00  0.00     0.210 C 
ENDBRANCH  22  26
ENDBRANCH  17  20
ENDBRANCH  16  17
ENDBRANCH   1  16
TORSDOF 8
ENDMDL
MODEL 5
REMARK VINA RESULT:      -8.0      1.661      2.342
REMARK  8 active torsions:
REMARK  status: ('A' for Active; 'I' for Inactive)
REMARK    1  A    between atoms: C_2  and  N_3 
REMARK    2  A    between atoms: C_2  and  C_17 
REMARK    3  A    between atoms: N_3  and  C_6 
REMARK    4  A    between atoms: C_6  and  C_7 
REMARK    5  A    between atoms: C_7  and  O_8 
REMARK    6  A    between atoms: C_7  and  C_9 
REMARK    7  A    between atoms: C_11  and  O_12 
REMARK    8  A    between atoms: C_17  and  C_18 
ROOT
HETATM    1  N   UNL     1      26.181  42.801  52.011  1.00  0.00    -0.068 N 
HETATM    2  H   UNL     1      26.392  42.696  50.997  1.00  0.00     0.277 HD
HETATM    3  H   UNL     1      25.442  42.095  52.180  1.00  0.00     0.277 HD
ENDROOT
BRANCH   1   4
HETATM    4  C   UNL     1      27.454  42.520  52.761  1.00  0.00     0.188 C 
HETATM    5  C   UNL     1      28.092  41.247  52.216  1.00  0.00     0.040 C 
BRANCH   4   6
HETATM    6  C   UNL     1      28.423  43.715  52.623  1.00  0.00     0.099 C 
BRANCH   6   7
HETATM    7  C   UNL     1      29.044  44.076  53.940  1.00  0.00     0.078 A 
HETATM    8  S   UNL     1      28.471  45.411  54.841  1.00  0.00    -0.073 SA
HETATM    9  C   UNL     1      29.613  45.066  56.081  1.00  0.00     0.035 A 
HETATM   10  C   UNL     1      30.358  43.942  55.715  1.00  0.00     0.074 A 
HETATM   11  C   UNL     1      29.833  45.740  57.294  1.00  0.00     0.021 A 
HETATM   12  N   UNL     1      30.024  43.381  54.485  1.00  0.00    -0.245 NA
HETATM   13  C   UNL     1      31.359  43.476  56.592  1.00  0.00     0.033 A 
HETATM   14  C   UNL     1      31.585  44.141  57.802  1.00  0.00     0.002 A 
HETATM   15  C   UNL     1      30.830  45.258  58.146  1.00  0.00     0.002 A 
ENDBRANCH   6   7
ENDBRANCH   4   6
ENDBRANCH   1   4
BRANCH   1  16
HETATM   16  C   UNL     1      25.537  44.148  52.197  1.00  0.00     0.269 C 
BRANCH  16  17
HETATM   17  C   UNL     1      24.808  44.509  50.887  1.00  0.00     0.177 C 
BRANCH  17  18
HETATM   18  O   UNL     1      23.396  44.495  51.159  1.00  0.00    -0.389 OA
HETATM   19  H   UNL     1      23.274  44.935  52.025  1.00  0.00     0.210 HD
ENDBRANCH  17  18
BRANCH  17  20
HETATM   20  C   UNL     1      25.252  45.842  50.341  1.00  0.00    -0.025 A 
HETATM   21  C   UNL     1      24.347  46.911  50.191  1.00  0.00     0.046 A 
HETATM   22  C   UNL     1      24.779  48.150  49.712  1.00  0.00     0.068 A 
HETATM   23  C   UNL     1      26.127  48.329  49.402  1.00  0.00     0.037 A 
HETATM   24  C   UNL     1      27.036  47.283  49.548  1.00  0.00     0.003 A 
HETATM   25  C   UNL     1      26.601  46.044  50.015  1.00  0.00     0.010 A 
BRANCH  22  26
HETATM   26  O   UNL     1      23.998  49.254  49.522  1.00  0.00    -0.356 OA
HETATM   27  C   UNL     1      23.491  49.479  48.213  1.00  0.00     0.210 C 
ENDBRANCH  22  26
ENDBRANCH  17  20
ENDBRANCH  16  17
ENDBRANCH   1  16
TORSDOF 8
ENDMDL
MODEL 6
REMARK VINA RESULT:      -7.9     12.114     14.333
REMARK  8 active torsions:
REMARK  status: ('A' for Active; 'I' for Inactive)
REMARK    1  A    between atoms: C_2  and  N_3 
REMARK    2  A    between atoms: C_2  and  C_17 
REMARK    3  A    between atoms: N_3  and  C_6 
REMARK    4  A    between atoms: C_6  and  C_7 
REMARK    5  A    between atoms: C_7  and  O_8 
REMARK    6  A    between atoms: C_7  and  C_9 
REMARK    7  A    between atoms: C_11  and  O_12 
REMARK    8  A    between atoms: C_17  and  C_18 
ROOT
HETATM    1  N   UNL     1      27.949  47.779  38.580  1.00  0.00    -0.068 N 
HETATM    2  H   UNL     1      27.691  47.060  37.871  1.00  0.00     0.277 HD
HETATM    3  H   UNL     1      28.708  48.312  38.119  1.00  0.00     0.277 HD
ENDROOT
BRANCH   1   4
HETATM    4  C   UNL     1      26.719  48.602  38.844  1.00  0.00     0.188 C 
HETATM    5  C   UNL     1      26.487  48.698  40.347  1.00  0.00     0.040 C 
BRANCH   4   6
HETATM    6  C   UNL     1      26.884  50.010  38.230  1.00  0.00     0.099 C 
BRANCH   6   7
HETATM    7  C   UNL     1      28.205  50.620  38.596  1.00  0.00     0.078 A 
HETATM    8  S   UNL     1      28.328  51.729  39.891  1.00  0.00    -0.073 SA
HETATM    9  C   UNL     1      30.026  51.845  39.632  1.00  0.00     0.035 A 
HETATM   10  C   UNL     1      30.381  51.017  38.564  1.00  0.00     0.074 A 
HETATM   11  C   UNL     1      30.976  52.610  40.327  1.00  0.00     0.021 A 
HETATM   12  N   UNL     1      29.330  50.318  37.976  1.00  0.00    -0.245 NA
HETATM   13  C   UNL     1      31.736  50.954  38.177  1.00  0.00     0.033 A 
HETATM   14  C   UNL     1      32.689  51.714  38.862  1.00  0.00     0.002 A 
HETATM   15  C   UNL     1      32.312  52.530  39.924  1.00  0.00     0.002 A 
ENDBRANCH   6   7
ENDBRANCH   4   6
ENDBRANCH   1   4
BRANCH   1  16
HETATM   16  C   UNL     1      28.576  47.058  39.740  1.00  0.00     0.269 C 
BRANCH  16  17
HETATM   17  C   UNL     1      30.106  47.073  39.538  1.00  0.00     0.177 C 
BRANCH  17  18
HETATM   18  O   UNL     1      30.360  47.511  38.192  1.00  0.00    -0.389 OA
HETATM   19  H   UNL     1      29.933  46.858  37.600  1.00  0.00     0.210 HD
ENDBRANCH  17  18
BRANCH  17  20
HETATM   20  C   UNL     1      30.801  47.951  40.547  1.00  0.00    -0.025 A 
HETATM   21  C   UNL     1      32.196  48.150  40.507  1.00  0.00     0.046 A 
HETATM   22  C   UNL     1      32.822  48.990  41.429  1.00  0.00     0.068 A 
HETATM   23  C   UNL     1      32.051  49.653  42.384  1.00  0.00     0.037 A 
HETATM   24  C   UNL     1      30.670  49.470  42.434  1.00  0.00     0.003 A 
HETATM   25  C   UNL     1      30.048  48.622  41.520  1.00  0.00     0.010 A 
BRANCH  22  26
HETATM   26  O   UNL     1      34.160  49.258  41.492  1.00  0.00    -0.356 OA
HETATM   27  C   UNL     1      34.554  50.498  42.066  1.00  0.00     0.210 C 
ENDBRANCH  22  26
ENDBRANCH  17  20
ENDBRANCH  16  17
ENDBRANCH   1  16
TORSDOF 8
ENDMDL
MODEL 7
REMARK VINA RESULT:      -7.7     12.025     14.389
REMARK  8 active torsions:
REMARK  status: ('A' for Active; 'I' for Inactive)
REMARK    1  A    between atoms: C_2  and  N_3 
REMARK    2  A    between atoms: C_2  and  C_17 
REMARK    3  A    between atoms: N_3  and  C_6 
REMARK    4  A    between atoms: C_6  and  C_7 
REMARK    5  A    between atoms: C_7  and  O_8 
REMARK    6  A    between atoms: C_7  and  C_9 
REMARK    7  A    between atoms: C_11  and  O_12 
REMARK    8  A    between atoms: C_17  and  C_18 
ROOT
HETATM    1  N   UNL     1      34.100  51.774  41.751  1.00  0.00    -0.068 N 
HETATM    2  H   UNL     1      34.402  52.308  42.593  1.00  0.00     0.277 HD
HETATM    3  H   UNL     1      33.159  52.155  41.547  1.00  0.00     0.277 HD
ENDROOT
BRANCH   1   4
HETATM    4  C   UNL     1      35.103  52.054  40.667  1.00  0.00     0.188 C 
HETATM    5  C   UNL     1      35.718  50.742  40.194  1.00  0.00     0.040 C 
BRANCH   4   6
HETATM    6  C   UNL     1      34.420  52.788  39.491  1.00  0.00     0.099 C 
BRANCH   6   7
HETATM    7  C   UNL     1      32.951  52.486  39.432  1.00  0.00     0.078 A 
HETATM    8  S   UNL     1      32.349  51.266  38.397  1.00  0.00    -0.073 SA
HETATM    9  C   UNL     1      30.754  51.564  38.971  1.00  0.00     0.035 A 
HETATM   10  C   UNL     1      30.797  52.584  39.925  1.00  0.00     0.074 A 
HETATM   11  C   UNL     1      29.552  50.937  38.607  1.00  0.00     0.021 A 
HETATM   12  N   UNL     1      32.062  53.107  40.183  1.00  0.00    -0.245 NA
HETATM   13  C   UNL     1      29.593  52.993  40.535  1.00  0.00     0.033 A 
HETATM   14  C   UNL     1      28.390  52.375  40.178  1.00  0.00     0.002 A 
HETATM   15  C   UNL     1      28.373  51.360  39.226  1.00  0.00     0.002 A 
ENDBRANCH   6   7
ENDBRANCH   4   6
ENDBRANCH   1   4
BRANCH   1  16
HETATM   16  C   UNL     1      33.901  50.345  42.174  1.00  0.00     0.269 C 
BRANCH  16  17
HETATM   17  C   UNL     1      32.488  50.222  42.779  1.00  0.00     0.177 C 
BRANCH  17  18
HETATM   18  O   UNL     1      31.937  51.547  42.868  1.00  0.00    -0.389 OA
HETATM   19  H   UNL     1      31.872  51.759  43.822  1.00  0.00     0.210 HD
ENDBRANCH  17  18
BRANCH  17  20
HETATM   20  C   UNL     1      31.603  49.309  41.968  1.00  0.00    -0.025 A 
HETATM   21  C   UNL     1      30.202  49.326  42.116  1.00  0.00     0.046 A 
HETATM   22  C   UNL     1      29.393  48.496  41.337  1.00  0.00     0.068 A 
HETATM   23  C   UNL     1      29.984  47.661  40.389  1.00  0.00     0.037 A 
HETATM   24  C   UNL     1      31.368  47.636  40.228  1.00  0.00     0.003 A 
HETATM   25  C   UNL     1      32.174  48.456  41.014  1.00  0.00     0.010 A 
BRANCH  22  26
HETATM   26  O   UNL     1      28.030  48.422  41.392  1.00  0.00    -0.356 OA
HETATM   27  C   UNL     1      27.361  47.839  40.281  1.00  0.00     0.210 C 
ENDBRANCH  22  26
ENDBRANCH  17  20
ENDBRANCH  16  17
ENDBRANCH   1  16
TORSDOF 8
ENDMDL
MODEL 8
REMARK VINA RESULT:      -7.7     12.254     13.654
REMARK  8 active torsions:
REMARK  status: ('A' for Active; 'I' for Inactive)
REMARK    1  A    between atoms: C_2  and  N_3 
REMARK    2  A    between atoms: C_2  and  C_17 
REMARK    3  A    between atoms: N_3  and  C_6 
REMARK    4  A    between atoms: C_6  and  C_7 
REMARK    5  A    between atoms: C_7  and  O_8 
REMARK    6  A    between atoms: C_7  and  C_9 
REMARK    7  A    between atoms: C_11  and  O_12 
REMARK    8  A    between atoms: C_17  and  C_18 
ROOT
HETATM    1  N   UNL     1      27.514  47.743  38.939  1.00  0.00    -0.068 N 
HETATM    2  H   UNL     1      28.274  48.063  38.302  1.00  0.00     0.277 HD
HETATM    3  H   UNL     1      26.888  47.201  38.316  1.00  0.00     0.277 HD
ENDROOT
BRANCH   1   4
HETATM    4  C   UNL     1      28.156  46.905  40.009  1.00  0.00     0.188 C 
HETATM    5  C   UNL     1      27.398  45.590  40.148  1.00  0.00     0.040 C 
BRANCH   4   6
HETATM    6  C   UNL     1      29.637  46.643  39.658  1.00  0.00     0.099 C 
BRANCH   6   7
HETATM    7  C   UNL     1      30.443  47.908  39.685  1.00  0.00     0.078 A 
HETATM    8  S   UNL     1      31.343  48.343  41.073  1.00  0.00    -0.073 SA
HETATM    9  C   UNL     1      31.916  49.749  40.263  1.00  0.00     0.035 A 
HETATM   10  C   UNL     1      31.374  49.785  38.975  1.00  0.00     0.074 A 
HETATM   11  C   UNL     1      32.785  50.747  40.731  1.00  0.00     0.021 A 
HETATM   12  N   UNL     1      30.530  48.725  38.653  1.00  0.00    -0.245 NA
HETATM   13  C   UNL     1      31.713  50.859  38.127  1.00  0.00     0.033 A 
HETATM   14  C   UNL     1      32.578  51.859  38.585  1.00  0.00     0.002 A 
HETATM   15  C   UNL     1      33.106  51.800  39.871  1.00  0.00     0.002 A 
ENDBRANCH   6   7
ENDBRANCH   4   6
ENDBRANCH   1   4
BRANCH   1  16
HETATM   16  C   UNL     1      26.744  48.962  39.365  1.00  0.00     0.269 C 
BRANCH  16  17
HETATM   17  C   UNL     1      27.104  50.111  38.401  1.00  0.00     0.177 C 
BRANCH  17  18
HETATM   18  O   UNL     1      25.875  50.617  37.852  1.00  0.00    -0.389 OA
HETATM   19  H   UNL     1      25.156  50.058  38.214  1.00  0.00     0.210 HD
ENDBRANCH  17  18
BRANCH  17  20
HETATM   20  C   UNL     1      27.893  51.198  39.085  1.00  0.00    -0.025 A 
HETATM   21  C   UNL     1      28.247  51.100  40.446  1.00  0.00     0.046 A 
HETATM   22  C   UNL     1      29.004  52.101  41.059  1.00  0.00     0.068 A 
HETATM   23  C   UNL     1      29.429  53.195  40.305  1.00  0.00     0.037 A 
HETATM   24  C   UNL     1      29.090  53.304  38.958  1.00  0.00     0.003 A 
HETATM   25  C   UNL     1      28.325  52.311  38.350  1.00  0.00     0.010 A 
BRANCH  22  26
HETATM   26  O   UNL     1      29.404  52.118  42.365  1.00  0.00    -0.356 OA
HETATM   27  C   UNL     1      30.688  52.660  42.649  1.00  0.00     0.210 C 
ENDBRANCH  22  26
ENDBRANCH  17  20
ENDBRANCH  16  17
ENDBRANCH   1  16
TORSDOF 8
ENDMDL
MODEL 9
REMARK VINA RESULT:      -7.6     11.871     12.929
REMARK  8 active torsions:
REMARK  status: ('A' for Active; 'I' for Inactive)
REMARK    1  A    between atoms: C_2  and  N_3 
REMARK    2  A    between atoms: C_2  and  C_17 
REMARK    3  A    between atoms: N_3  and  C_6 
REMARK    4  A    between atoms: C_6  and  C_7 
REMARK    5  A    between atoms: C_7  and  O_8 
REMARK    6  A    between atoms: C_7  and  C_9 
REMARK    7  A    between atoms: C_11  and  O_12 
REMARK    8  A    between atoms: C_17  and  C_18 
ROOT
HETATM    1  N   UNL     1      28.780  48.152  39.019  1.00  0.00    -0.068 N 
HETATM    2  H   UNL     1      29.601  48.400  38.428  1.00  0.00     0.277 HD
HETATM    3  H   UNL     1      28.169  47.618  38.375  1.00  0.00     0.277 HD
ENDROOT
BRANCH   1   4
HETATM    4  C   UNL     1      29.295  47.329  40.168  1.00  0.00     0.188 C 
HETATM    5  C   UNL     1      28.697  45.929  40.097  1.00  0.00     0.040 C 
BRANCH   4   6
HETATM    6  C   UNL     1      30.838  47.264  40.121  1.00  0.00     0.099 C 
BRANCH   6   7
HETATM    7  C   UNL     1      31.461  48.329  40.974  1.00  0.00     0.078 A 
HETATM    8  S   UNL     1      30.604  49.011  42.287  1.00  0.00    -0.073 SA
HETATM    9  C   UNL     1      31.966  49.993  42.667  1.00  0.00     0.035 A 
HETATM   10  C   UNL     1      32.990  49.725  41.754  1.00  0.00     0.074 A 
HETATM   11  C   UNL     1      32.119  50.930  43.701  1.00  0.00     0.021 A 
HETATM   12  N   UNL     1      32.691  48.769  40.787  1.00  0.00    -0.245 NA
HETATM   13  C   UNL     1      34.209  50.421  41.880  1.00  0.00     0.033 A 
HETATM   14  C   UNL     1      34.371  51.358  42.906  1.00  0.00     0.002 A 
HETATM   15  C   UNL     1      33.338  51.607  43.804  1.00  0.00     0.002 A 
ENDBRANCH   6   7
ENDBRANCH   4   6
ENDBRANCH   1   4
BRANCH   1  16
HETATM   16  C   UNL     1      28.055  49.430  39.338  1.00  0.00     0.269 C 
BRANCH  16  17
HETATM   17  C   UNL     1      28.815  50.588  38.660  1.00  0.00     0.177 C 
BRANCH  17  18
HETATM   18  O   UNL     1      27.873  51.309  37.848  1.00  0.00    -0.389 OA
HETATM   19  H   UNL     1      27.586  52.084  38.374  1.00  0.00     0.210 HD
ENDBRANCH  17  18
BRANCH  17  20
HETATM   20  C   UNL     1      29.484  51.491  39.665  1.00  0.00    -0.025 A 
HETATM   21  C   UNL     1      30.818  51.913  39.497  1.00  0.00     0.046 A 
HETATM   22  C   UNL     1      31.415  52.774  40.421  1.00  0.00     0.068 A 
HETATM   23  C   UNL     1      30.670  53.233  41.507  1.00  0.00     0.037 A 
HETATM   24  C   UNL     1      29.349  52.827  41.685  1.00  0.00     0.003 A 
HETATM   25  C   UNL     1      28.758  51.960  40.769  1.00  0.00     0.010 A 
BRANCH  22  26
HETATM   26  O   UNL     1      32.695  53.247  40.367  1.00  0.00    -0.356 OA
HETATM   27  C   UNL     1      33.505  52.819  39.279  1.00  0.00     0.210 C 
ENDBRANCH  22  26
ENDBRANCH  17  20
ENDBRANCH  16  17
ENDBRANCH   1  16
TORSDOF 8
ENDMDL
MODEL 10
REMARK VINA RESULT:      -7.6     11.873     13.856
REMARK  8 active torsions:
REMARK  status: ('A' for Active; 'I' for Inactive)
REMARK    1  A    between atoms: C_2  and  N_3 
REMARK    2  A    between atoms: C_2  and  C_17 
REMARK    3  A    between atoms: N_3  and  C_6 
REMARK    4  A    between atoms: C_6  and  C_7 
REMARK    5  A    between atoms: C_7  and  O_8 
REMARK    6  A    between atoms: C_7  and  C_9 
REMARK    7  A    between atoms: C_11  and  O_12 
REMARK    8  A    between atoms: C_17  and  C_18 
ROOT
HETATM    1  N   UNL     1      28.659  48.197  38.446  1.00  0.00    -0.068 N 
HETATM    2  H   UNL     1      28.728  47.933  37.440  1.00  0.00     0.277 HD
HETATM    3  H   UNL     1      28.770  49.226  38.435  1.00  0.00     0.277 HD
ENDROOT
BRANCH   1   4
HETATM    4  C   UNL     1      27.306  47.751  38.927  1.00  0.00     0.188 C 
HETATM    5  C   UNL     1      27.477  46.758  40.071  1.00  0.00     0.040 C 
BRANCH   4   6
HETATM    6  C   UNL     1      26.480  48.973  39.388  1.00  0.00     0.099 C 
BRANCH   6   7
HETATM    7  C   UNL     1      27.362  50.078  39.887  1.00  0.00     0.078 A 
HETATM    8  S   UNL     1      27.856  50.132  41.524  1.00  0.00    -0.073 SA
HETATM    9  C   UNL     1      28.775  51.551  41.201  1.00  0.00     0.035 A 
HETATM   10  C   UNL     1      28.639  51.884  39.850  1.00  0.00     0.074 A 
HETATM   11  C   UNL     1      29.564  52.313  42.078  1.00  0.00     0.021 A 
HETATM   12  N   UNL     1      27.827  51.034  39.105  1.00  0.00    -0.245 NA
HETATM   13  C   UNL     1      29.315  53.021  39.361  1.00  0.00     0.033 A 
HETATM   14  C   UNL     1      30.102  53.787  40.228  1.00  0.00     0.002 A 
HETATM   15  C   UNL     1      30.223  53.434  41.569  1.00  0.00     0.002 A 
ENDBRANCH   6   7
ENDBRANCH   4   6
ENDBRANCH   1   4
BRANCH   1  16
HETATM   16  C   UNL     1      29.871  47.641  39.139  1.00  0.00     0.269 C 
BRANCH  16  17
HETATM   17  C   UNL     1      31.008  48.675  39.007  1.00  0.00     0.177 C 
BRANCH  17  18
HETATM   18  O   UNL     1      30.516  49.760  38.202  1.00  0.00    -0.389 OA
HETATM   19  H   UNL     1      30.200  49.365  37.364  1.00  0.00     0.210 HD
ENDBRANCH  17  18
BRANCH  17  20
HETATM   20  C   UNL     1      31.493  49.157  40.351  1.00  0.00    -0.025 A 
HETATM   21  C   UNL     1      32.363  50.261  40.463  1.00  0.00     0.046 A 
HETATM   22  C   UNL     1      32.780  50.715  41.715  1.00  0.00     0.068 A 
HETATM   23  C   UNL     1      32.309  50.079  42.864  1.00  0.00     0.037 A 
HETATM   24  C   UNL     1      31.446  48.989  42.770  1.00  0.00     0.003 A 
HETATM   25  C   UNL     1      31.040  48.530  41.519  1.00  0.00     0.010 A 
BRANCH  22  26
HETATM   26  O   UNL     1      33.619  51.767  41.949  1.00  0.00    -0.356 OA
HETATM   27  C   UNL     1      35.013  51.540  41.790  1.00  0.00     0.210 C 
ENDBRANCH  22  26
ENDBRANCH  17  20
ENDBRANCH  16  17
ENDBRANCH   1  16
TORSDOF 8
ENDMDL
