MODEL 1
REMARK VINA RESULT:      -9.6      0.000      0.000
REMARK  9 active torsions:
REMARK  status: ('A' for Active; 'I' for Inactive)
REMARK    1  A    between atoms: C_2  and  C_3 
REMARK    2  A    between atoms: C_3  and  C_4 
REMARK    3  A    between atoms: C_3  and  C_38 
REMARK    4  A    between atoms: C_6  and  C_7 
REMARK    5  A    between atoms: C_14  and  C_15 
REMARK    6  A    between atoms: C_18  and  C_19 
REMARK    7  A    between atoms: C_19  and  N_20 
REMARK       I    between atoms: N_20  and  C_21 
REMARK       I    between atoms: C_21  and  N_22 
REMARK    8  A    between atoms: N_22  and  C_23 
REMARK    9  A    between atoms: C_26  and  O_27 
ROOT
HETATM    1  C   UNL     1      20.895  46.520  46.907  1.00  0.00     0.068 C 
HETATM    2  C   UNL     1      20.036  45.588  47.808  1.00  0.00     0.001 C 
HETATM    3  C   UNL     1      20.943  44.862  48.830  1.00  0.00     0.040 C 
HETATM    4  C   UNL     1      21.959  43.954  48.111  1.00  0.00     0.206 C 
HETATM    5  N   UNL     1      21.803  44.225  46.617  1.00  0.00    -0.065 N 
HETATM    6  H   UNL     1      22.563  43.698  46.133  1.00  0.00     0.280 HD
HETATM    7  C   UNL     1      22.008  45.685  46.243  1.00  0.00     0.246 C 
HETATM    8  C   UNL     1      19.389  44.516  46.902  1.00  0.00     0.033 C 
HETATM    9  C   UNL     1      20.463  43.738  46.133  1.00  0.00     0.236 C 
ENDROOT
BRANCH   1  10
HETATM   10  C   UNL     1      21.415  47.722  47.665  1.00  0.00     0.045 A 
HETATM   11  N   UNL     1      22.745  47.811  47.871  1.00  0.00    -0.233 NA
HETATM   12  C   UNL     1      23.182  48.849  48.616  1.00  0.00     0.160 A 
HETATM   13  N   UNL     1      22.378  49.755  49.195  1.00  0.00    -0.233 NA
HETATM   14  C   UNL     1      21.052  49.652  48.977  1.00  0.00     0.043 A 
HETATM   15  C   UNL     1      20.526  48.642  48.194  1.00  0.00     0.055 A 
BRANCH  12  16
HETATM   16  C   UNL     1      24.631  48.990  48.816  1.00  0.00     0.014 A 
HETATM   17  C   UNL     1      25.351  50.035  48.219  1.00  0.00     0.034 A 
HETATM   18  C   UNL     1      26.715  50.135  48.438  1.00  0.00     0.117 A 
HETATM   19  N   UNL     1      27.412  49.271  49.203  1.00  0.00    -0.273 NA
HETATM   20  C   UNL     1      26.723  48.255  49.756  1.00  0.00     0.117 A 
HETATM   21  C   UNL     1      25.357  48.079  49.599  1.00  0.00     0.034 A 
ENDBRANCH  12  16
BRANCH  14  22
HETATM   22  C   UNL     1      20.177  50.705  49.636  1.00  0.00     0.037 C 
BRANCH  22  23
HETATM   23  C   UNL     1      18.755  50.197  49.964  1.00  0.00     0.006 C 
HETATM   24  C   UNL     1      18.721  49.174  51.092  1.00  0.00     0.006 C 
ENDBRANCH  22  23
BRANCH  22  25
HETATM   25  C   UNL     1      20.096  51.984  48.776  1.00  0.00     0.006 C 
HETATM   26  C   UNL     1      18.668  52.398  48.444  1.00  0.00     0.006 C 
ENDBRANCH  22  25
ENDBRANCH  14  22
ENDBRANCH   1  10
BRANCH   4  27
HETATM   27  C   UNL     1      23.412  44.120  48.630  1.00  0.00     0.157 C 
BRANCH  27  28
HETATM   28  N   UNL     1      23.571  44.223  50.082  1.00  0.00    -0.341 N 
HETATM   29  C   UNL     1      24.771  44.542  50.676  1.00  0.00     0.320 C 
HETATM   30  N   UNL     1      24.629  44.876  51.997  1.00  0.00    -0.309 N 
HETATM   31  O   UNL     1      25.817  44.501  50.037  1.00  0.00    -0.247 OA
HETATM   32  H   UNL     1      23.714  44.756  52.410  1.00  0.00     0.170 HD
HETATM   33  H   UNL     1      22.755  44.562  50.575  1.00  0.00     0.164 HD
BRANCH  30  34
HETATM   34  C   UNL     1      25.627  45.380  52.861  1.00  0.00     0.036 A 
HETATM   35  C   UNL     1      25.832  46.738  53.107  1.00  0.00     0.032 A 
HETATM   36  C   UNL     1      26.811  47.153  54.017  1.00  0.00     0.039 A 
HETATM   37  C   UNL     1      27.588  46.222  54.703  1.00  0.00     0.068 A 
HETATM   38  C   UNL     1      27.407  44.866  54.444  1.00  0.00     0.039 A 
HETATM   39  C   UNL     1      26.434  44.449  53.526  1.00  0.00     0.032 A 
BRANCH  37  40
HETATM   40  O   UNL     1      28.487  46.760  55.579  1.00  0.00    -0.356 OA
HETATM   41  C   UNL     1      29.518  45.896  56.042  1.00  0.00     0.210 C 
ENDBRANCH  37  40
ENDBRANCH  30  34
ENDBRANCH  27  28
ENDBRANCH   4  27
TORSDOF 9
ENDMDL
MODEL 2
REMARK VINA RESULT:      -9.3      2.628      7.360
REMARK  9 active torsions:
REMARK  status: ('A' for Active; 'I' for Inactive)
REMARK    1  A    between atoms: C_2  and  C_3 
REMARK    2  A    between atoms: C_3  and  C_4 
REMARK    3  A    between atoms: C_3  and  C_38 
REMARK    4  A    between atoms: C_6  and  C_7 
REMARK    5  A    between atoms: C_14  and  C_15 
REMARK    6  A    between atoms: C_18  and  C_19 
REMARK    7  A    between atoms: C_19  and  N_20 
REMARK       I    between atoms: N_20  and  C_21 
REMARK       I    between atoms: C_21  and  N_22 
REMARK    8  A    between atoms: N_22  and  C_23 
REMARK    9  A    between atoms: C_26  and  O_27 
ROOT
HETATM    1  C   UNL     1      24.989  43.356  50.087  1.00  0.00     0.068 C 
HETATM    2  C   UNL     1      25.006  43.447  48.534  1.00  0.00     0.001 C 
HETATM    3  C   UNL     1      23.792  44.269  48.041  1.00  0.00     0.040 C 
HETATM    4  C   UNL     1      22.471  43.572  48.421  1.00  0.00     0.206 C 
HETATM    5  N   UNL     1      22.843  42.381  49.299  1.00  0.00    -0.065 N 
HETATM    6  H   UNL     1      21.949  41.972  49.650  1.00  0.00     0.280 HD
HETATM    7  C   UNL     1      23.637  42.769  50.538  1.00  0.00     0.246 C 
HETATM    8  C   UNL     1      24.868  42.013  47.974  1.00  0.00     0.033 C 
HETATM    9  C   UNL     1      23.589  41.349  48.494  1.00  0.00     0.236 C 
ENDROOT
BRANCH   1  10
HETATM   10  C   UNL     1      25.315  44.683  50.738  1.00  0.00     0.045 A 
HETATM   11  N   UNL     1      25.495  45.752  49.935  1.00  0.00    -0.233 NA
HETATM   12  C   UNL     1      25.862  46.909  50.529  1.00  0.00     0.160 A 
HETATM   13  N   UNL     1      26.101  47.042  51.843  1.00  0.00    -0.233 NA
HETATM   14  C   UNL     1      25.915  45.963  52.630  1.00  0.00     0.043 A 
HETATM   15  C   UNL     1      25.502  44.752  52.107  1.00  0.00     0.055 A 
BRANCH  12  16
HETATM   16  C   UNL     1      26.020  48.097  49.679  1.00  0.00     0.014 A 
HETATM   17  C   UNL     1      27.281  48.670  49.456  1.00  0.00     0.034 A 
HETATM   18  C   UNL     1      27.387  49.787  48.642  1.00  0.00     0.117 A 
HETATM   19  N   UNL     1      26.333  50.373  48.041  1.00  0.00    -0.273 NA
HETATM   20  C   UNL     1      25.121  49.836  48.276  1.00  0.00     0.117 A 
HETATM   21  C   UNL     1      24.920  48.716  49.068  1.00  0.00     0.034 A 
ENDBRANCH  12  16
BRANCH  14  22
HETATM   22  C   UNL     1      26.180  46.158  54.113  1.00  0.00     0.037 C 
BRANCH  22  23
HETATM   23  C   UNL     1      27.030  47.411  54.421  1.00  0.00     0.006 C 
HETATM   24  C   UNL     1      26.324  48.415  55.325  1.00  0.00     0.006 C 
ENDBRANCH  22  23
BRANCH  22  25
HETATM   25  C   UNL     1      26.839  44.907  54.733  1.00  0.00     0.006 C 
HETATM   26  C   UNL     1      28.341  45.057  54.942  1.00  0.00     0.006 C 
ENDBRANCH  22  25
ENDBRANCH  14  22
ENDBRANCH   1  10
BRANCH   4  27
HETATM   27  C   UNL     1      21.432  44.527  49.067  1.00  0.00     0.157 C 
BRANCH  27  28
HETATM   28  N   UNL     1      21.792  45.946  49.102  1.00  0.00    -0.341 N 
HETATM   29  C   UNL     1      20.883  46.949  48.853  1.00  0.00     0.320 C 
HETATM   30  N   UNL     1      21.348  48.181  49.229  1.00  0.00    -0.309 N 
HETATM   31  O   UNL     1      19.798  46.698  48.339  1.00  0.00    -0.247 OA
HETATM   32  H   UNL     1      22.309  48.241  49.537  1.00  0.00     0.170 HD
HETATM   33  H   UNL     1      22.507  46.185  49.777  1.00  0.00     0.164 HD
BRANCH  30  34
HETATM   34  C   UNL     1      20.628  49.397  49.239  1.00  0.00     0.036 A 
HETATM   35  C   UNL     1      20.941  50.495  48.437  1.00  0.00     0.032 A 
HETATM   36  C   UNL     1      20.146  51.646  48.471  1.00  0.00     0.039 A 
HETATM   37  C   UNL     1      19.021  51.714  49.292  1.00  0.00     0.068 A 
HETATM   38  C   UNL     1      18.717  50.632  50.114  1.00  0.00     0.039 A 
HETATM   39  C   UNL     1      19.518  49.482  50.088  1.00  0.00     0.032 A 
BRANCH  37  40
HETATM   40  O   UNL     1      18.320  52.882  49.209  1.00  0.00    -0.356 OA
HETATM   41  C   UNL     1      16.988  52.861  49.709  1.00  0.00     0.210 C 
ENDBRANCH  37  40
ENDBRANCH  30  34
ENDBRANCH  27  28
ENDBRANCH   4  27
TORSDOF 9
ENDMDL
MODEL 3
REMARK VINA RESULT:      -8.8      1.099      2.001
REMARK  9 active torsions:
REMARK  status: ('A' for Active; 'I' for Inactive)
REMARK    1  A    between atoms: C_2  and  C_3 
REMARK    2  A    between atoms: C_3  and  C_4 
REMARK    3  A    between atoms: C_3  and  C_38 
REMARK    4  A    between atoms: C_6  and  C_7 
REMARK    5  A    between atoms: C_14  and  C_15 
REMARK    6  A    between atoms: C_18  and  C_19 
REMARK    7  A    between atoms: C_19  and  N_20 
REMARK       I    between atoms: N_20  and  C_21 
REMARK       I    between atoms: C_21  and  N_22 
REMARK    8  A    between atoms: N_22  and  C_23 
REMARK    9  A    between atoms: C_26  and  O_27 
ROOT
HETATM    1  C   UNL     1      21.088  45.931  46.690  1.00  0.00     0.068 C 
HETATM    2  C   UNL     1      20.363  44.919  47.623  1.00  0.00     0.001 C 
HETATM    3  C   UNL     1      21.365  44.343  48.653  1.00  0.00     0.040 C 
HETATM    4  C   UNL     1      22.483  43.555  47.945  1.00  0.00     0.206 C 
HETATM    5  N   UNL     1      22.282  43.765  46.447  1.00  0.00    -0.065 N 
HETATM    6  H   UNL     1      23.100  43.328  45.967  1.00  0.00     0.280 HD
HETATM    7  C   UNL     1      22.294  45.229  46.034  1.00  0.00     0.246 C 
HETATM    8  C   UNL     1      19.853  43.750  46.751  1.00  0.00     0.033 C 
HETATM    9  C   UNL     1      21.012  43.097  45.990  1.00  0.00     0.236 C 
ENDROOT
BRANCH   1  10
HETATM   10  C   UNL     1      21.455  47.209  47.412  1.00  0.00     0.045 A 
HETATM   11  N   UNL     1      22.755  47.418  47.703  1.00  0.00    -0.233 NA
HETATM   12  C   UNL     1      23.053  48.526  48.416  1.00  0.00     0.160 A 
HETATM   13  N   UNL     1      22.140  49.391  48.886  1.00  0.00    -0.233 NA
HETATM   14  C   UNL     1      20.846  49.166  48.585  1.00  0.00     0.043 A 
HETATM   15  C   UNL     1      20.460  48.077  47.826  1.00  0.00     0.055 A 
BRANCH  12  16
HETATM   16  C   UNL     1      24.468  48.796  48.706  1.00  0.00     0.014 A 
HETATM   17  C   UNL     1      25.204  47.975  49.573  1.00  0.00     0.034 A 
HETATM   18  C   UNL     1      26.538  48.262  49.814  1.00  0.00     0.117 A 
HETATM   19  N   UNL     1      27.188  49.305  49.261  1.00  0.00    -0.273 NA
HETATM   20  C   UNL     1      26.472  50.106  48.448  1.00  0.00     0.117 A 
HETATM   21  C   UNL     1      25.137  49.893  48.142  1.00  0.00     0.034 A 
ENDBRANCH  12  16
BRANCH  14  22
HETATM   22  C   UNL     1      19.845  50.175  49.121  1.00  0.00     0.037 C 
BRANCH  22  23
HETATM   23  C   UNL     1      20.202  51.637  48.767  1.00  0.00     0.006 C 
HETATM   24  C   UNL     1      18.987  52.499  48.449  1.00  0.00     0.006 C 
ENDBRANCH  22  23
BRANCH  22  25
HETATM   25  C   UNL     1      19.666  50.030  50.648  1.00  0.00     0.006 C 
HETATM   26  C   UNL     1      18.651  48.962  51.037  1.00  0.00     0.006 C 
ENDBRANCH  22  25
ENDBRANCH  14  22
ENDBRANCH   1  10
BRANCH   4  27
HETATM   27  C   UNL     1      23.907  43.920  48.443  1.00  0.00     0.157 C 
BRANCH  27  28
HETATM   28  N   UNL     1      24.303  43.358  49.736  1.00  0.00    -0.341 N 
HETATM   29  C   UNL     1      25.515  43.634  50.326  1.00  0.00     0.320 C 
HETATM   30  N   UNL     1      25.555  43.257  51.642  1.00  0.00    -0.309 N 
HETATM   31  O   UNL     1      26.421  44.152  49.682  1.00  0.00    -0.247 OA
HETATM   32  H   UNL     1      24.764  42.741  52.001  1.00  0.00     0.170 HD
HETATM   33  H   UNL     1      23.542  43.216  50.388  1.00  0.00     0.164 HD
BRANCH  30  34
HETATM   34  C   UNL     1      26.588  43.514  52.571  1.00  0.00     0.036 A 
HETATM   35  C   UNL     1      27.651  42.645  52.815  1.00  0.00     0.032 A 
HETATM   36  C   UNL     1      28.662  42.997  53.717  1.00  0.00     0.039 A 
HETATM   37  C   UNL     1      28.635  44.225  54.376  1.00  0.00     0.068 A 
HETATM   38  C   UNL     1      27.564  45.087  54.157  1.00  0.00     0.039 A 
HETATM   39  C   UNL     1      26.546  44.732  53.262  1.00  0.00     0.032 A 
BRANCH  37  40
HETATM   40  O   UNL     1      29.694  44.453  55.207  1.00  0.00    -0.356 OA
HETATM   41  C   UNL     1      30.620  43.385  55.364  1.00  0.00     0.210 C 
ENDBRANCH  37  40
ENDBRANCH  30  34
ENDBRANCH  27  28
ENDBRANCH   4  27
TORSDOF 9
ENDMDL
MODEL 4
REMARK VINA RESULT:      -8.6      2.744      7.686
REMARK  9 active torsions:
REMARK  status: ('A' for Active; 'I' for Inactive)
REMARK    1  A    between atoms: C_2  and  C_3 
REMARK    2  A    between atoms: C_3  and  C_4 
REMARK    3  A    between atoms: C_3  and  C_38 
REMARK    4  A    between atoms: C_6  and  C_7 
REMARK    5  A    between atoms: C_14  and  C_15 
REMARK    6  A    between atoms: C_18  and  C_19 
REMARK    7  A    between atoms: C_19  and  N_20 
REMARK       I    between atoms: N_20  and  C_21 
REMARK       I    between atoms: C_21  and  N_22 
REMARK    8  A    between atoms: N_22  and  C_23 
REMARK    9  A    between atoms: C_26  and  O_27 
ROOT
HETATM    1  C   UNL     1      26.380  43.410  50.853  1.00  0.00     0.068 C 
HETATM    2  C   UNL     1      26.406  43.286  49.303  1.00  0.00     0.001 C 
HETATM    3  C   UNL     1      25.008  43.614  48.725  1.00  0.00     0.040 C 
HETATM    4  C   UNL     1      23.960  42.600  49.224  1.00  0.00     0.206 C 
HETATM    5  N   UNL     1      24.662  41.717  50.252  1.00  0.00    -0.065 N 
HETATM    6  H   UNL     1      23.932  41.104  50.675  1.00  0.00     0.280 HD
HETATM    7  C   UNL     1      25.266  42.500  51.408  1.00  0.00     0.246 C 
HETATM    8  C   UNL     1      26.733  41.817  48.950  1.00  0.00     0.033 C 
HETATM    9  C   UNL     1      25.711  40.868  49.583  1.00  0.00     0.236 C 
ENDROOT
BRANCH   1  10
HETATM   10  C   UNL     1      26.262  44.850  51.306  1.00  0.00     0.045 A 
HETATM   11  N   UNL     1      26.060  45.793  50.364  1.00  0.00    -0.233 NA
HETATM   12  C   UNL     1      26.036  47.078  50.780  1.00  0.00     0.160 A 
HETATM   13  N   UNL     1      26.246  47.467  52.047  1.00  0.00    -0.233 NA
HETATM   14  C   UNL     1      26.444  46.511  52.975  1.00  0.00     0.043 A 
HETATM   15  C   UNL     1      26.445  45.169  52.640  1.00  0.00     0.055 A 
BRANCH  12  16
HETATM   16  C   UNL     1      25.773  48.120  49.777  1.00  0.00     0.014 A 
HETATM   17  C   UNL     1      24.469  48.400  49.342  1.00  0.00     0.034 A 
HETATM   18  C   UNL     1      24.265  49.395  48.400  1.00  0.00     0.117 A 
HETATM   19  N   UNL     1      25.260  50.124  47.858  1.00  0.00    -0.273 NA
HETATM   20  C   UNL     1      26.513  49.837  48.259  1.00  0.00     0.117 A 
HETATM   21  C   UNL     1      26.813  48.866  49.202  1.00  0.00     0.034 A 
ENDBRANCH  12  16
BRANCH  14  22
HETATM   22  C   UNL     1      26.663  46.989  54.401  1.00  0.00     0.037 C 
BRANCH  22  23
HETATM   23  C   UNL     1      25.913  48.302  54.725  1.00  0.00     0.006 C 
HETATM   24  C   UNL     1      26.245  48.865  56.101  1.00  0.00     0.006 C 
ENDBRANCH  22  23
BRANCH  22  25
HETATM   25  C   UNL     1      28.166  47.148  54.715  1.00  0.00     0.006 C 
HETATM   26  C   UNL     1      28.740  45.987  55.517  1.00  0.00     0.006 C 
ENDBRANCH  22  25
ENDBRANCH  14  22
ENDBRANCH   1  10
BRANCH   4  27
HETATM   27  C   UNL     1      22.660  43.265  49.753  1.00  0.00     0.157 C 
BRANCH  27  28
HETATM   28  N   UNL     1      22.527  44.704  49.515  1.00  0.00    -0.341 N 
HETATM   29  C   UNL     1      21.439  45.253  48.876  1.00  0.00     0.320 C 
HETATM   30  N   UNL     1      21.376  46.613  49.026  1.00  0.00    -0.309 N 
HETATM   31  O   UNL     1      20.658  44.545  48.249  1.00  0.00    -0.247 OA
HETATM   32  H   UNL     1      22.157  47.067  49.480  1.00  0.00     0.170 HD
HETATM   33  H   UNL     1      22.934  45.291  50.231  1.00  0.00     0.164 HD
BRANCH  30  34
HETATM   34  C   UNL     1      20.327  47.467  48.618  1.00  0.00     0.036 A 
HETATM   35  C   UNL     1      19.190  47.727  49.383  1.00  0.00     0.032 A 
HETATM   36  C   UNL     1      18.219  48.626  48.927  1.00  0.00     0.039 A 
HETATM   37  C   UNL     1      18.375  49.289  47.710  1.00  0.00     0.068 A 
HETATM   38  C   UNL     1      19.495  49.015  46.929  1.00  0.00     0.039 A 
HETATM   39  C   UNL     1      20.463  48.107  47.380  1.00  0.00     0.032 A 
BRANCH  37  40
HETATM   40  O   UNL     1      17.369  50.157  47.397  1.00  0.00    -0.356 OA
HETATM   41  C   UNL     1      17.648  51.113  46.381  1.00  0.00     0.210 C 
ENDBRANCH  37  40
ENDBRANCH  30  34
ENDBRANCH  27  28
ENDBRANCH   4  27
TORSDOF 9
ENDMDL
MODEL 5
REMARK VINA RESULT:      -8.6      3.966      9.357
REMARK  9 active torsions:
REMARK  status: ('A' for Active; 'I' for Inactive)
REMARK    1  A    between atoms: C_2  and  C_3 
REMARK    2  A    between atoms: C_3  and  C_4 
REMARK    3  A    between atoms: C_3  and  C_38 
REMARK    4  A    between atoms: C_6  and  C_7 
REMARK    5  A    between atoms: C_14  and  C_15 
REMARK    6  A    between atoms: C_18  and  C_19 
REMARK    7  A    between atoms: C_19  and  N_20 
REMARK       I    between atoms: N_20  and  C_21 
REMARK       I    between atoms: C_21  and  N_22 
REMARK    8  A    between atoms: N_22  and  C_23 
REMARK    9  A    between atoms: C_26  and  O_27 
ROOT
HETATM    1  C   UNL     1      24.718  42.741  50.986  1.00  0.00     0.068 C 
HETATM    2  C   UNL     1      24.468  42.751  49.451  1.00  0.00     0.001 C 
HETATM    3  C   UNL     1      25.090  44.022  48.825  1.00  0.00     0.040 C 
HETATM    4  C   UNL     1      24.417  45.291  49.382  1.00  0.00     0.206 C 
HETATM    5  N   UNL     1      23.471  44.832  50.488  1.00  0.00    -0.065 N 
HETATM    6  H   UNL     1      23.097  45.693  50.944  1.00  0.00     0.280 HD
HETATM    7  C   UNL     1      24.165  44.047  51.591  1.00  0.00     0.246 C 
HETATM    8  C   UNL     1      22.940  42.806  49.220  1.00  0.00     0.033 C 
HETATM    9  C   UNL     1      22.333  44.034  49.907  1.00  0.00     0.236 C 
ENDROOT
BRANCH   1  10
HETATM   10  C   UNL     1      26.172  42.490  51.324  1.00  0.00     0.045 A 
HETATM   11  N   UNL     1      26.755  41.383  50.821  1.00  0.00    -0.233 NA
HETATM   12  C   UNL     1      28.028  41.136  51.198  1.00  0.00     0.160 A 
HETATM   13  N   UNL     1      28.720  41.891  52.066  1.00  0.00    -0.233 NA
HETATM   14  C   UNL     1      28.122  42.994  52.557  1.00  0.00     0.043 A 
HETATM   15  C   UNL     1      26.834  43.340  52.192  1.00  0.00     0.055 A 
BRANCH  12  16
HETATM   16  C   UNL     1      28.698  39.958  50.628  1.00  0.00     0.014 A 
HETATM   17  C   UNL     1      29.384  39.045  51.442  1.00  0.00     0.034 A 
HETATM   18  C   UNL     1      29.996  37.945  50.865  1.00  0.00     0.117 A 
HETATM   19  N   UNL     1      29.977  37.690  49.541  1.00  0.00    -0.273 NA
HETATM   20  C   UNL     1      29.338  38.581  48.759  1.00  0.00     0.117 A 
HETATM   21  C   UNL     1      28.691  39.705  49.248  1.00  0.00     0.034 A 
ENDBRANCH  12  16
BRANCH  14  22
HETATM   22  C   UNL     1      28.942  43.831  53.525  1.00  0.00     0.037 C 
BRANCH  22  23
HETATM   23  C   UNL     1      30.162  43.076  54.101  1.00  0.00     0.006 C 
HETATM   24  C   UNL     1      30.652  43.642  55.429  1.00  0.00     0.006 C 
ENDBRANCH  22  23
BRANCH  22  25
HETATM   25  C   UNL     1      28.068  44.378  54.673  1.00  0.00     0.006 C 
HETATM   26  C   UNL     1      27.915  45.894  54.646  1.00  0.00     0.006 C 
ENDBRANCH  22  25
ENDBRANCH  14  22
ENDBRANCH   1  10
BRANCH   4  27
HETATM   27  C   UNL     1      25.428  46.379  49.834  1.00  0.00     0.157 C 
BRANCH  27  28
HETATM   28  N   UNL     1      25.020  47.769  49.618  1.00  0.00    -0.341 N 
HETATM   29  C   UNL     1      23.785  48.111  49.116  1.00  0.00     0.320 C 
HETATM   30  N   UNL     1      23.505  49.442  49.277  1.00  0.00    -0.309 N 
HETATM   31  O   UNL     1      23.069  47.267  48.585  1.00  0.00    -0.247 OA
HETATM   32  H   UNL     1      24.243  50.031  49.635  1.00  0.00     0.170 HD
HETATM   33  H   UNL     1      25.401  48.430  50.282  1.00  0.00     0.164 HD
BRANCH  30  34
HETATM   34  C   UNL     1      22.283  50.095  48.999  1.00  0.00     0.036 A 
HETATM   35  C   UNL     1      21.719  50.187  47.726  1.00  0.00     0.032 A 
HETATM   36  C   UNL     1      20.479  50.809  47.544  1.00  0.00     0.039 A 
HETATM   37  C   UNL     1      19.777  51.333  48.629  1.00  0.00     0.068 A 
HETATM   38  C   UNL     1      20.344  51.267  49.898  1.00  0.00     0.039 A 
HETATM   39  C   UNL     1      21.591  50.654  50.081  1.00  0.00     0.032 A 
BRANCH  37  40
HETATM   40  O   UNL     1      18.569  51.888  48.315  1.00  0.00    -0.356 OA
HETATM   41  C   UNL     1      18.029  51.556  47.042  1.00  0.00     0.210 C 
ENDBRANCH  37  40
ENDBRANCH  30  34
ENDBRANCH  27  28
ENDBRANCH   4  27
TORSDOF 9
ENDMDL
MODEL 6
REMARK VINA RESULT:      -8.6      3.342      8.219
REMARK  9 active torsions:
REMARK  status: ('A' for Active; 'I' for Inactive)
REMARK    1  A    between atoms: C_2  and  C_3 
REMARK    2  A    between atoms: C_3  and  C_4 
REMARK    3  A    between atoms: C_3  and  C_38 
REMARK    4  A    between atoms: C_6  and  C_7 
REMARK    5  A    between atoms: C_14  and  C_15 
REMARK    6  A    between atoms: C_18  and  C_19 
REMARK    7  A    between atoms: C_19  and  N_20 
REMARK       I    between atoms: N_20  and  C_21 
REMARK       I    between atoms: C_21  and  N_22 
REMARK    8  A    between atoms: N_22  and  C_23 
REMARK    9  A    between atoms: C_26  and  O_27 
ROOT
HETATM    1  C   UNL     1      27.662  41.306  50.957  1.00  0.00     0.068 C 
HETATM    2  C   UNL     1      27.846  41.556  49.434  1.00  0.00     0.001 C 
HETATM    3  C   UNL     1      26.555  42.169  48.841  1.00  0.00     0.040 C 
HETATM    4  C   UNL     1      25.373  41.190  48.980  1.00  0.00     0.206 C 
HETATM    5  N   UNL     1      25.878  40.012  49.808  1.00  0.00    -0.065 N 
HETATM    6  H   UNL     1      25.054  39.401  50.001  1.00  0.00     0.280 HD
HETATM    7  C   UNL     1      26.418  40.420  51.171  1.00  0.00     0.246 C 
HETATM    8  C   UNL     1      28.079  40.189  48.752  1.00  0.00     0.033 C 
HETATM    9  C   UNL     1      26.914  39.236  49.039  1.00  0.00     0.236 C 
ENDROOT
BRANCH   1  10
HETATM   10  C   UNL     1      27.623  42.597  51.746  1.00  0.00     0.045 A 
HETATM   11  N   UNL     1      28.456  42.719  52.799  1.00  0.00    -0.233 NA
HETATM   12  C   UNL     1      28.350  43.846  53.536  1.00  0.00     0.160 A 
HETATM   13  N   UNL     1      27.446  44.813  53.314  1.00  0.00    -0.233 NA
HETATM   14  C   UNL     1      26.622  44.675  52.256  1.00  0.00     0.043 A 
HETATM   15  C   UNL     1      26.691  43.570  51.428  1.00  0.00     0.055 A 
BRANCH  12  16
HETATM   16  C   UNL     1      29.279  44.020  54.662  1.00  0.00     0.014 A 
HETATM   17  C   UNL     1      29.266  45.185  55.443  1.00  0.00     0.034 A 
HETATM   18  C   UNL     1      30.155  45.306  56.499  1.00  0.00     0.117 A 
HETATM   19  N   UNL     1      31.053  44.358  56.830  1.00  0.00    -0.273 NA
HETATM   20  C   UNL     1      31.079  43.251  56.064  1.00  0.00     0.117 A 
HETATM   21  C   UNL     1      30.224  43.038  54.993  1.00  0.00     0.034 A 
ENDBRANCH  12  16
BRANCH  14  22
HETATM   22  C   UNL     1      25.624  45.797  52.029  1.00  0.00     0.037 C 
BRANCH  22  23
HETATM   23  C   UNL     1      25.142  45.897  50.563  1.00  0.00     0.006 C 
HETATM   24  C   UNL     1      25.591  47.174  49.864  1.00  0.00     0.006 C 
ENDBRANCH  22  23
BRANCH  22  25
HETATM   25  C   UNL     1      26.192  47.156  52.492  1.00  0.00     0.006 C 
HETATM   26  C   UNL     1      25.792  47.522  53.916  1.00  0.00     0.006 C 
ENDBRANCH  22  25
ENDBRANCH  14  22
ENDBRANCH   1  10
BRANCH   4  27
HETATM   27  C   UNL     1      24.087  41.850  49.546  1.00  0.00     0.157 C 
BRANCH  27  28
HETATM   28  N   UNL     1      23.429  42.832  48.681  1.00  0.00    -0.341 N 
HETATM   29  C   UNL     1      22.542  43.768  49.162  1.00  0.00     0.320 C 
HETATM   30  N   UNL     1      22.284  44.759  48.253  1.00  0.00    -0.309 N 
HETATM   31  O   UNL     1      22.065  43.659  50.287  1.00  0.00    -0.247 OA
HETATM   32  H   UNL     1      22.671  44.650  47.325  1.00  0.00     0.170 HD
HETATM   33  H   UNL     1      23.986  43.144  47.896  1.00  0.00     0.164 HD
BRANCH  30  34
HETATM   34  C   UNL     1      21.532  45.936  48.466  1.00  0.00     0.036 A 
HETATM   35  C   UNL     1      20.142  45.964  48.578  1.00  0.00     0.032 A 
HETATM   36  C   UNL     1      19.476  47.167  48.839  1.00  0.00     0.039 A 
HETATM   37  C   UNL     1      20.187  48.354  49.007  1.00  0.00     0.068 A 
HETATM   38  C   UNL     1      21.572  48.339  48.873  1.00  0.00     0.039 A 
HETATM   39  C   UNL     1      22.240  47.137  48.601  1.00  0.00     0.032 A 
BRANCH  37  40
HETATM   40  O   UNL     1      19.418  49.448  49.283  1.00  0.00    -0.356 OA
HETATM   41  C   UNL     1      18.841  49.508  50.583  1.00  0.00     0.210 C 
ENDBRANCH  37  40
ENDBRANCH  30  34
ENDBRANCH  27  28
ENDBRANCH   4  27
TORSDOF 9
ENDMDL
MODEL 7
REMARK VINA RESULT:      -8.4      4.191      8.329
REMARK  9 active torsions:
REMARK  status: ('A' for Active; 'I' for Inactive)
REMARK    1  A    between atoms: C_2  and  C_3 
REMARK    2  A    between atoms: C_3  and  C_4 
REMARK    3  A    between atoms: C_3  and  C_38 
REMARK    4  A    between atoms: C_6  and  C_7 
REMARK    5  A    between atoms: C_14  and  C_15 
REMARK    6  A    between atoms: C_18  and  C_19 
REMARK    7  A    between atoms: C_19  and  N_20 
REMARK       I    between atoms: N_20  and  C_21 
REMARK       I    between atoms: C_21  and  N_22 
REMARK    8  A    between atoms: N_22  and  C_23 
REMARK    9  A    between atoms: C_26  and  O_27 
ROOT
HETATM    1  C   UNL     1      20.997  45.892  47.624  1.00  0.00     0.068 C 
HETATM    2  C   UNL     1      20.569  46.022  46.135  1.00  0.00     0.001 C 
HETATM    3  C   UNL     1      19.273  46.862  46.030  1.00  0.00     0.040 C 
HETATM    4  C   UNL     1      18.109  46.160  46.756  1.00  0.00     0.206 C 
HETATM    5  N   UNL     1      18.704  44.946  47.462  1.00  0.00    -0.065 N 
HETATM    6  H   UNL     1      17.944  44.532  48.046  1.00  0.00     0.280 HD
HETATM    7  C   UNL     1      19.824  45.299  48.430  1.00  0.00     0.246 C 
HETATM    8  C   UNL     1      20.260  44.604  45.604  1.00  0.00     0.033 C 
HETATM    9  C   UNL     1      19.177  43.932  46.454  1.00  0.00     0.236 C 
ENDROOT
BRANCH   1  10
HETATM   10  C   UNL     1      21.510  47.201  48.185  1.00  0.00     0.045 A 
HETATM   11  N   UNL     1      22.845  47.364  48.286  1.00  0.00    -0.233 NA
HETATM   12  C   UNL     1      23.281  48.506  48.861  1.00  0.00     0.160 A 
HETATM   13  N   UNL     1      22.476  49.450  49.373  1.00  0.00    -0.233 NA
HETATM   14  C   UNL     1      21.145  49.271  49.262  1.00  0.00     0.043 A 
HETATM   15  C   UNL     1      20.616  48.148  48.652  1.00  0.00     0.055 A 
BRANCH  12  16
HETATM   16  C   UNL     1      24.732  48.724  48.942  1.00  0.00     0.014 A 
HETATM   17  C   UNL     1      25.558  47.866  49.683  1.00  0.00     0.034 A 
HETATM   18  C   UNL     1      26.922  48.104  49.727  1.00  0.00     0.117 A 
HETATM   19  N   UNL     1      27.520  49.132  49.093  1.00  0.00    -0.273 NA
HETATM   20  C   UNL     1      26.722  49.968  48.402  1.00  0.00     0.117 A 
HETATM   21  C   UNL     1      25.350  49.804  48.294  1.00  0.00     0.034 A 
ENDBRANCH  12  16
BRANCH  14  22
HETATM   22  C   UNL     1      20.267  50.368  49.839  1.00  0.00     0.037 C 
BRANCH  22  23
HETATM   23  C   UNL     1      18.812  49.913  50.098  1.00  0.00     0.006 C 
HETATM   24  C   UNL     1      18.673  48.977  51.292  1.00  0.00     0.006 C 
ENDBRANCH  22  23
BRANCH  22  25
HETATM   25  C   UNL     1      20.275  51.624  48.941  1.00  0.00     0.006 C 
HETATM   26  C   UNL     1      18.951  52.378  48.946  1.00  0.00     0.006 C 
ENDBRANCH  22  25
ENDBRANCH  14  22
ENDBRANCH   1  10
BRANCH   4  27
HETATM   27  C   UNL     1      17.309  47.102  47.695  1.00  0.00     0.157 C 
BRANCH  27  28
HETATM   28  N   UNL     1      17.165  48.490  47.249  1.00  0.00    -0.341 N 
HETATM   29  C   UNL     1      16.177  49.323  47.723  1.00  0.00     0.320 C 
HETATM   30  N   UNL     1      16.405  50.636  47.408  1.00  0.00    -0.309 N 
HETATM   31  O   UNL     1      15.220  48.870  48.343  1.00  0.00    -0.247 OA
HETATM   32  H   UNL     1      17.183  50.839  46.796  1.00  0.00     0.170 HD
HETATM   33  H   UNL     1      18.034  48.955  47.023  1.00  0.00     0.164 HD
BRANCH  30  34
HETATM   34  C   UNL     1      15.669  51.759  47.850  1.00  0.00     0.036 A 
HETATM   35  C   UNL     1      15.106  52.707  46.996  1.00  0.00     0.032 A 
HETATM   36  C   UNL     1      14.348  53.764  47.513  1.00  0.00     0.039 A 
HETATM   37  C   UNL     1      14.128  53.881  48.884  1.00  0.00     0.068 A 
HETATM   38  C   UNL     1      14.708  52.953  49.745  1.00  0.00     0.039 A 
HETATM   39  C   UNL     1      15.476  51.900  49.230  1.00  0.00     0.032 A 
BRANCH  37  40
HETATM   40  O   UNL     1      13.350  54.942  49.252  1.00  0.00    -0.356 OA
HETATM   41  C   UNL     1      12.025  54.642  49.672  1.00  0.00     0.210 C 
ENDBRANCH  37  40
ENDBRANCH  30  34
ENDBRANCH  27  28
ENDBRANCH   4  27
TORSDOF 9
ENDMDL
MODEL 8
REMARK VINA RESULT:      -8.0      3.204      8.713
REMARK  9 active torsions:
REMARK  status: ('A' for Active; 'I' for Inactive)
REMARK    1  A    between atoms: C_2  and  C_3 
REMARK    2  A    between atoms: C_3  and  C_4 
REMARK    3  A    between atoms: C_3  and  C_38 
REMARK    4  A    between atoms: C_6  and  C_7 
REMARK    5  A    between atoms: C_14  and  C_15 
REMARK    6  A    between atoms: C_18  and  C_19 
REMARK    7  A    between atoms: C_19  and  N_20 
REMARK       I    between atoms: N_20  and  C_21 
REMARK       I    between atoms: C_21  and  N_22 
REMARK    8  A    between atoms: N_22  and  C_23 
REMARK    9  A    between atoms: C_26  and  O_27 
ROOT
HETATM    1  C   UNL     1      27.511  40.961  50.941  1.00  0.00     0.068 C 
HETATM    2  C   UNL     1      27.945  41.141  49.459  1.00  0.00     0.001 C 
HETATM    3  C   UNL     1      26.839  41.885  48.673  1.00  0.00     0.040 C 
HETATM    4  C   UNL     1      25.538  41.059  48.647  1.00  0.00     0.206 C 
HETATM    5  N   UNL     1      25.768  39.856  49.556  1.00  0.00    -0.065 N 
HETATM    6  H   UNL     1      24.856  39.354  49.631  1.00  0.00     0.280 HD
HETATM    7  C   UNL     1      26.150  40.238  50.978  1.00  0.00     0.246 C 
HETATM    8  C   UNL     1      28.105  39.735  48.837  1.00  0.00     0.033 C 
HETATM    9  C   UNL     1      26.802  38.938  48.959  1.00  0.00     0.236 C 
ENDROOT
BRANCH   1  10
HETATM   10  C   UNL     1      27.515  42.272  51.698  1.00  0.00     0.045 A 
HETATM   11  N   UNL     1      26.955  43.345  51.105  1.00  0.00    -0.233 NA
HETATM   12  C   UNL     1      27.039  44.522  51.762  1.00  0.00     0.160 A 
HETATM   13  N   UNL     1      27.679  44.692  52.930  1.00  0.00    -0.233 NA
HETATM   14  C   UNL     1      28.232  43.609  53.509  1.00  0.00     0.043 A 
HETATM   15  C   UNL     1      28.158  42.359  52.921  1.00  0.00     0.055 A 
BRANCH  12  16
HETATM   16  C   UNL     1      26.396  45.696  51.154  1.00  0.00     0.014 A 
HETATM   17  C   UNL     1      25.213  46.233  51.682  1.00  0.00     0.034 A 
HETATM   18  C   UNL     1      24.643  47.345  51.082  1.00  0.00     0.117 A 
HETATM   19  N   UNL     1      25.161  47.955  49.998  1.00  0.00    -0.273 NA
HETATM   20  C   UNL     1      26.284  47.422  49.479  1.00  0.00     0.117 A 
HETATM   21  C   UNL     1      26.929  46.319  50.016  1.00  0.00     0.034 A 
ENDBRANCH  12  16
BRANCH  14  22
HETATM   22  C   UNL     1      28.935  43.838  54.836  1.00  0.00     0.037 C 
BRANCH  22  23
HETATM   23  C   UNL     1      29.227  45.329  55.121  1.00  0.00     0.006 C 
HETATM   24  C   UNL     1      28.393  45.904  56.260  1.00  0.00     0.006 C 
ENDBRANCH  22  23
BRANCH  22  25
HETATM   25  C   UNL     1      30.238  43.017  54.930  1.00  0.00     0.006 C 
HETATM   26  C   UNL     1      31.097  43.385  56.134  1.00  0.00     0.006 C 
ENDBRANCH  22  25
ENDBRANCH  14  22
ENDBRANCH   1  10
BRANCH   4  27
HETATM   27  C   UNL     1      24.274  41.885  49.007  1.00  0.00     0.157 C 
BRANCH  27  28
HETATM   28  N   UNL     1      23.881  42.917  48.045  1.00  0.00    -0.341 N 
HETATM   29  C   UNL     1      22.847  43.795  48.280  1.00  0.00     0.320 C 
HETATM   30  N   UNL     1      22.846  44.848  47.404  1.00  0.00    -0.309 N 
HETATM   31  O   UNL     1      22.045  43.590  49.185  1.00  0.00    -0.247 OA
HETATM   32  H   UNL     1      23.509  44.818  46.642  1.00  0.00     0.170 HD
HETATM   33  H   UNL     1      24.642  43.301  47.500  1.00  0.00     0.164 HD
BRANCH  30  34
HETATM   34  C   UNL     1      22.014  45.989  47.445  1.00  0.00     0.036 A 
HETATM   35  C   UNL     1      22.242  47.092  48.269  1.00  0.00     0.032 A 
HETATM   36  C   UNL     1      21.397  48.205  48.213  1.00  0.00     0.039 A 
HETATM   37  C   UNL     1      20.322  48.242  47.326  1.00  0.00     0.068 A 
HETATM   38  C   UNL     1      20.072  47.135  46.519  1.00  0.00     0.039 A 
HETATM   39  C   UNL     1      20.912  46.015  46.581  1.00  0.00     0.032 A 
BRANCH  37  40
HETATM   40  O   UNL     1      19.594  49.397  47.354  1.00  0.00    -0.356 OA
HETATM   41  C   UNL     1      19.269  49.911  48.641  1.00  0.00     0.210 C 
ENDBRANCH  37  40
ENDBRANCH  30  34
ENDBRANCH  27  28
ENDBRANCH   4  27
TORSDOF 9
ENDMDL
MODEL 9
REMARK VINA RESULT:      -7.9      3.482      6.336
REMARK  9 active torsions:
REMARK  status: ('A' for Active; 'I' for Inactive)
REMARK    1  A    between atoms: C_2  and  C_3 
REMARK    2  A    between atoms: C_3  and  C_4 
REMARK    3  A    between atoms: C_3  and  C_38 
REMARK    4  A    between atoms: C_6  and  C_7 
REMARK    5  A    between atoms: C_14  and  C_15 
REMARK    6  A    between atoms: C_18  and  C_19 
REMARK    7  A    between atoms: C_19  and  N_20 
REMARK       I    between atoms: N_20  and  C_21 
REMARK       I    between atoms: C_21  and  N_22 
REMARK    8  A    between atoms: N_22  and  C_23 
REMARK    9  A    between atoms: C_26  and  O_27 
ROOT
HETATM    1  C   UNL     1      18.973  49.853  48.057  1.00  0.00     0.068 C 
HETATM    2  C   UNL     1      19.850  51.124  48.244  1.00  0.00     0.001 C 
HETATM    3  C   UNL     1      21.335  50.784  47.973  1.00  0.00     0.040 C 
HETATM    4  C   UNL     1      21.852  49.748  48.990  1.00  0.00     0.206 C 
HETATM    5  N   UNL     1      20.645  49.306  49.813  1.00  0.00    -0.065 N 
HETATM    6  H   UNL     1      20.966  48.525  50.426  1.00  0.00     0.280 HD
HETATM    7  C   UNL     1      19.515  48.735  48.970  1.00  0.00     0.246 C 
HETATM    8  C   UNL     1      19.727  51.574  49.718  1.00  0.00     0.033 C 
HETATM    9  C   UNL     1      20.147  50.444  50.664  1.00  0.00     0.236 C 
ENDROOT
BRANCH   1  10
HETATM   10  C   UNL     1      18.867  49.444  46.603  1.00  0.00     0.045 A 
HETATM   11  N   UNL     1      18.637  50.410  45.691  1.00  0.00    -0.233 NA
HETATM   12  C   UNL     1      18.467  50.016  44.411  1.00  0.00     0.160 A 
HETATM   13  N   UNL     1      18.466  48.735  44.008  1.00  0.00    -0.233 NA
HETATM   14  C   UNL     1      18.699  47.783  44.933  1.00  0.00     0.043 A 
HETATM   15  C   UNL     1      18.922  48.105  46.259  1.00  0.00     0.055 A 
BRANCH  12  16
HETATM   16  C   UNL     1      18.259  51.055  43.393  1.00  0.00     0.014 A 
HETATM   17  C   UNL     1      17.345  52.099  43.595  1.00  0.00     0.034 A 
HETATM   18  C   UNL     1      17.183  53.063  42.612  1.00  0.00     0.117 A 
HETATM   19  N   UNL     1      17.861  53.060  41.447  1.00  0.00    -0.273 NA
HETATM   20  C   UNL     1      18.721  52.043  41.246  1.00  0.00     0.117 A 
HETATM   21  C   UNL     1      18.954  51.040  42.174  1.00  0.00     0.034 A 
ENDBRANCH  12  16
BRANCH  14  22
HETATM   22  C   UNL     1      18.706  46.347  44.436  1.00  0.00     0.037 C 
BRANCH  22  23
HETATM   23  C   UNL     1      18.641  45.307  45.577  1.00  0.00     0.006 C 
HETATM   24  C   UNL     1      17.340  44.515  45.602  1.00  0.00     0.006 C 
ENDBRANCH  22  23
BRANCH  22  25
HETATM   25  C   UNL     1      19.931  46.071  43.538  1.00  0.00     0.006 C 
HETATM   26  C   UNL     1      21.196  45.753  44.325  1.00  0.00     0.006 C 
ENDBRANCH  22  25
ENDBRANCH  14  22
ENDBRANCH   1  10
BRANCH   4  27
HETATM   27  C   UNL     1      22.627  48.573  48.335  1.00  0.00     0.157 C 
BRANCH  27  28
HETATM   28  N   UNL     1      23.015  47.478  49.227  1.00  0.00    -0.341 N 
HETATM   29  C   UNL     1      24.209  47.467  49.913  1.00  0.00     0.320 C 
HETATM   30  N   UNL     1      24.235  46.519  50.902  1.00  0.00    -0.309 N 
HETATM   31  O   UNL     1      25.111  48.241  49.612  1.00  0.00    -0.247 OA
HETATM   32  H   UNL     1      23.452  45.882  50.955  1.00  0.00     0.170 HD
HETATM   33  H   UNL     1      22.247  47.036  49.715  1.00  0.00     0.164 HD
BRANCH  30  34
HETATM   34  C   UNL     1      25.243  46.329  51.873  1.00  0.00     0.036 A 
HETATM   35  C   UNL     1      25.543  47.250  52.877  1.00  0.00     0.032 A 
HETATM   36  C   UNL     1      26.524  46.963  53.832  1.00  0.00     0.039 A 
HETATM   37  C   UNL     1      27.210  45.750  53.809  1.00  0.00     0.068 A 
HETATM   38  C   UNL     1      26.935  44.836  52.794  1.00  0.00     0.039 A 
HETATM   39  C   UNL     1      25.959  45.127  51.831  1.00  0.00     0.032 A 
BRANCH  37  40
HETATM   40  O   UNL     1      28.122  45.587  54.812  1.00  0.00    -0.356 OA
HETATM   41  C   UNL     1      28.122  46.574  55.836  1.00  0.00     0.210 C 
ENDBRANCH  37  40
ENDBRANCH  30  34
ENDBRANCH  27  28
ENDBRANCH   4  27
TORSDOF 9
ENDMDL
MODEL 10
REMARK VINA RESULT:      -7.9      3.897      8.645
REMARK  9 active torsions:
REMARK  status: ('A' for Active; 'I' for Inactive)
REMARK    1  A    between atoms: C_2  and  C_3 
REMARK    2  A    between atoms: C_3  and  C_4 
REMARK    3  A    between atoms: C_3  and  C_38 
REMARK    4  A    between atoms: C_6  and  C_7 
REMARK    5  A    between atoms: C_14  and  C_15 
REMARK    6  A    between atoms: C_18  and  C_19 
REMARK    7  A    between atoms: C_19  and  N_20 
REMARK       I    between atoms: N_20  and  C_21 
REMARK       I    between atoms: C_21  and  N_22 
REMARK    8  A    between atoms: N_22  and  C_23 
REMARK    9  A    between atoms: C_26  and  O_27 
ROOT
HETATM    1  C   UNL     1      22.274  45.466  48.095  1.00  0.00     0.068 C 
HETATM    2  C   UNL     1      21.732  46.130  46.798  1.00  0.00     0.001 C 
HETATM    3  C   UNL     1      20.770  47.286  47.161  1.00  0.00     0.040 C 
HETATM    4  C   UNL     1      19.540  46.754  47.922  1.00  0.00     0.206 C 
HETATM    5  N   UNL     1      19.798  45.273  48.184  1.00  0.00    -0.065 N 
HETATM    6  H   UNL     1      19.023  44.934  48.795  1.00  0.00     0.280 HD
HETATM    7  C   UNL     1      21.081  45.012  48.959  1.00  0.00     0.246 C 
HETATM    8  C   UNL     1      20.924  45.066  46.021  1.00  0.00     0.033 C 
HETATM    9  C   UNL     1      19.795  44.503  46.890  1.00  0.00     0.236 C 
ENDROOT
BRANCH   1  10
HETATM   10  C   UNL     1      23.243  46.365  48.833  1.00  0.00     0.045 A 
HETATM   11  N   UNL     1      23.769  45.912  49.989  1.00  0.00    -0.233 NA
HETATM   12  C   UNL     1      24.569  46.759  50.671  1.00  0.00     0.160 A 
HETATM   13  N   UNL     1      24.827  48.022  50.297  1.00  0.00    -0.233 NA
HETATM   14  C   UNL     1      24.294  48.458  49.138  1.00  0.00     0.043 A 
HETATM   15  C   UNL     1      23.496  47.641  48.359  1.00  0.00     0.055 A 
BRANCH  12  16
HETATM   16  C   UNL     1      25.189  46.271  51.912  1.00  0.00     0.014 A 
HETATM   17  C   UNL     1      25.904  47.132  52.757  1.00  0.00     0.034 A 
HETATM   18  C   UNL     1      26.467  46.632  53.919  1.00  0.00     0.117 A 
HETATM   19  N   UNL     1      26.374  45.342  54.298  1.00  0.00    -0.273 NA
HETATM   20  C   UNL     1      25.707  44.512  53.472  1.00  0.00     0.117 A 
HETATM   21  C   UNL     1      25.104  44.924  52.294  1.00  0.00     0.034 A 
ENDBRANCH  12  16
BRANCH  14  22
HETATM   22  C   UNL     1      24.622  49.887  48.741  1.00  0.00     0.037 C 
BRANCH  22  23
HETATM   23  C   UNL     1      23.476  50.585  47.973  1.00  0.00     0.006 C 
HETATM   24  C   UNL     1      22.316  51.006  48.867  1.00  0.00     0.006 C 
ENDBRANCH  22  23
BRANCH  22  25
HETATM   25  C   UNL     1      25.927  49.955  47.918  1.00  0.00     0.006 C 
HETATM   26  C   UNL     1      27.184  49.822  48.769  1.00  0.00     0.006 C 
ENDBRANCH  22  25
ENDBRANCH  14  22
ENDBRANCH   1  10
BRANCH   4  27
HETATM   27  C   UNL     1      19.204  47.568  49.200  1.00  0.00     0.157 C 
BRANCH  27  28
HETATM   28  N   UNL     1      17.890  48.216  49.226  1.00  0.00    -0.341 N 
HETATM   29  C   UNL     1      17.708  49.539  48.890  1.00  0.00     0.320 C 
HETATM   30  N   UNL     1      16.389  49.852  48.694  1.00  0.00    -0.309 N 
HETATM   31  O   UNL     1      18.666  50.300  48.804  1.00  0.00    -0.247 OA
HETATM   32  H   UNL     1      15.706  49.139  48.911  1.00  0.00     0.170 HD
HETATM   33  H   UNL     1      17.115  47.612  48.988  1.00  0.00     0.164 HD
BRANCH  30  34
HETATM   34  C   UNL     1      15.866  51.073  48.214  1.00  0.00     0.036 A 
HETATM   35  C   UNL     1      15.736  51.387  46.860  1.00  0.00     0.032 A 
HETATM   36  C   UNL     1      15.161  52.600  46.467  1.00  0.00     0.039 A 
HETATM   37  C   UNL     1      14.693  53.509  47.414  1.00  0.00     0.068 A 
HETATM   38  C   UNL     1      14.842  53.214  48.767  1.00  0.00     0.039 A 
HETATM   39  C   UNL     1      15.428  52.004  49.163  1.00  0.00     0.032 A 
BRANCH  37  40
HETATM   40  O   UNL     1      14.131  54.640  46.895  1.00  0.00    -0.356 OA
HETATM   41  C   UNL     1      13.779  55.659  47.824  1.00  0.00     0.210 C 
ENDBRANCH  37  40
ENDBRANCH  30  34
ENDBRANCH  27  28
ENDBRANCH   4  27
TORSDOF 9
ENDMDL
