MODEL 1
REMARK VINA RESULT:      -9.7      0.000      0.000
REMARK  8 active torsions:
REMARK  status: ('A' for Active; 'I' for Inactive)
REMARK    1  A    between atoms: C_2  and  C_3 
REMARK    2  A    between atoms: C_3  and  C_4 
REMARK    3  A    between atoms: C_7  and  N_8 
REMARK       I    between atoms: N_8  and  C_9 
REMARK    4  A    between atoms: C_9  and  C_10 
REMARK    5  A    between atoms: C_13  and  N_14 
REMARK       I    between atoms: N_14  and  C_15 
REMARK    6  A    between atoms: C_15  and  C_16 
REMARK    7  A    between atoms: C_16  and  C_17 
REMARK    8  A    between atoms: C_19  and  N_20 
ROOT
HETATM    1  C   UNL     1      24.425  46.931  50.174  1.00  0.00     0.032 A 
HETATM    2  C   UNL     1      23.657  47.980  49.659  1.00  0.00     0.019 A 
HETATM    3  C   UNL     1      22.564  47.712  48.822  1.00  0.00     0.030 A 
HETATM    4  C   UNL     1      22.233  46.400  48.478  1.00  0.00     0.034 A 
HETATM    5  C   UNL     1      23.032  45.356  48.956  1.00  0.00     0.030 A 
HETATM    6  C   UNL     1      24.120  45.619  49.795  1.00  0.00     0.019 A 
ENDROOT
BRANCH   4   7
HETATM    7  N   UNL     1      21.130  46.046  47.672  1.00  0.00    -0.327 N 
HETATM    8  C   UNL     1      20.019  45.310  48.046  1.00  0.00     0.223 C 
HETATM    9  O   UNL     1      19.812  44.818  49.149  1.00  0.00    -0.273 OA
HETATM   10  H   UNL     1      21.172  46.361  46.711  1.00  0.00     0.169 HD
BRANCH   8  11
HETATM   11  C   UNL     1      19.043  45.100  46.905  1.00  0.00     0.128 C 
BRANCH  11  12
HETATM   12  C   UNL     1      18.188  46.343  46.707  1.00  0.00     0.158 C 
HETATM   13  S   UNL     1      17.748  47.111  48.293  1.00  0.00    -0.077 SA
HETATM   14  C   UNL     1      18.188  48.693  47.674  1.00  0.00     0.168 C 
HETATM   15  N   UNL     1      18.769  48.693  46.518  1.00  0.00    -0.189 NA
HETATM   16  C   UNL     1      18.943  47.439  45.983  1.00  0.00     0.260 C 
HETATM   17  O   UNL     1      19.629  47.221  44.991  1.00  0.00    -0.270 OA
BRANCH  14  18
HETATM   18  N   UNL     1      17.880  49.824  48.399  1.00  0.00    -0.360 N 
HETATM   19  C   UNL     1      18.628  50.272  49.578  1.00  0.00     0.125 C 
HETATM   20  C   UNL     1      19.658  51.320  49.153  1.00  0.00     0.020 C 
HETATM   21  C   UNL     1      18.987  52.486  48.421  1.00  0.00     0.003 C 
HETATM   22  C   UNL     1      18.109  51.987  47.273  1.00  0.00     0.020 C 
HETATM   23  C   UNL     1      17.135  50.914  47.755  1.00  0.00     0.125 C 
ENDBRANCH  14  18
ENDBRANCH  11  12
ENDBRANCH   8  11
ENDBRANCH   4   7
BRANCH   1  24
HETATM   24  C   UNL     1      25.554  47.134  51.135  1.00  0.00     0.256 C 
HETATM   25  N   UNL     1      25.504  46.371  52.288  1.00  0.00    -0.323 N 
HETATM   26  H   UNL     1      24.700  45.776  52.424  1.00  0.00     0.169 HD
HETATM   27  O   UNL     1      26.444  47.915  50.817  1.00  0.00    -0.267 OA
BRANCH  25  28
HETATM   28  C   UNL     1      26.512  46.233  53.266  1.00  0.00     0.035 A 
HETATM   29  C   UNL     1      26.910  47.253  54.129  1.00  0.00     0.030 A 
HETATM   30  C   UNL     1      27.978  47.062  55.018  1.00  0.00     0.010 A 
HETATM   31  C   UNL     1      28.653  45.837  55.082  1.00  0.00    -0.054 A 
HETATM   32  C   UNL     1      28.236  44.808  54.225  1.00  0.00     0.010 A 
HETATM   33  C   UNL     1      27.182  45.006  53.327  1.00  0.00     0.030 A 
BRANCH  31  34
HETATM   34  C   UNL     1      29.856  45.608  55.984  1.00  0.00     0.014 C 
HETATM   35  C   UNL     1      29.450  45.888  57.438  1.00  0.00     0.015 C 
BRANCH  34  36
HETATM   36  C   UNL     1      30.515  44.216  55.885  1.00  0.00     0.004 C 
HETATM   37  C   UNL     1      31.398  43.880  57.079  1.00  0.00     0.006 C 
ENDBRANCH  34  36
ENDBRANCH  31  34
ENDBRANCH  25  28
ENDBRANCH   1  24
TORSDOF 8
ENDMDL
MODEL 2
REMARK VINA RESULT:      -9.6      3.323      4.466
REMARK  8 active torsions:
REMARK  status: ('A' for Active; 'I' for Inactive)
REMARK    1  A    between atoms: C_2  and  C_3 
REMARK    2  A    between atoms: C_3  and  C_4 
REMARK    3  A    between atoms: C_7  and  N_8 
REMARK       I    between atoms: N_8  and  C_9 
REMARK    4  A    between atoms: C_9  and  C_10 
REMARK    5  A    between atoms: C_13  and  N_14 
REMARK       I    between atoms: N_14  and  C_15 
REMARK    6  A    between atoms: C_15  and  C_16 
REMARK    7  A    between atoms: C_16  and  C_17 
REMARK    8  A    between atoms: C_19  and  N_20 
ROOT
HETATM    1  C   UNL     1      24.463  48.460  49.310  1.00  0.00     0.032 A 
HETATM    2  C   UNL     1      24.724  49.684  48.685  1.00  0.00     0.019 A 
HETATM    3  C   UNL     1      23.667  50.487  48.232  1.00  0.00     0.030 A 
HETATM    4  C   UNL     1      22.341  50.075  48.384  1.00  0.00     0.034 A 
HETATM    5  C   UNL     1      22.086  48.829  48.966  1.00  0.00     0.030 A 
HETATM    6  C   UNL     1      23.137  48.028  49.424  1.00  0.00     0.019 A 
ENDROOT
BRANCH   4   7
HETATM    7  N   UNL     1      21.223  50.840  47.989  1.00  0.00    -0.327 N 
HETATM    8  C   UNL     1      20.275  51.426  48.808  1.00  0.00     0.223 C 
HETATM    9  O   UNL     1      20.234  51.365  50.032  1.00  0.00    -0.273 OA
HETATM   10  H   UNL     1      21.105  50.955  46.990  1.00  0.00     0.169 HD
BRANCH   8  11
HETATM   11  C   UNL     1      19.195  52.152  48.030  1.00  0.00     0.128 C 
BRANCH  11  12
HETATM   12  C   UNL     1      17.818  51.677  48.470  1.00  0.00     0.158 C 
HETATM   13  S   UNL     1      17.073  52.813  49.676  1.00  0.00    -0.077 SA
HETATM   14  C   UNL     1      15.556  52.789  48.794  1.00  0.00     0.168 C 
HETATM   15  N   UNL     1      15.592  52.188  47.648  1.00  0.00    -0.189 NA
HETATM   16  C   UNL     1      16.827  51.680  47.325  1.00  0.00     0.260 C 
HETATM   17  O   UNL     1      17.104  51.241  46.214  1.00  0.00    -0.270 OA
BRANCH  14  18
HETATM   18  N   UNL     1      14.430  53.357  49.349  1.00  0.00    -0.360 N 
HETATM   19  C   UNL     1      14.038  53.199  50.753  1.00  0.00     0.125 C 
HETATM   20  C   UNL     1      14.542  54.401  51.554  1.00  0.00     0.020 C 
HETATM   21  C   UNL     1      14.029  55.714  50.959  1.00  0.00     0.003 C 
HETATM   22  C   UNL     1      14.336  55.802  49.464  1.00  0.00     0.020 C 
HETATM   23  C   UNL     1      13.846  54.555  48.730  1.00  0.00     0.125 C 
ENDBRANCH  14  18
ENDBRANCH  11  12
ENDBRANCH   8  11
ENDBRANCH   4   7
BRANCH   1  24
HETATM   24  C   UNL     1      25.532  47.588  49.889  1.00  0.00     0.256 C 
HETATM   25  N   UNL     1      25.204  46.941  51.068  1.00  0.00    -0.323 N 
HETATM   26  H   UNL     1      24.302  47.135  51.476  1.00  0.00     0.169 HD
HETATM   27  O   UNL     1      26.583  47.481  49.268  1.00  0.00    -0.267 OA
BRANCH  25  28
HETATM   28  C   UNL     1      25.946  45.937  51.727  1.00  0.00     0.035 A 
HETATM   29  C   UNL     1      26.171  44.663  51.208  1.00  0.00     0.030 A 
HETATM   30  C   UNL     1      26.848  43.693  51.961  1.00  0.00     0.010 A 
HETATM   31  C   UNL     1      27.339  43.986  53.240  1.00  0.00    -0.054 A 
HETATM   32  C   UNL     1      27.127  45.275  53.748  1.00  0.00     0.010 A 
HETATM   33  C   UNL     1      26.436  46.236  53.003  1.00  0.00     0.030 A 
BRANCH  31  34
HETATM   34  C   UNL     1      28.021  42.946  54.115  1.00  0.00     0.014 C 
HETATM   35  C   UNL     1      27.893  41.569  53.448  1.00  0.00     0.015 C 
BRANCH  34  36
HETATM   36  C   UNL     1      29.500  43.224  54.459  1.00  0.00     0.004 C 
HETATM   37  C   UNL     1      30.465  42.804  53.358  1.00  0.00     0.006 C 
ENDBRANCH  34  36
ENDBRANCH  31  34
ENDBRANCH  25  28
ENDBRANCH   1  24
TORSDOF 8
ENDMDL
MODEL 3
REMARK VINA RESULT:      -9.2      1.700      2.411
REMARK  8 active torsions:
REMARK  status: ('A' for Active; 'I' for Inactive)
REMARK    1  A    between atoms: C_2  and  C_3 
REMARK    2  A    between atoms: C_3  and  C_4 
REMARK    3  A    between atoms: C_7  and  N_8 
REMARK       I    between atoms: N_8  and  C_9 
REMARK    4  A    between atoms: C_9  and  C_10 
REMARK    5  A    between atoms: C_13  and  N_14 
REMARK       I    between atoms: N_14  and  C_15 
REMARK    6  A    between atoms: C_15  and  C_16 
REMARK    7  A    between atoms: C_16  and  C_17 
REMARK    8  A    between atoms: C_19  and  N_20 
ROOT
HETATM    1  C   UNL     1      25.387  44.674  51.065  1.00  0.00     0.032 A 
HETATM    2  C   UNL     1      24.581  43.538  50.933  1.00  0.00     0.019 A 
HETATM    3  C   UNL     1      23.375  43.606  50.220  1.00  0.00     0.030 A 
HETATM    4  C   UNL     1      22.952  44.804  49.643  1.00  0.00     0.034 A 
HETATM    5  C   UNL     1      23.737  45.949  49.818  1.00  0.00     0.030 A 
HETATM    6  C   UNL     1      24.943  45.886  50.524  1.00  0.00     0.019 A 
ENDROOT
BRANCH   4   7
HETATM    7  N   UNL     1      21.773  44.945  48.881  1.00  0.00    -0.327 N 
HETATM    8  C   UNL     1      21.646  44.857  47.507  1.00  0.00     0.223 C 
HETATM    9  O   UNL     1      22.552  44.658  46.704  1.00  0.00    -0.273 OA
HETATM   10  H   UNL     1      20.933  45.145  49.410  1.00  0.00     0.169 HD
BRANCH   8  11
HETATM   11  C   UNL     1      20.225  45.091  47.032  1.00  0.00     0.128 C 
BRANCH  11  12
HETATM   12  C   UNL     1      19.492  46.013  47.995  1.00  0.00     0.158 C 
HETATM   13  S   UNL     1      20.006  47.743  47.784  1.00  0.00    -0.077 SA
HETATM   14  C   UNL     1      18.330  48.263  47.788  1.00  0.00     0.168 C 
HETATM   15  N   UNL     1      17.454  47.311  47.756  1.00  0.00    -0.189 NA
HETATM   16  C   UNL     1      18.004  46.052  47.718  1.00  0.00     0.260 C 
HETATM   17  O   UNL     1      17.348  45.039  47.502  1.00  0.00    -0.270 OA
BRANCH  14  18
HETATM   18  N   UNL     1      18.028  49.606  47.856  1.00  0.00    -0.360 N 
HETATM   19  C   UNL     1      17.394  50.248  49.011  1.00  0.00     0.125 C 
HETATM   20  C   UNL     1      18.475  50.864  49.902  1.00  0.00     0.020 C 
HETATM   21  C   UNL     1      19.350  51.840  49.112  1.00  0.00     0.003 C 
HETATM   22  C   UNL     1      19.899  51.188  47.842  1.00  0.00     0.020 C 
HETATM   23  C   UNL     1      18.776  50.557  47.021  1.00  0.00     0.125 C 
ENDBRANCH  14  18
ENDBRANCH  11  12
ENDBRANCH   8  11
ENDBRANCH   4   7
BRANCH   1  24
HETATM   24  C   UNL     1      26.722  44.660  51.741  1.00  0.00     0.256 C 
HETATM   25  N   UNL     1      26.749  45.183  53.023  1.00  0.00    -0.323 N 
HETATM   26  H   UNL     1      25.894  45.576  53.389  1.00  0.00     0.169 HD
HETATM   27  O   UNL     1      27.664  44.159  51.140  1.00  0.00    -0.267 OA
BRANCH  25  28
HETATM   28  C   UNL     1      27.818  45.134  53.943  1.00  0.00     0.035 A 
HETATM   29  C   UNL     1      28.666  44.039  54.100  1.00  0.00     0.030 A 
HETATM   30  C   UNL     1      29.654  44.037  55.095  1.00  0.00     0.010 A 
HETATM   31  C   UNL     1      29.832  45.141  55.938  1.00  0.00    -0.054 A 
HETATM   32  C   UNL     1      28.989  46.248  55.762  1.00  0.00     0.010 A 
HETATM   33  C   UNL     1      27.993  46.242  54.781  1.00  0.00     0.030 A 
BRANCH  31  34
HETATM   34  C   UNL     1      30.847  45.154  57.071  1.00  0.00     0.014 C 
HETATM   35  C   UNL     1      30.363  46.117  58.164  1.00  0.00     0.015 C 
BRANCH  34  36
HETATM   36  C   UNL     1      31.176  43.781  57.694  1.00  0.00     0.004 C 
HETATM   37  C   UNL     1      32.264  43.023  56.944  1.00  0.00     0.006 C 
ENDBRANCH  34  36
ENDBRANCH  31  34
ENDBRANCH  25  28
ENDBRANCH   1  24
TORSDOF 8
ENDMDL
MODEL 4
REMARK VINA RESULT:      -9.1      1.865      2.487
REMARK  8 active torsions:
REMARK  status: ('A' for Active; 'I' for Inactive)
REMARK    1  A    between atoms: C_2  and  C_3 
REMARK    2  A    between atoms: C_3  and  C_4 
REMARK    3  A    between atoms: C_7  and  N_8 
REMARK       I    between atoms: N_8  and  C_9 
REMARK    4  A    between atoms: C_9  and  C_10 
REMARK    5  A    between atoms: C_13  and  N_14 
REMARK       I    between atoms: N_14  and  C_15 
REMARK    6  A    between atoms: C_15  and  C_16 
REMARK    7  A    between atoms: C_16  and  C_17 
REMARK    8  A    between atoms: C_19  and  N_20 
ROOT
HETATM    1  C   UNL     1      24.158  44.862  50.437  1.00  0.00     0.032 A 
HETATM    2  C   UNL     1      24.265  46.167  49.942  1.00  0.00     0.019 A 
HETATM    3  C   UNL     1      23.281  46.683  49.088  1.00  0.00     0.030 A 
HETATM    4  C   UNL     1      22.187  45.904  48.706  1.00  0.00     0.034 A 
HETATM    5  C   UNL     1      22.107  44.584  49.163  1.00  0.00     0.030 A 
HETATM    6  C   UNL     1      23.085  44.067  50.020  1.00  0.00     0.019 A 
ENDROOT
BRANCH   4   7
HETATM    7  N   UNL     1      21.137  46.361  47.881  1.00  0.00    -0.327 N 
HETATM    8  C   UNL     1      21.136  46.458  46.501  1.00  0.00     0.223 C 
HETATM    9  O   UNL     1      22.065  46.178  45.751  1.00  0.00    -0.273 OA
HETATM   10  H   UNL     1      20.300  46.661  48.365  1.00  0.00     0.169 HD
BRANCH   8  11
HETATM   11  C   UNL     1      19.839  47.020  45.953  1.00  0.00     0.128 C 
BRANCH  11  12
HETATM   12  C   UNL     1      19.085  47.767  47.044  1.00  0.00     0.158 C 
HETATM   13  S   UNL     1      19.546  49.523  47.092  1.00  0.00    -0.077 SA
HETATM   14  C   UNL     1      17.855  49.987  47.177  1.00  0.00     0.168 C 
HETATM   15  N   UNL     1      17.008  49.024  47.005  1.00  0.00    -0.189 NA
HETATM   16  C   UNL     1      17.594  47.801  46.779  1.00  0.00     0.260 C 
HETATM   17  O   UNL     1      16.967  46.812  46.416  1.00  0.00    -0.270 OA
BRANCH  14  18
HETATM   18  N   UNL     1      17.515  51.295  47.443  1.00  0.00    -0.360 N 
HETATM   19  C   UNL     1      16.136  51.769  47.600  1.00  0.00     0.125 C 
HETATM   20  C   UNL     1      15.781  51.802  49.088  1.00  0.00     0.020 C 
HETATM   21  C   UNL     1      16.775  52.660  49.873  1.00  0.00     0.003 C 
HETATM   22  C   UNL     1      18.217  52.231  49.596  1.00  0.00     0.020 C 
HETATM   23  C   UNL     1      18.493  52.177  48.094  1.00  0.00     0.125 C 
ENDBRANCH  14  18
ENDBRANCH  11  12
ENDBRANCH   8  11
ENDBRANCH   4   7
BRANCH   1  24
HETATM   24  C   UNL     1      25.125  44.271  51.413  1.00  0.00     0.256 C 
HETATM   25  N   UNL     1      26.252  45.032  51.675  1.00  0.00    -0.323 N 
HETATM   26  H   UNL     1      26.367  45.894  51.163  1.00  0.00     0.169 HD
HETATM   27  O   UNL     1      24.835  43.199  51.931  1.00  0.00    -0.267 OA
BRANCH  25  28
HETATM   28  C   UNL     1      27.225  44.803  52.672  1.00  0.00     0.035 A 
HETATM   29  C   UNL     1      28.179  43.788  52.614  1.00  0.00     0.030 A 
HETATM   30  C   UNL     1      29.059  43.574  53.685  1.00  0.00     0.010 A 
HETATM   31  C   UNL     1      29.022  44.386  54.824  1.00  0.00    -0.054 A 
HETATM   32  C   UNL     1      28.072  45.418  54.868  1.00  0.00     0.010 A 
HETATM   33  C   UNL     1      27.184  45.619  53.807  1.00  0.00     0.030 A 
BRANCH  31  34
HETATM   34  C   UNL     1      29.913  44.148  56.034  1.00  0.00     0.014 C 
HETATM   35  C   UNL     1      31.186  43.419  55.580  1.00  0.00     0.015 C 
BRANCH  34  36
HETATM   36  C   UNL     1      30.293  45.404  56.846  1.00  0.00     0.004 C 
HETATM   37  C   UNL     1      30.963  45.083  58.175  1.00  0.00     0.006 C 
ENDBRANCH  34  36
ENDBRANCH  31  34
ENDBRANCH  25  28
ENDBRANCH   1  24
TORSDOF 8
ENDMDL
MODEL 5
REMARK VINA RESULT:      -9.0      3.458     12.930
REMARK  8 active torsions:
REMARK  status: ('A' for Active; 'I' for Inactive)
REMARK    1  A    between atoms: C_2  and  C_3 
REMARK    2  A    between atoms: C_3  and  C_4 
REMARK    3  A    between atoms: C_7  and  N_8 
REMARK       I    between atoms: N_8  and  C_9 
REMARK    4  A    between atoms: C_9  and  C_10 
REMARK    5  A    between atoms: C_13  and  N_14 
REMARK       I    between atoms: N_14  and  C_15 
REMARK    6  A    between atoms: C_15  and  C_16 
REMARK    7  A    between atoms: C_16  and  C_17 
REMARK    8  A    between atoms: C_19  and  N_20 
ROOT
HETATM    1  C   UNL     1      20.143  50.550  48.213  1.00  0.00     0.032 A 
HETATM    2  C   UNL     1      21.525  50.746  48.303  1.00  0.00     0.019 A 
HETATM    3  C   UNL     1      22.370  49.679  48.642  1.00  0.00     0.030 A 
HETATM    4  C   UNL     1      21.849  48.411  48.906  1.00  0.00     0.034 A 
HETATM    5  C   UNL     1      20.463  48.230  48.862  1.00  0.00     0.030 A 
HETATM    6  C   UNL     1      19.617  49.290  48.520  1.00  0.00     0.019 A 
ENDROOT
BRANCH   4   7
HETATM    7  N   UNL     1      22.634  47.280  49.217  1.00  0.00    -0.327 N 
HETATM    8  C   UNL     1      23.884  47.263  49.810  1.00  0.00     0.223 C 
HETATM    9  O   UNL     1      24.538  48.241  50.155  1.00  0.00    -0.273 OA
HETATM   10  H   UNL     1      22.233  46.387  48.961  1.00  0.00     0.169 HD
BRANCH   8  11
HETATM   11  C   UNL     1      24.440  45.862  49.966  1.00  0.00     0.128 C 
BRANCH  11  12
HETATM   12  C   UNL     1      25.618  45.865  50.929  1.00  0.00     0.158 C 
HETATM   13  S   UNL     1      25.380  44.674  52.280  1.00  0.00    -0.077 SA
HETATM   14  C   UNL     1      27.013  44.069  52.063  1.00  0.00     0.168 C 
HETATM   15  N   UNL     1      27.636  44.519  51.022  1.00  0.00    -0.189 NA
HETATM   16  C   UNL     1      26.894  45.393  50.264  1.00  0.00     0.260 C 
HETATM   17  O   UNL     1      27.240  45.780  49.154  1.00  0.00    -0.270 OA
BRANCH  14  18
HETATM   18  N   UNL     1      27.553  43.203  52.989  1.00  0.00    -0.360 N 
HETATM   19  C   UNL     1      28.516  42.147  52.662  1.00  0.00     0.125 C 
HETATM   20  C   UNL     1      29.934  42.661  52.922  1.00  0.00     0.020 C 
HETATM   21  C   UNL     1      30.087  43.151  54.364  1.00  0.00     0.003 C 
HETATM   22  C   UNL     1      28.994  44.157  54.726  1.00  0.00     0.020 C 
HETATM   23  C   UNL     1      27.608  43.601  54.403  1.00  0.00     0.125 C 
ENDBRANCH  14  18
ENDBRANCH  11  12
ENDBRANCH   8  11
ENDBRANCH   4   7
BRANCH   1  24
HETATM   24  C   UNL     1      19.188  51.617  47.781  1.00  0.00     0.256 C 
HETATM   25  N   UNL     1      18.319  51.267  46.762  1.00  0.00    -0.323 N 
HETATM   26  H   UNL     1      18.419  50.350  46.353  1.00  0.00     0.169 HD
HETATM   27  O   UNL     1      19.216  52.688  48.378  1.00  0.00    -0.267 OA
BRANCH  25  28
HETATM   28  C   UNL     1      17.214  52.008  46.288  1.00  0.00     0.035 A 
HETATM   29  C   UNL     1      17.186  52.673  45.064  1.00  0.00     0.030 A 
HETATM   30  C   UNL     1      16.081  53.457  44.702  1.00  0.00     0.010 A 
HETATM   31  C   UNL     1      14.969  53.571  45.546  1.00  0.00    -0.054 A 
HETATM   32  C   UNL     1      14.996  52.884  46.768  1.00  0.00     0.010 A 
HETATM   33  C   UNL     1      16.106  52.116  47.135  1.00  0.00     0.030 A 
BRANCH  31  34
HETATM   34  C   UNL     1      13.779  54.461  45.222  1.00  0.00     0.014 C 
HETATM   35  C   UNL     1      13.917  54.974  43.781  1.00  0.00     0.015 C 
BRANCH  34  36
HETATM   36  C   UNL     1      12.389  53.821  45.417  1.00  0.00     0.004 C 
HETATM   37  C   UNL     1      12.063  52.755  44.379  1.00  0.00     0.006 C 
ENDBRANCH  34  36
ENDBRANCH  31  34
ENDBRANCH  25  28
ENDBRANCH   1  24
TORSDOF 8
ENDMDL
MODEL 6
REMARK VINA RESULT:      -9.0      2.529      4.212
REMARK  8 active torsions:
REMARK  status: ('A' for Active; 'I' for Inactive)
REMARK    1  A    between atoms: C_2  and  C_3 
REMARK    2  A    between atoms: C_3  and  C_4 
REMARK    3  A    between atoms: C_7  and  N_8 
REMARK       I    between atoms: N_8  and  C_9 
REMARK    4  A    between atoms: C_9  and  C_10 
REMARK    5  A    between atoms: C_13  and  N_14 
REMARK       I    between atoms: N_14  and  C_15 
REMARK    6  A    between atoms: C_15  and  C_16 
REMARK    7  A    between atoms: C_16  and  C_17 
REMARK    8  A    between atoms: C_19  and  N_20 
ROOT
HETATM    1  C   UNL     1      23.844  47.442  49.336  1.00  0.00     0.032 A 
HETATM    2  C   UNL     1      24.381  48.734  49.311  1.00  0.00     0.019 A 
HETATM    3  C   UNL     1      23.583  49.824  48.934  1.00  0.00     0.030 A 
HETATM    4  C   UNL     1      22.249  49.640  48.567  1.00  0.00     0.034 A 
HETATM    5  C   UNL     1      21.729  48.341  48.548  1.00  0.00     0.030 A 
HETATM    6  C   UNL     1      22.520  47.252  48.927  1.00  0.00     0.019 A 
ENDROOT
BRANCH   4   7
HETATM    7  N   UNL     1      21.372  50.687  48.212  1.00  0.00    -0.327 N 
HETATM    8  C   UNL     1      20.402  51.274  49.004  1.00  0.00     0.223 C 
HETATM    9  O   UNL     1      20.122  50.968  50.158  1.00  0.00    -0.273 OA
HETATM   10  H   UNL     1      21.465  51.031  47.264  1.00  0.00     0.169 HD
BRANCH   8  11
HETATM   11  C   UNL     1      19.627  52.356  48.278  1.00  0.00     0.128 C 
BRANCH  11  12
HETATM   12  C   UNL     1      18.278  51.822  47.819  1.00  0.00     0.158 C 
HETATM   13  S   UNL     1      18.408  50.118  47.205  1.00  0.00    -0.077 SA
HETATM   14  C   UNL     1      17.004  49.648  48.148  1.00  0.00     0.168 C 
HETATM   15  N   UNL     1      16.567  50.543  48.974  1.00  0.00    -0.189 NA
HETATM   16  C   UNL     1      17.295  51.709  48.966  1.00  0.00     0.260 C 
HETATM   17  O   UNL     1      17.151  52.597  49.799  1.00  0.00    -0.270 OA
BRANCH  14  18
HETATM   18  N   UNL     1      16.429  48.411  47.953  1.00  0.00    -0.360 N 
HETATM   19  C   UNL     1      15.919  47.936  46.664  1.00  0.00     0.125 C 
HETATM   20  C   UNL     1      16.994  47.092  45.976  1.00  0.00     0.020 C 
HETATM   21  C   UNL     1      17.446  45.938  46.874  1.00  0.00     0.003 C 
HETATM   22  C   UNL     1      17.854  46.442  48.259  1.00  0.00     0.020 C 
HETATM   23  C   UNL     1      16.757  47.311  48.871  1.00  0.00     0.125 C 
ENDBRANCH  14  18
ENDBRANCH  11  12
ENDBRANCH   8  11
ENDBRANCH   4   7
BRANCH   1  24
HETATM   24  C   UNL     1      24.610  46.244  49.802  1.00  0.00     0.256 C 
HETATM   25  N   UNL     1      25.432  46.446  50.897  1.00  0.00    -0.323 N 
HETATM   26  H   UNL     1      25.496  47.382  51.269  1.00  0.00     0.169 HD
HETATM   27  O   UNL     1      24.423  45.182  49.218  1.00  0.00    -0.267 OA
BRANCH  25  28
HETATM   28  C   UNL     1      26.120  45.464  51.642  1.00  0.00     0.035 A 
HETATM   29  C   UNL     1      25.892  45.206  52.993  1.00  0.00     0.030 A 
HETATM   30  C   UNL     1      26.677  44.271  53.683  1.00  0.00     0.010 A 
HETATM   31  C   UNL     1      27.688  43.554  53.031  1.00  0.00    -0.054 A 
HETATM   32  C   UNL     1      27.899  43.805  51.667  1.00  0.00     0.010 A 
HETATM   33  C   UNL     1      27.127  44.751  50.984  1.00  0.00     0.030 A 
BRANCH  31  34
HETATM   34  C   UNL     1      28.603  42.579  53.755  1.00  0.00     0.014 C 
HETATM   35  C   UNL     1      28.452  41.189  53.124  1.00  0.00     0.015 C 
BRANCH  34  36
HETATM   36  C   UNL     1      30.095  42.970  53.806  1.00  0.00     0.004 C 
HETATM   37  C   UNL     1      30.565  43.380  55.195  1.00  0.00     0.006 C 
ENDBRANCH  34  36
ENDBRANCH  31  34
ENDBRANCH  25  28
ENDBRANCH   1  24
TORSDOF 8
ENDMDL
MODEL 7
REMARK VINA RESULT:      -8.8      4.862     11.890
REMARK  8 active torsions:
REMARK  status: ('A' for Active; 'I' for Inactive)
REMARK    1  A    between atoms: C_2  and  C_3 
REMARK    2  A    between atoms: C_3  and  C_4 
REMARK    3  A    between atoms: C_7  and  N_8 
REMARK       I    between atoms: N_8  and  C_9 
REMARK    4  A    between atoms: C_9  and  C_10 
REMARK    5  A    between atoms: C_13  and  N_14 
REMARK       I    between atoms: N_14  and  C_15 
REMARK    6  A    between atoms: C_15  and  C_16 
REMARK    7  A    between atoms: C_16  and  C_17 
REMARK    8  A    between atoms: C_19  and  N_20 
ROOT
HETATM    1  C   UNL     1      23.426  47.618  49.196  1.00  0.00     0.032 A 
HETATM    2  C   UNL     1      24.636  48.150  49.654  1.00  0.00     0.019 A 
HETATM    3  C   UNL     1      25.686  47.299  50.028  1.00  0.00     0.030 A 
HETATM    4  C   UNL     1      25.540  45.913  49.964  1.00  0.00     0.034 A 
HETATM    5  C   UNL     1      24.312  45.384  49.551  1.00  0.00     0.030 A 
HETATM    6  C   UNL     1      23.264  46.229  49.172  1.00  0.00     0.019 A 
ENDROOT
BRANCH   4   7
HETATM    7  N   UNL     1      26.559  44.992  50.287  1.00  0.00    -0.327 N 
HETATM    8  C   UNL     1      26.921  44.548  51.546  1.00  0.00     0.223 C 
HETATM    9  O   UNL     1      26.425  44.899  52.611  1.00  0.00    -0.273 OA
HETATM   10  H   UNL     1      27.085  44.631  49.501  1.00  0.00     0.169 HD
BRANCH   8  11
HETATM   11  C   UNL     1      28.084  43.576  51.514  1.00  0.00     0.128 C 
BRANCH  11  12
HETATM   12  C   UNL     1      27.573  42.145  51.431  1.00  0.00     0.158 C 
HETATM   13  S   UNL     1      27.512  41.557  49.713  1.00  0.00    -0.077 SA
HETATM   14  C   UNL     1      28.291  40.054  50.178  1.00  0.00     0.168 C 
HETATM   15  N   UNL     1      28.733  40.012  51.393  1.00  0.00    -0.189 NA
HETATM   16  C   UNL     1      28.514  41.168  52.104  1.00  0.00     0.260 C 
HETATM   17  O   UNL     1      29.016  41.387  53.201  1.00  0.00    -0.270 OA
BRANCH  14  18
HETATM   18  N   UNL     1      28.367  39.014  49.278  1.00  0.00    -0.360 N 
HETATM   19  C   UNL     1      28.685  37.630  49.646  1.00  0.00     0.125 C 
HETATM   20  C   UNL     1      27.384  36.844  49.822  1.00  0.00     0.020 C 
HETATM   21  C   UNL     1      26.522  36.918  48.559  1.00  0.00     0.003 C 
HETATM   22  C   UNL     1      26.309  38.367  48.118  1.00  0.00     0.020 C 
HETATM   23  C   UNL     1      27.640  39.106  48.004  1.00  0.00     0.125 C 
ENDBRANCH  14  18
ENDBRANCH  11  12
ENDBRANCH   8  11
ENDBRANCH   4   7
BRANCH   1  24
HETATM   24  C   UNL     1      22.291  48.461  48.705  1.00  0.00     0.256 C 
HETATM   25  N   UNL     1      21.226  48.599  49.578  1.00  0.00    -0.323 N 
HETATM   26  H   UNL     1      21.264  48.091  50.450  1.00  0.00     0.169 HD
HETATM   27  O   UNL     1      22.404  48.992  47.606  1.00  0.00    -0.267 OA
BRANCH  25  28
HETATM   28  C   UNL     1      20.120  49.467  49.448  1.00  0.00     0.035 A 
HETATM   29  C   UNL     1      18.873  49.077  48.962  1.00  0.00     0.030 A 
HETATM   30  C   UNL     1      17.850  50.019  48.784  1.00  0.00     0.010 A 
HETATM   31  C   UNL     1      18.043  51.366  49.114  1.00  0.00    -0.054 A 
HETATM   32  C   UNL     1      19.293  51.748  49.621  1.00  0.00     0.010 A 
HETATM   33  C   UNL     1      20.319  50.811  49.781  1.00  0.00     0.030 A 
BRANCH  31  34
HETATM   34  C   UNL     1      16.982  52.430  48.877  1.00  0.00     0.014 C 
HETATM   35  C   UNL     1      16.187  52.070  47.614  1.00  0.00     0.015 C 
BRANCH  34  36
HETATM   36  C   UNL     1      16.012  52.685  50.049  1.00  0.00     0.004 C 
HETATM   37  C   UNL     1      15.581  54.140  50.171  1.00  0.00     0.006 C 
ENDBRANCH  34  36
ENDBRANCH  31  34
ENDBRANCH  25  28
ENDBRANCH   1  24
TORSDOF 8
ENDMDL
MODEL 8
REMARK VINA RESULT:      -8.6      6.153      9.448
REMARK  8 active torsions:
REMARK  status: ('A' for Active; 'I' for Inactive)
REMARK    1  A    between atoms: C_2  and  C_3 
REMARK    2  A    between atoms: C_3  and  C_4 
REMARK    3  A    between atoms: C_7  and  N_8 
REMARK       I    between atoms: N_8  and  C_9 
REMARK    4  A    between atoms: C_9  and  C_10 
REMARK    5  A    between atoms: C_13  and  N_14 
REMARK       I    between atoms: N_14  and  C_15 
REMARK    6  A    between atoms: C_15  and  C_16 
REMARK    7  A    between atoms: C_16  and  C_17 
REMARK    8  A    between atoms: C_19  and  N_20 
ROOT
HETATM    1  C   UNL     1      18.032  51.177  49.515  1.00  0.00     0.032 A 
HETATM    2  C   UNL     1      17.947  52.504  49.951  1.00  0.00     0.019 A 
HETATM    3  C   UNL     1      16.736  53.205  49.852  1.00  0.00     0.030 A 
HETATM    4  C   UNL     1      15.602  52.599  49.308  1.00  0.00     0.034 A 
HETATM    5  C   UNL     1      15.703  51.288  48.829  1.00  0.00     0.030 A 
HETATM    6  C   UNL     1      16.907  50.584  48.931  1.00  0.00     0.019 A 
ENDROOT
BRANCH   4   7
HETATM    7  N   UNL     1      14.341  53.223  49.207  1.00  0.00    -0.327 N 
HETATM    8  C   UNL     1      13.533  53.656  50.243  1.00  0.00     0.223 C 
HETATM    9  O   UNL     1      13.771  53.552  51.442  1.00  0.00    -0.273 OA
HETATM   10  H   UNL     1      13.992  53.353  48.265  1.00  0.00     0.169 HD
BRANCH   8  11
HETATM   11  C   UNL     1      12.229  54.258  49.759  1.00  0.00     0.128 C 
BRANCH  11  12
HETATM   12  C   UNL     1      12.219  55.760  50.001  1.00  0.00     0.158 C 
HETATM   13  S   UNL     1      12.232  56.151  51.775  1.00  0.00    -0.077 SA
HETATM   14  C   UNL     1      13.499  57.340  51.526  1.00  0.00     0.168 C 
HETATM   15  N   UNL     1      14.017  57.356  50.341  1.00  0.00    -0.189 NA
HETATM   16  C   UNL     1      13.479  56.424  49.486  1.00  0.00     0.260 C 
HETATM   17  O   UNL     1      13.958  56.164  48.387  1.00  0.00    -0.270 OA
BRANCH  14  18
HETATM   18  N   UNL     1      13.852  58.192  52.550  1.00  0.00    -0.360 N 
HETATM   19  C   UNL     1      12.996  58.488  53.703  1.00  0.00     0.125 C 
HETATM   20  C   UNL     1      13.391  57.580  54.870  1.00  0.00     0.020 C 
HETATM   21  C   UNL     1      14.877  57.730  55.205  1.00  0.00     0.003 C 
HETATM   22  C   UNL     1      15.747  57.543  53.960  1.00  0.00     0.020 C 
HETATM   23  C   UNL     1      15.274  58.445  52.822  1.00  0.00     0.125 C 
ENDBRANCH  14  18
ENDBRANCH  11  12
ENDBRANCH   8  11
ENDBRANCH   4   7
BRANCH   1  24
HETATM   24  C   UNL     1      19.264  50.342  49.661  1.00  0.00     0.256 C 
HETATM   25  N   UNL     1      20.197  50.468  48.646  1.00  0.00    -0.323 N 
HETATM   26  H   UNL     1      19.965  51.065  47.866  1.00  0.00     0.169 HD
HETATM   27  O   UNL     1      19.375  49.654  50.670  1.00  0.00    -0.267 OA
BRANCH  25  28
HETATM   28  C   UNL     1      21.506  49.940  48.618  1.00  0.00     0.035 A 
HETATM   29  C   UNL     1      21.801  48.578  48.630  1.00  0.00     0.030 A 
HETATM   30  C   UNL     1      23.130  48.136  48.684  1.00  0.00     0.010 A 
HETATM   31  C   UNL     1      24.194  49.046  48.701  1.00  0.00    -0.054 A 
HETATM   32  C   UNL     1      23.892  50.415  48.668  1.00  0.00     0.010 A 
HETATM   33  C   UNL     1      22.564  50.855  48.632  1.00  0.00     0.030 A 
BRANCH  31  34
HETATM   34  C   UNL     1      25.646  48.610  48.824  1.00  0.00     0.014 C 
HETATM   35  C   UNL     1      26.553  49.833  48.627  1.00  0.00     0.015 C 
BRANCH  34  36
HETATM   36  C   UNL     1      26.021  47.889  50.136  1.00  0.00     0.004 C 
HETATM   37  C   UNL     1      26.237  46.391  49.960  1.00  0.00     0.006 C 
ENDBRANCH  34  36
ENDBRANCH  31  34
ENDBRANCH  25  28
ENDBRANCH   1  24
TORSDOF 8
ENDMDL
MODEL 9
REMARK VINA RESULT:      -8.5      3.460     11.321
REMARK  8 active torsions:
REMARK  status: ('A' for Active; 'I' for Inactive)
REMARK    1  A    between atoms: C_2  and  C_3 
REMARK    2  A    between atoms: C_3  and  C_4 
REMARK    3  A    between atoms: C_7  and  N_8 
REMARK       I    between atoms: N_8  and  C_9 
REMARK    4  A    between atoms: C_9  and  C_10 
REMARK    5  A    between atoms: C_13  and  N_14 
REMARK       I    between atoms: N_14  and  C_15 
REMARK    6  A    between atoms: C_15  and  C_16 
REMARK    7  A    between atoms: C_16  and  C_17 
REMARK    8  A    between atoms: C_19  and  N_20 
ROOT
HETATM    1  C   UNL     1      22.524  47.757  48.676  1.00  0.00     0.032 A 
HETATM    2  C   UNL     1      23.629  47.770  49.534  1.00  0.00     0.019 A 
HETATM    3  C   UNL     1      24.400  46.612  49.713  1.00  0.00     0.030 A 
HETATM    4  C   UNL     1      24.074  45.427  49.051  1.00  0.00     0.034 A 
HETATM    5  C   UNL     1      22.941  45.405  48.230  1.00  0.00     0.030 A 
HETATM    6  C   UNL     1      22.172  46.558  48.045  1.00  0.00     0.019 A 
ENDROOT
BRANCH   4   7
HETATM    7  N   UNL     1      24.819  44.233  49.148  1.00  0.00    -0.327 N 
HETATM    8  C   UNL     1      24.484  43.090  49.851  1.00  0.00     0.223 C 
HETATM    9  O   UNL     1      23.478  42.924  50.532  1.00  0.00    -0.273 OA
HETATM   10  H   UNL     1      25.703  44.229  48.654  1.00  0.00     0.169 HD
BRANCH   8  11
HETATM   11  C   UNL     1      25.542  42.009  49.752  1.00  0.00     0.128 C 
BRANCH  11  12
HETATM   12  C   UNL     1      26.817  42.452  50.455  1.00  0.00     0.158 C 
HETATM   13  S   UNL     1      26.455  43.310  52.014  1.00  0.00    -0.077 SA
HETATM   14  C   UNL     1      27.672  42.357  52.846  1.00  0.00     0.168 C 
HETATM   15  N   UNL     1      28.179  41.385  52.158  1.00  0.00    -0.189 NA
HETATM   16  C   UNL     1      27.662  41.272  50.889  1.00  0.00     0.260 C 
HETATM   17  O   UNL     1      27.880  40.313  50.158  1.00  0.00    -0.270 OA
BRANCH  14  18
HETATM   18  N   UNL     1      28.045  42.689  54.130  1.00  0.00    -0.360 N 
HETATM   19  C   UNL     1      29.375  42.434  54.691  1.00  0.00     0.125 C 
HETATM   20  C   UNL     1      30.230  43.695  54.554  1.00  0.00     0.020 C 
HETATM   21  C   UNL     1      29.549  44.896  55.214  1.00  0.00     0.003 C 
HETATM   22  C   UNL     1      28.116  45.068  54.708  1.00  0.00     0.020 C 
HETATM   23  C   UNL     1      27.331  43.764  54.833  1.00  0.00     0.125 C 
ENDBRANCH  14  18
ENDBRANCH  11  12
ENDBRANCH   8  11
ENDBRANCH   4   7
BRANCH   1  24
HETATM   24  C   UNL     1      21.704  48.971  48.374  1.00  0.00     0.256 C 
HETATM   25  N   UNL     1      20.431  48.984  48.919  1.00  0.00    -0.323 N 
HETATM   26  H   UNL     1      20.131  48.168  49.432  1.00  0.00     0.169 HD
HETATM   27  O   UNL     1      22.223  49.865  47.716  1.00  0.00    -0.267 OA
BRANCH  25  28
HETATM   28  C   UNL     1      19.522  50.064  48.943  1.00  0.00     0.035 A 
HETATM   29  C   UNL     1      19.434  50.989  49.981  1.00  0.00     0.030 A 
HETATM   30  C   UNL     1      18.447  51.985  49.969  1.00  0.00     0.010 A 
HETATM   31  C   UNL     1      17.545  52.094  48.903  1.00  0.00    -0.054 A 
HETATM   32  C   UNL     1      17.652  51.173  47.852  1.00  0.00     0.010 A 
HETATM   33  C   UNL     1      18.625  50.168  47.874  1.00  0.00     0.030 A 
BRANCH  31  34
HETATM   34  C   UNL     1      16.420  53.118  48.881  1.00  0.00     0.014 C 
HETATM   35  C   UNL     1      15.265  52.572  48.028  1.00  0.00     0.015 C 
BRANCH  34  36
HETATM   36  C   UNL     1      15.887  53.560  50.260  1.00  0.00     0.004 C 
HETATM   37  C   UNL     1      14.472  53.072  50.545  1.00  0.00     0.006 C 
ENDBRANCH  34  36
ENDBRANCH  31  34
ENDBRANCH  25  28
ENDBRANCH   1  24
TORSDOF 8
ENDMDL
MODEL 10
REMARK VINA RESULT:      -8.4      3.437     12.191
REMARK  8 active torsions:
REMARK  status: ('A' for Active; 'I' for Inactive)
REMARK    1  A    between atoms: C_2  and  C_3 
REMARK    2  A    between atoms: C_3  and  C_4 
REMARK    3  A    between atoms: C_7  and  N_8 
REMARK       I    between atoms: N_8  and  C_9 
REMARK    4  A    between atoms: C_9  and  C_10 
REMARK    5  A    between atoms: C_13  and  N_14 
REMARK       I    between atoms: N_14  and  C_15 
REMARK    6  A    between atoms: C_15  and  C_16 
REMARK    7  A    between atoms: C_16  and  C_17 
REMARK    8  A    between atoms: C_19  and  N_20 
ROOT
HETATM    1  C   UNL     1      23.409  47.037  49.381  1.00  0.00     0.032 A 
HETATM    2  C   UNL     1      23.303  45.646  49.281  1.00  0.00     0.019 A 
HETATM    3  C   UNL     1      24.082  44.816  50.101  1.00  0.00     0.030 A 
HETATM    4  C   UNL     1      24.982  45.360  51.019  1.00  0.00     0.034 A 
HETATM    5  C   UNL     1      25.121  46.751  51.082  1.00  0.00     0.030 A 
HETATM    6  C   UNL     1      24.342  47.582  50.270  1.00  0.00     0.019 A 
ENDROOT
BRANCH   4   7
HETATM    7  N   UNL     1      25.772  44.596  51.903  1.00  0.00    -0.327 N 
HETATM    8  C   UNL     1      26.099  43.256  51.792  1.00  0.00     0.223 C 
HETATM    9  O   UNL     1      25.738  42.491  50.906  1.00  0.00    -0.273 OA
HETATM   10  H   UNL     1      26.124  45.091  52.713  1.00  0.00     0.169 HD
BRANCH   8  11
HETATM   11  C   UNL     1      26.948  42.762  52.947  1.00  0.00     0.128 C 
BRANCH  11  12
HETATM   12  C   UNL     1      28.301  43.458  52.945  1.00  0.00     0.158 C 
HETATM   13  S   UNL     1      28.421  44.689  54.275  1.00  0.00    -0.077 SA
HETATM   14  C   UNL     1      30.003  44.077  54.727  1.00  0.00     0.168 C 
HETATM   15  N   UNL     1      30.365  42.987  54.132  1.00  0.00    -0.189 NA
HETATM   16  C   UNL     1      29.431  42.498  53.250  1.00  0.00     0.260 C 
HETATM   17  O   UNL     1      29.513  41.390  52.732  1.00  0.00    -0.270 OA
BRANCH  14  18
HETATM   18  N   UNL     1      30.773  44.772  55.634  1.00  0.00    -0.360 N 
HETATM   19  C   UNL     1      30.357  46.021  56.279  1.00  0.00     0.125 C 
HETATM   20  C   UNL     1      29.757  45.704  57.650  1.00  0.00     0.020 C 
HETATM   21  C   UNL     1      30.744  44.913  58.513  1.00  0.00     0.003 C 
HETATM   22  C   UNL     1      31.264  43.681  57.772  1.00  0.00     0.020 C 
HETATM   23  C   UNL     1      31.809  44.060  56.396  1.00  0.00     0.125 C 
ENDBRANCH  14  18
ENDBRANCH  11  12
ENDBRANCH   8  11
ENDBRANCH   4   7
BRANCH   1  24
HETATM   24  C   UNL     1      22.557  47.985  48.598  1.00  0.00     0.256 C 
HETATM   25  N   UNL     1      21.217  48.010  48.943  1.00  0.00    -0.323 N 
HETATM   26  H   UNL     1      20.902  47.365  49.653  1.00  0.00     0.169 HD
HETATM   27  O   UNL     1      23.104  48.685  47.753  1.00  0.00    -0.267 OA
BRANCH  25  28
HETATM   28  C   UNL     1      20.236  48.923  48.497  1.00  0.00     0.035 A 
HETATM   29  C   UNL     1      19.819  49.036  47.172  1.00  0.00     0.030 A 
HETATM   30  C   UNL     1      18.900  50.026  46.795  1.00  0.00     0.010 A 
HETATM   31  C   UNL     1      18.357  50.905  47.740  1.00  0.00    -0.054 A 
HETATM   32  C   UNL     1      18.765  50.772  49.075  1.00  0.00     0.010 A 
HETATM   33  C   UNL     1      19.696  49.797  49.447  1.00  0.00     0.030 A 
BRANCH  31  34
HETATM   34  C   UNL     1      17.407  52.032  47.363  1.00  0.00     0.014 C 
HETATM   35  C   UNL     1      17.457  52.240  45.843  1.00  0.00     0.015 C 
BRANCH  34  36
HETATM   36  C   UNL     1      15.943  51.857  47.819  1.00  0.00     0.004 C 
HETATM   37  C   UNL     1      15.569  52.740  49.002  1.00  0.00     0.006 C 
ENDBRANCH  34  36
ENDBRANCH  31  34
ENDBRANCH  25  28
ENDBRANCH   1  24
TORSDOF 8
ENDMDL
