MODEL 1
REMARK VINA RESULT:      -9.1      0.000      0.000
REMARK  7 active torsions:
REMARK  status: ('A' for Active; 'I' for Inactive)
REMARK    1  A    between atoms: C_8  and  C_9 
REMARK    2  A    between atoms: C_9  and  N_10 
REMARK    3  A    between atoms: C_14  and  C_15 
REMARK    4  A    between atoms: C_15  and  C_16 
REMARK    5  A    between atoms: C_16  and  C_17 
REMARK    6  A    between atoms: N_27  and  C_28 
REMARK    7  A    between atoms: C_28  and  C_29 
ROOT
HETATM    1  C   UNL     1      26.307  44.083  52.181  1.00  0.00     0.123 A 
HETATM    2  N   UNL     1      27.008  42.960  51.577  1.00  0.00    -0.324 N 
HETATM    3  C   UNL     1      26.189  42.102  50.884  1.00  0.00     0.326 A 
HETATM    4  O   UNL     1      26.577  41.104  50.308  1.00  0.00    -0.247 OA
HETATM    5  N   UNL     1      24.923  42.597  50.932  1.00  0.00    -0.268 N 
HETATM    6  C   UNL     1      24.889  43.741  51.675  1.00  0.00     0.257 A 
HETATM    7  O   UNL     1      23.899  44.434  51.865  1.00  0.00    -0.270 OA
HETATM    8  H   UNL     1      27.987  42.728  51.718  1.00  0.00     0.165 HD
ENDROOT
BRANCH   1   9
HETATM    9  C   UNL     1      26.883  45.430  51.617  1.00  0.00     0.027 C 
HETATM   10  C   UNL     1      26.242  46.741  52.104  1.00  0.00     0.035 C 
HETATM   11  C   UNL     1      24.941  47.151  51.426  1.00  0.00     0.235 C 
HETATM   12  N   UNL     1      25.004  47.028  49.925  1.00  0.00    -0.067 N 
HETATM   13  H   UNL     1      25.526  47.847  49.580  1.00  0.00     0.280 HD
HETATM   14  C   UNL     1      25.686  45.808  49.369  1.00  0.00     0.235 C 
HETATM   15  C   UNL     1      26.995  45.517  50.081  1.00  0.00     0.035 C 
BRANCH  12  16
HETATM   16  C   UNL     1      23.612  47.137  49.313  1.00  0.00     0.278 C 
BRANCH  16  17
HETATM   17  C   UNL     1      23.201  48.515  48.978  1.00  0.00     0.034 A 
HETATM   18  C   UNL     1      24.020  49.623  48.617  1.00  0.00     0.062 A 
HETATM   19  C   UNL     1      25.497  49.676  48.452  1.00  0.00     0.073 C 
HETATM   20  N   UNL     1      23.294  50.724  48.398  1.00  0.00    -0.176 NA
HETATM   21  N   UNL     1      22.025  50.361  48.669  1.00  0.00    -0.262 N 
HETATM   22  C   UNL     1      20.975  51.353  48.628  1.00  0.00     0.181 C 
HETATM   23  C   UNL     1      21.931  49.039  48.979  1.00  0.00     0.131 A 
HETATM   24 CL   UNL     1      20.433  48.305  49.308  1.00  0.00    -0.062 Cl
ENDBRANCH  16  17
ENDBRANCH  12  16
ENDBRANCH   1   9
BRANCH   1  25
HETATM   25  C   UNL     1      26.281  43.956  53.727  1.00  0.00     0.080 C 
BRANCH  25  26
HETATM   26  C   UNL     1      27.584  44.292  54.418  1.00  0.00    -0.052 A 
HETATM   27  C   UNL     1      28.703  43.457  54.306  1.00  0.00     0.049 A 
HETATM   28  C   UNL     1      29.886  43.784  54.967  1.00  0.00     0.116 A 
HETATM   29  F   UNL     1      30.941  42.966  54.858  1.00  0.00    -0.206 F 
HETATM   30  C   UNL     1      29.987  44.937  55.735  1.00  0.00     0.042 A 
HETATM   31  C   UNL     1      28.885  45.781  55.842  1.00  0.00     0.003 A 
HETATM   32  C   UNL     1      27.692  45.462  55.188  1.00  0.00     0.007 A 
ENDBRANCH  25  26
ENDBRANCH   1  25
BRANCH   5  33
HETATM   33  C   UNL     1      23.786  42.007  50.251  1.00  0.00     0.140 C 
BRANCH  33  34
HETATM   34  C   UNL     1      23.680  42.402  48.769  1.00  0.00    -0.004 C 
HETATM   35  C   UNL     1      23.280  41.220  47.886  1.00  0.00     0.011 C 
HETATM   36  C   UNL     1      22.660  43.534  48.617  1.00  0.00     0.011 C 
ENDBRANCH  33  34
ENDBRANCH   5  33
TORSDOF 7
ENDMDL
MODEL 2
REMARK VINA RESULT:      -9.0      2.670      5.299
REMARK  7 active torsions:
REMARK  status: ('A' for Active; 'I' for Inactive)
REMARK    1  A    between atoms: C_8  and  C_9 
REMARK    2  A    between atoms: C_9  and  N_10 
REMARK    3  A    between atoms: C_14  and  C_15 
REMARK    4  A    between atoms: C_15  and  C_16 
REMARK    5  A    between atoms: C_16  and  C_17 
REMARK    6  A    between atoms: N_27  and  C_28 
REMARK    7  A    between atoms: C_28  and  C_29 
ROOT
HETATM    1  C   UNL     1      26.523  42.281  50.554  1.00  0.00     0.123 A 
HETATM    2  N   UNL     1      26.613  41.322  51.645  1.00  0.00    -0.324 N 
HETATM    3  C   UNL     1      27.638  41.576  52.523  1.00  0.00     0.326 A 
HETATM    4  O   UNL     1      27.885  40.895  53.499  1.00  0.00    -0.247 OA
HETATM    5  N   UNL     1      28.263  42.717  52.125  1.00  0.00    -0.268 N 
HETATM    6  C   UNL     1      27.692  43.194  50.981  1.00  0.00     0.257 A 
HETATM    7  O   UNL     1      28.012  44.225  50.405  1.00  0.00    -0.270 OA
HETATM    8  H   UNL     1      26.067  40.470  51.730  1.00  0.00     0.165 HD
ENDROOT
BRANCH   1   9
HETATM    9  C   UNL     1      25.118  42.982  50.583  1.00  0.00     0.027 C 
HETATM   10  C   UNL     1      24.722  43.840  49.369  1.00  0.00     0.035 C 
HETATM   11  C   UNL     1      25.293  45.252  49.324  1.00  0.00     0.235 C 
HETATM   12  N   UNL     1      25.167  45.972  50.642  1.00  0.00    -0.067 N 
HETATM   13  H   UNL     1      24.191  46.292  50.717  1.00  0.00     0.280 HD
HETATM   14  C   UNL     1      25.463  45.176  51.884  1.00  0.00     0.235 C 
HETATM   15  C   UNL     1      24.808  43.807  51.849  1.00  0.00     0.035 C 
BRANCH  12  16
HETATM   16  C   UNL     1      26.019  47.237  50.653  1.00  0.00     0.278 C 
BRANCH  16  17
HETATM   17  C   UNL     1      25.631  48.239  49.640  1.00  0.00     0.034 A 
HETATM   18  C   UNL     1      26.459  49.171  48.951  1.00  0.00     0.062 A 
HETATM   19  C   UNL     1      27.931  49.361  49.047  1.00  0.00     0.073 C 
HETATM   20  N   UNL     1      25.751  49.935  48.111  1.00  0.00    -0.176 NA
HETATM   21  N   UNL     1      24.472  49.552  48.291  1.00  0.00    -0.262 N 
HETATM   22  C   UNL     1      23.414  50.251  47.599  1.00  0.00     0.181 C 
HETATM   23  C   UNL     1      24.372  48.514  49.166  1.00  0.00     0.131 A 
HETATM   24 CL   UNL     1      22.873  47.796  49.529  1.00  0.00    -0.062 Cl
ENDBRANCH  16  17
ENDBRANCH  12  16
ENDBRANCH   1   9
BRANCH   1  25
HETATM   25  C   UNL     1      26.923  41.629  49.205  1.00  0.00     0.080 C 
BRANCH  25  26
HETATM   26  C   UNL     1      27.417  40.203  49.305  1.00  0.00    -0.052 A 
HETATM   27  C   UNL     1      28.785  39.905  49.321  1.00  0.00     0.049 A 
HETATM   28  C   UNL     1      29.210  38.581  49.399  1.00  0.00     0.116 A 
HETATM   29  F   UNL     1      30.523  38.316  49.399  1.00  0.00    -0.206 F 
HETATM   30  C   UNL     1      28.298  37.536  49.472  1.00  0.00     0.042 A 
HETATM   31  C   UNL     1      26.936  37.819  49.471  1.00  0.00     0.003 A 
HETATM   32  C   UNL     1      26.497  39.144  49.389  1.00  0.00     0.007 A 
ENDBRANCH  25  26
ENDBRANCH   1  25
BRANCH   5  33
HETATM   33  C   UNL     1      29.351  43.351  52.845  1.00  0.00     0.140 C 
BRANCH  33  34
HETATM   34  C   UNL     1      29.026  43.653  54.316  1.00  0.00    -0.004 C 
HETATM   35  C   UNL     1      30.287  43.768  55.173  1.00  0.00     0.011 C 
HETATM   36  C   UNL     1      28.218  44.951  54.402  1.00  0.00     0.011 C 
ENDBRANCH  33  34
ENDBRANCH   5  33
TORSDOF 7
ENDMDL
MODEL 3
REMARK VINA RESULT:      -8.9      1.502      1.940
REMARK  7 active torsions:
REMARK  status: ('A' for Active; 'I' for Inactive)
REMARK    1  A    between atoms: C_8  and  C_9 
REMARK    2  A    between atoms: C_9  and  N_10 
REMARK    3  A    between atoms: C_14  and  C_15 
REMARK    4  A    between atoms: C_15  and  C_16 
REMARK    5  A    between atoms: C_16  and  C_17 
REMARK    6  A    between atoms: N_27  and  C_28 
REMARK    7  A    between atoms: C_28  and  C_29 
ROOT
HETATM    1  C   UNL     1      26.952  43.795  52.187  1.00  0.00     0.123 A 
HETATM    2  N   UNL     1      28.026  42.936  51.712  1.00  0.00    -0.324 N 
HETATM    3  C   UNL     1      27.588  41.834  51.018  1.00  0.00     0.326 A 
HETATM    4  O   UNL     1      28.323  40.993  50.539  1.00  0.00    -0.247 OA
HETATM    5  N   UNL     1      26.231  41.896  50.939  1.00  0.00    -0.268 N 
HETATM    6  C   UNL     1      25.769  42.996  51.600  1.00  0.00     0.257 A 
HETATM    7  O   UNL     1      24.597  43.341  51.671  1.00  0.00    -0.270 OA
HETATM    8  H   UNL     1      29.010  43.037  51.940  1.00  0.00     0.165 HD
ENDROOT
BRANCH   1   9
HETATM    9  C   UNL     1      27.120  45.233  51.580  1.00  0.00     0.027 C 
HETATM   10  C   UNL     1      26.125  46.318  52.027  1.00  0.00     0.035 C 
HETATM   11  C   UNL     1      24.766  46.316  51.340  1.00  0.00     0.235 C 
HETATM   12  N   UNL     1      24.873  46.171  49.843  1.00  0.00    -0.067 N 
HETATM   13  H   UNL     1      25.139  47.095  49.472  1.00  0.00     0.280 HD
HETATM   14  C   UNL     1      25.881  45.183  49.324  1.00  0.00     0.235 C 
HETATM   15  C   UNL     1      27.213  45.303  50.042  1.00  0.00     0.035 C 
BRANCH  12  16
HETATM   16  C   UNL     1      23.512  45.855  49.230  1.00  0.00     0.278 C 
BRANCH  16  17
HETATM   17  C   UNL     1      22.746  47.044  48.807  1.00  0.00     0.034 A 
HETATM   18  C   UNL     1      21.367  47.136  48.462  1.00  0.00     0.062 A 
HETATM   19  C   UNL     1      20.331  46.068  48.467  1.00  0.00     0.073 C 
HETATM   20  N   UNL     1      21.025  48.381  48.112  1.00  0.00    -0.176 NA
HETATM   21  N   UNL     1      22.174  49.082  48.168  1.00  0.00    -0.262 N 
HETATM   22  C   UNL     1      22.187  50.465  47.750  1.00  0.00     0.181 C 
HETATM   23  C   UNL     1      23.210  48.323  48.618  1.00  0.00     0.131 A 
HETATM   24 CL   UNL     1      24.765  48.978  48.840  1.00  0.00    -0.062 Cl
ENDBRANCH  16  17
ENDBRANCH  12  16
ENDBRANCH   1   9
BRANCH   1  25
HETATM   25  C   UNL     1      26.826  43.726  53.732  1.00  0.00     0.080 C 
BRANCH  25  26
HETATM   26  C   UNL     1      28.046  44.196  54.494  1.00  0.00    -0.052 A 
HETATM   27  C   UNL     1      29.156  43.362  54.678  1.00  0.00     0.049 A 
HETATM   28  C   UNL     1      30.259  43.816  55.397  1.00  0.00     0.116 A 
HETATM   29  F   UNL     1      31.304  42.998  55.573  1.00  0.00    -0.206 F 
HETATM   30  C   UNL     1      30.289  45.096  55.936  1.00  0.00     0.042 A 
HETATM   31  C   UNL     1      29.198  45.939  55.749  1.00  0.00     0.003 A 
HETATM   32  C   UNL     1      28.084  45.493  55.032  1.00  0.00     0.007 A 
ENDBRANCH  25  26
ENDBRANCH   1  25
BRANCH   5  33
HETATM   33  C   UNL     1      25.408  40.947  50.215  1.00  0.00     0.140 C 
BRANCH  33  34
HETATM   34  C   UNL     1      25.118  41.360  48.763  1.00  0.00    -0.004 C 
HETATM   35  C   UNL     1      25.484  40.258  47.767  1.00  0.00     0.011 C 
HETATM   36  C   UNL     1      23.636  41.718  48.622  1.00  0.00     0.011 C 
ENDBRANCH  33  34
ENDBRANCH   5  33
TORSDOF 7
ENDMDL
MODEL 4
REMARK VINA RESULT:      -8.7      2.098      3.217
REMARK  7 active torsions:
REMARK  status: ('A' for Active; 'I' for Inactive)
REMARK    1  A    between atoms: C_8  and  C_9 
REMARK    2  A    between atoms: C_9  and  N_10 
REMARK    3  A    between atoms: C_14  and  C_15 
REMARK    4  A    between atoms: C_15  and  C_16 
REMARK    5  A    between atoms: C_16  and  C_17 
REMARK    6  A    between atoms: N_27  and  C_28 
REMARK    7  A    between atoms: C_28  and  C_29 
ROOT
HETATM    1  C   UNL     1      26.499  43.231  50.727  1.00  0.00     0.123 A 
HETATM    2  N   UNL     1      26.292  43.052  49.298  1.00  0.00    -0.324 N 
HETATM    3  C   UNL     1      26.579  41.785  48.850  1.00  0.00     0.326 A 
HETATM    4  O   UNL     1      26.474  41.431  47.692  1.00  0.00    -0.247 OA
HETATM    5  N   UNL     1      26.944  41.032  49.922  1.00  0.00    -0.268 N 
HETATM    6  C   UNL     1      26.938  41.789  51.057  1.00  0.00     0.257 A 
HETATM    7  O   UNL     1      27.184  41.380  52.184  1.00  0.00    -0.270 OA
HETATM    8  H   UNL     1      26.067  43.788  48.635  1.00  0.00     0.165 HD
ENDROOT
BRANCH   1   9
HETATM    9  C   UNL     1      25.149  43.662  51.405  1.00  0.00     0.027 C 
HETATM   10  C   UNL     1      23.840  43.294  50.687  1.00  0.00     0.035 C 
HETATM   11  C   UNL     1      23.417  44.203  49.541  1.00  0.00     0.235 C 
HETATM   12  N   UNL     1      23.526  45.665  49.889  1.00  0.00    -0.067 N 
HETATM   13  H   UNL     1      22.707  45.896  50.470  1.00  0.00     0.280 HD
HETATM   14  C   UNL     1      24.744  46.093  50.661  1.00  0.00     0.235 C 
HETATM   15  C   UNL     1      25.048  45.147  51.809  1.00  0.00     0.035 C 
BRANCH  12  16
HETATM   16  C   UNL     1      23.405  46.532  48.639  1.00  0.00     0.278 C 
BRANCH  16  17
HETATM   17  C   UNL     1      23.089  47.948  48.911  1.00  0.00     0.034 A 
HETATM   18  C   UNL     1      23.985  49.047  49.048  1.00  0.00     0.062 A 
HETATM   19  C   UNL     1      25.467  49.063  48.926  1.00  0.00     0.073 C 
HETATM   20  N   UNL     1      23.334  50.187  49.307  1.00  0.00    -0.176 NA
HETATM   21  N   UNL     1      22.038  49.831  49.398  1.00  0.00    -0.262 N 
HETATM   22  C   UNL     1      21.052  50.819  49.771  1.00  0.00     0.181 C 
HETATM   23  C   UNL     1      21.855  48.510  49.126  1.00  0.00     0.131 A 
HETATM   24 CL   UNL     1      20.304  47.810  49.113  1.00  0.00    -0.062 Cl
ENDBRANCH  16  17
ENDBRANCH  12  16
ENDBRANCH   1   9
BRANCH   1  25
HETATM   25  C   UNL     1      27.715  44.153  51.003  1.00  0.00     0.080 C 
BRANCH  25  26
HETATM   26  C   UNL     1      28.393  43.935  52.337  1.00  0.00    -0.052 A 
HETATM   27  C   UNL     1      27.900  44.520  53.509  1.00  0.00     0.049 A 
HETATM   28  C   UNL     1      28.555  44.313  54.722  1.00  0.00     0.116 A 
HETATM   29  F   UNL     1      28.074  44.893  55.829  1.00  0.00    -0.206 F 
HETATM   30  C   UNL     1      29.694  43.524  54.799  1.00  0.00     0.042 A 
HETATM   31  C   UNL     1      30.188  42.926  53.643  1.00  0.00     0.003 A 
HETATM   32  C   UNL     1      29.542  43.128  52.420  1.00  0.00     0.007 A 
ENDBRANCH  25  26
ENDBRANCH   1  25
BRANCH   5  33
HETATM   33  C   UNL     1      27.250  39.615  49.862  1.00  0.00     0.140 C 
BRANCH  33  34
HETATM   34  C   UNL     1      28.718  39.314  49.521  1.00  0.00    -0.004 C 
HETATM   35  C   UNL     1      29.438  38.594  50.661  1.00  0.00     0.011 C 
HETATM   36  C   UNL     1      28.780  38.465  48.248  1.00  0.00     0.011 C 
ENDBRANCH  33  34
ENDBRANCH   5  33
TORSDOF 7
ENDMDL
MODEL 5
REMARK VINA RESULT:      -8.5      2.295      2.890
REMARK  7 active torsions:
REMARK  status: ('A' for Active; 'I' for Inactive)
REMARK    1  A    between atoms: C_8  and  C_9 
REMARK    2  A    between atoms: C_9  and  N_10 
REMARK    3  A    between atoms: C_14  and  C_15 
REMARK    4  A    between atoms: C_15  and  C_16 
REMARK    5  A    between atoms: C_16  and  C_17 
REMARK    6  A    between atoms: N_27  and  C_28 
REMARK    7  A    between atoms: C_28  and  C_29 
ROOT
HETATM    1  C   UNL     1      27.058  43.509  52.074  1.00  0.00     0.123 A 
HETATM    2  N   UNL     1      28.273  42.771  51.760  1.00  0.00    -0.324 N 
HETATM    3  C   UNL     1      28.043  41.537  51.201  1.00  0.00     0.326 A 
HETATM    4  O   UNL     1      28.921  40.766  50.868  1.00  0.00    -0.247 OA
HETATM    5  N   UNL     1      26.699  41.381  51.060  1.00  0.00    -0.268 N 
HETATM    6  C   UNL     1      26.042  42.471  51.551  1.00  0.00     0.257 A 
HETATM    7  O   UNL     1      24.830  42.639  51.528  1.00  0.00    -0.270 OA
HETATM    8  H   UNL     1      29.217  43.049  52.012  1.00  0.00     0.165 HD
ENDROOT
BRANCH   1   9
HETATM    9  C   UNL     1      27.049  44.868  51.289  1.00  0.00     0.027 C 
HETATM   10  C   UNL     1      26.065  45.956  51.754  1.00  0.00     0.035 C 
HETATM   11  C   UNL     1      24.624  45.811  51.282  1.00  0.00     0.235 C 
HETATM   12  N   UNL     1      24.524  45.490  49.813  1.00  0.00    -0.067 N 
HETATM   13  H   UNL     1      24.678  46.372  49.303  1.00  0.00     0.280 HD
HETATM   14  C   UNL     1      25.505  44.491  49.265  1.00  0.00     0.235 C 
HETATM   15  C   UNL     1      26.917  44.755  49.757  1.00  0.00     0.035 C 
BRANCH  12  16
HETATM   16  C   UNL     1      23.111  45.044  49.450  1.00  0.00     0.278 C 
BRANCH  16  17
HETATM   17  C   UNL     1      22.627  45.555  48.153  1.00  0.00     0.034 A 
HETATM   18  C   UNL     1      22.080  46.836  47.852  1.00  0.00     0.062 A 
HETATM   19  C   UNL     1      21.882  48.002  48.754  1.00  0.00     0.073 C 
HETATM   20  N   UNL     1      21.735  46.936  46.563  1.00  0.00    -0.176 NA
HETATM   21  N   UNL     1      21.994  45.721  46.041  1.00  0.00    -0.262 N 
HETATM   22  C   UNL     1      21.642  45.445  44.667  1.00  0.00     0.181 C 
HETATM   23  C   UNL     1      22.565  44.888  46.954  1.00  0.00     0.131 A 
HETATM   24 CL   UNL     1      23.048  43.311  46.541  1.00  0.00    -0.062 Cl
ENDBRANCH  16  17
ENDBRANCH  12  16
ENDBRANCH   1   9
BRANCH   1  25
HETATM   25  C   UNL     1      26.852  43.615  53.608  1.00  0.00     0.080 C 
BRANCH  25  26
HETATM   26  C   UNL     1      28.045  44.134  54.379  1.00  0.00    -0.052 A 
HETATM   27  C   UNL     1      29.141  43.311  54.665  1.00  0.00     0.049 A 
HETATM   28  C   UNL     1      30.220  43.812  55.391  1.00  0.00     0.116 A 
HETATM   29  F   UNL     1      31.253  43.005  55.666  1.00  0.00    -0.206 F 
HETATM   30  C   UNL     1      30.239  45.128  55.835  1.00  0.00     0.042 A 
HETATM   31  C   UNL     1      29.162  45.960  55.545  1.00  0.00     0.003 A 
HETATM   32  C   UNL     1      28.072  45.467  54.821  1.00  0.00     0.007 A 
ENDBRANCH  25  26
ENDBRANCH   1  25
BRANCH   5  33
HETATM   33  C   UNL     1      26.068  40.234  50.435  1.00  0.00     0.140 C 
BRANCH  33  34
HETATM   34  C   UNL     1      26.079  40.282  48.899  1.00  0.00    -0.004 C 
HETATM   35  C   UNL     1      26.378  38.915  48.283  1.00  0.00     0.011 C 
HETATM   36  C   UNL     1      24.727  40.795  48.397  1.00  0.00     0.011 C 
ENDBRANCH  33  34
ENDBRANCH   5  33
TORSDOF 7
ENDMDL
MODEL 6
REMARK VINA RESULT:      -8.5     11.877     14.604
REMARK  7 active torsions:
REMARK  status: ('A' for Active; 'I' for Inactive)
REMARK    1  A    between atoms: C_8  and  C_9 
REMARK    2  A    between atoms: C_9  and  N_10 
REMARK    3  A    between atoms: C_14  and  C_15 
REMARK    4  A    between atoms: C_15  and  C_16 
REMARK    5  A    between atoms: C_16  and  C_17 
REMARK    6  A    between atoms: N_27  and  C_28 
REMARK    7  A    between atoms: C_28  and  C_29 
ROOT
HETATM    1  C   UNL     1      30.515  48.903  40.440  1.00  0.00     0.123 A 
HETATM    2  N   UNL     1      29.274  49.400  41.016  1.00  0.00    -0.324 N 
HETATM    3  C   UNL     1      28.148  48.796  40.513  1.00  0.00     0.326 A 
HETATM    4  O   UNL     1      27.015  49.067  40.860  1.00  0.00    -0.247 OA
HETATM    5  N   UNL     1      28.541  47.845  39.623  1.00  0.00    -0.268 N 
HETATM    6  C   UNL     1      29.900  47.840  39.504  1.00  0.00     0.257 A 
HETATM    7  O   UNL     1      30.549  47.071  38.809  1.00  0.00    -0.270 OA
HETATM    8  H   UNL     1      29.190  50.191  41.648  1.00  0.00     0.165 HD
ENDROOT
BRANCH   1   9
HETATM    9  C   UNL     1      31.423  48.311  41.575  1.00  0.00     0.027 C 
HETATM   10  C   UNL     1      31.364  48.979  42.959  1.00  0.00     0.035 C 
HETATM   11  C   UNL     1      32.183  50.252  43.132  1.00  0.00     0.235 C 
HETATM   12  N   UNL     1      33.580  50.123  42.580  1.00  0.00    -0.067 N 
HETATM   13  H   UNL     1      34.127  49.591  43.273  1.00  0.00     0.280 HD
HETATM   14  C   UNL     1      33.729  49.412  41.264  1.00  0.00     0.235 C 
HETATM   15  C   UNL     1      32.913  48.133  41.215  1.00  0.00     0.035 C 
BRANCH  12  16
HETATM   16  C   UNL     1      34.252  51.489  42.482  1.00  0.00     0.278 C 
BRANCH  16  17
HETATM   17  C   UNL     1      35.361  51.551  41.510  1.00  0.00     0.034 A 
HETATM   18  C   UNL     1      36.699  51.084  41.658  1.00  0.00     0.062 A 
HETATM   19  C   UNL     1      37.321  50.386  42.815  1.00  0.00     0.073 C 
HETATM   20  N   UNL     1      37.432  51.326  40.566  1.00  0.00    -0.176 NA
HETATM   21  N   UNL     1      36.606  51.995  39.737  1.00  0.00    -0.262 N 
HETATM   22  C   UNL     1      37.112  52.504  38.483  1.00  0.00     0.181 C 
HETATM   23  C   UNL     1      35.352  52.109  40.255  1.00  0.00     0.131 A 
HETATM   24 CL   UNL     1      34.096  52.859  39.388  1.00  0.00    -0.062 Cl
ENDBRANCH  16  17
ENDBRANCH  12  16
ENDBRANCH   1   9
BRANCH   1  25
HETATM   25  C   UNL     1      31.178  49.976  39.537  1.00  0.00     0.080 C 
BRANCH  25  26
HETATM   26  C   UNL     1      30.568  51.357  39.631  1.00  0.00    -0.052 A 
HETATM   27  C   UNL     1      29.670  51.824  38.664  1.00  0.00     0.049 A 
HETATM   28  C   UNL     1      29.135  53.106  38.768  1.00  0.00     0.116 A 
HETATM   29  F   UNL     1      28.288  53.539  37.826  1.00  0.00    -0.206 F 
HETATM   30  C   UNL     1      29.469  53.941  39.827  1.00  0.00     0.042 A 
HETATM   31  C   UNL     1      30.351  53.483  40.802  1.00  0.00     0.003 A 
HETATM   32  C   UNL     1      30.896  52.200  40.706  1.00  0.00     0.007 A 
ENDBRANCH  25  26
ENDBRANCH   1  25
BRANCH   5  33
HETATM   33  C   UNL     1      27.637  46.941  38.937  1.00  0.00     0.140 C 
BRANCH  33  34
HETATM   34  C   UNL     1      27.250  45.706  39.766  1.00  0.00    -0.004 C 
HETATM   35  C   UNL     1      25.770  45.352  39.614  1.00  0.00     0.011 C 
HETATM   36  C   UNL     1      28.116  44.517  39.342  1.00  0.00     0.011 C 
ENDBRANCH  33  34
ENDBRANCH   5  33
TORSDOF 7
ENDMDL
MODEL 7
REMARK VINA RESULT:      -8.4      6.175     11.027
REMARK  7 active torsions:
REMARK  status: ('A' for Active; 'I' for Inactive)
REMARK    1  A    between atoms: C_8  and  C_9 
REMARK    2  A    between atoms: C_9  and  N_10 
REMARK    3  A    between atoms: C_14  and  C_15 
REMARK    4  A    between atoms: C_15  and  C_16 
REMARK    5  A    between atoms: C_16  and  C_17 
REMARK    6  A    between atoms: N_27  and  C_28 
REMARK    7  A    between atoms: C_28  and  C_29 
ROOT
HETATM    1  C   UNL     1      17.484  50.407  48.572  1.00  0.00     0.123 A 
HETATM    2  N   UNL     1      16.154  49.817  48.586  1.00  0.00    -0.324 N 
HETATM    3  C   UNL     1      15.913  48.968  47.533  1.00  0.00     0.326 A 
HETATM    4  O   UNL     1      14.865  48.376  47.360  1.00  0.00    -0.247 OA
HETATM    5  N   UNL     1      17.046  48.891  46.784  1.00  0.00    -0.268 N 
HETATM    6  C   UNL     1      18.012  49.703  47.303  1.00  0.00     0.257 A 
HETATM    7  O   UNL     1      19.151  49.816  46.871  1.00  0.00    -0.270 OA
HETATM    8  H   UNL     1      15.403  50.063  49.225  1.00  0.00     0.165 HD
ENDROOT
BRANCH   1   9
HETATM    9  C   UNL     1      18.248  50.016  49.887  1.00  0.00     0.027 C 
HETATM   10  C   UNL     1      19.603  50.691  50.154  1.00  0.00     0.035 C 
HETATM   11  C   UNL     1      20.806  50.108  49.425  1.00  0.00     0.235 C 
HETATM   12  N   UNL     1      20.854  48.603  49.496  1.00  0.00    -0.067 N 
HETATM   13  H   UNL     1      21.213  48.359  50.430  1.00  0.00     0.280 HD
HETATM   14  C   UNL     1      19.552  47.871  49.321  1.00  0.00     0.235 C 
HETATM   15  C   UNL     1      18.434  48.504  50.128  1.00  0.00     0.035 C 
BRANCH  12  16
HETATM   16  C   UNL     1      21.871  48.045  48.504  1.00  0.00     0.278 C 
BRANCH  16  17
HETATM   17  C   UNL     1      23.278  48.311  48.863  1.00  0.00     0.034 A 
HETATM   18  C   UNL     1      24.069  49.457  48.565  1.00  0.00     0.062 A 
HETATM   19  C   UNL     1      23.680  50.698  47.842  1.00  0.00     0.073 C 
HETATM   20  N   UNL     1      25.313  49.338  49.042  1.00  0.00    -0.176 NA
HETATM   21  N   UNL     1      25.355  48.109  49.591  1.00  0.00    -0.262 N 
HETATM   22  C   UNL     1      26.602  47.607  50.123  1.00  0.00     0.181 C 
HETATM   23  C   UNL     1      24.146  47.487  49.537  1.00  0.00     0.131 A 
HETATM   24 CL   UNL     1      23.905  45.945  50.213  1.00  0.00    -0.062 Cl
ENDBRANCH  16  17
ENDBRANCH  12  16
ENDBRANCH   1   9
BRANCH   1  25
HETATM   25  C   UNL     1      17.418  51.924  48.257  1.00  0.00     0.080 C 
BRANCH  25  26
HETATM   26  C   UNL     1      16.208  52.640  48.815  1.00  0.00    -0.052 A 
HETATM   27  C   UNL     1      15.197  53.125  47.976  1.00  0.00     0.049 A 
HETATM   28  C   UNL     1      14.102  53.794  48.518  1.00  0.00     0.116 A 
HETATM   29  F   UNL     1      13.152  54.261  47.697  1.00  0.00    -0.206 F 
HETATM   30  C   UNL     1      13.982  53.987  49.888  1.00  0.00     0.042 A 
HETATM   31  C   UNL     1      14.973  53.499  50.734  1.00  0.00     0.003 A 
HETATM   32  C   UNL     1      16.079  52.829  50.202  1.00  0.00     0.007 A 
ENDBRANCH  25  26
ENDBRANCH   1  25
BRANCH   5  33
HETATM   33  C   UNL     1      17.207  48.032  45.626  1.00  0.00     0.140 C 
BRANCH  33  34
HETATM   34  C   UNL     1      17.790  46.650  45.958  1.00  0.00    -0.004 C 
HETATM   35  C   UNL     1      17.024  45.521  45.268  1.00  0.00     0.011 C 
HETATM   36  C   UNL     1      19.264  46.607  45.545  1.00  0.00     0.011 C 
ENDBRANCH  33  34
ENDBRANCH   5  33
TORSDOF 7
ENDMDL
MODEL 8
REMARK VINA RESULT:      -8.2      4.616      9.110
REMARK  7 active torsions:
REMARK  status: ('A' for Active; 'I' for Inactive)
REMARK    1  A    between atoms: C_8  and  C_9 
REMARK    2  A    between atoms: C_9  and  N_10 
REMARK    3  A    between atoms: C_14  and  C_15 
REMARK    4  A    between atoms: C_15  and  C_16 
REMARK    5  A    between atoms: C_16  and  C_17 
REMARK    6  A    between atoms: N_27  and  C_28 
REMARK    7  A    between atoms: C_28  and  C_29 
ROOT
HETATM    1  C   UNL     1      19.529  47.920  48.108  1.00  0.00     0.123 A 
HETATM    2  N   UNL     1      19.883  48.210  49.489  1.00  0.00    -0.324 N 
HETATM    3  C   UNL     1      19.139  49.220  50.051  1.00  0.00     0.326 A 
HETATM    4  O   UNL     1      19.278  49.615  51.192  1.00  0.00    -0.247 OA
HETATM    5  N   UNL     1      18.229  49.637  49.131  1.00  0.00    -0.268 N 
HETATM    6  C   UNL     1      18.386  48.947  47.964  1.00  0.00     0.257 A 
HETATM    7  O   UNL     1      17.689  49.073  46.966  1.00  0.00    -0.270 OA
HETATM    8  H   UNL     1      20.667  47.812  49.996  1.00  0.00     0.165 HD
ENDROOT
BRANCH   1   9
HETATM    9  C   UNL     1      19.068  46.424  47.985  1.00  0.00     0.027 C 
HETATM   10  C   UNL     1      19.656  45.411  48.981  1.00  0.00     0.035 C 
HETATM   11  C   UNL     1      21.049  44.883  48.667  1.00  0.00     0.235 C 
HETATM   12  N   UNL     1      21.203  44.473  47.224  1.00  0.00    -0.067 N 
HETATM   13  H   UNL     1      20.753  43.551  47.126  1.00  0.00     0.280 HD
HETATM   14  C   UNL     1      20.586  45.375  46.191  1.00  0.00     0.235 C 
HETATM   15  C   UNL     1      19.182  45.802  46.578  1.00  0.00     0.035 C 
BRANCH  12  16
HETATM   16  C   UNL     1      22.672  44.256  46.876  1.00  0.00     0.278 C 
BRANCH  16  17
HETATM   17  C   UNL     1      23.361  43.271  47.733  1.00  0.00     0.034 A 
HETATM   18  C   UNL     1      23.170  41.860  47.795  1.00  0.00     0.062 A 
HETATM   19  C   UNL     1      22.252  41.007  46.995  1.00  0.00     0.073 C 
HETATM   20  N   UNL     1      23.967  41.293  48.707  1.00  0.00    -0.176 NA
HETATM   21  N   UNL     1      24.627  42.320  49.276  1.00  0.00    -0.262 N 
HETATM   22  C   UNL     1      25.515  42.069  50.388  1.00  0.00     0.181 C 
HETATM   23  C   UNL     1      24.317  43.509  48.689  1.00  0.00     0.131 A 
HETATM   24 CL   UNL     1      25.054  44.962  49.177  1.00  0.00    -0.062 Cl
ENDBRANCH  16  17
ENDBRANCH  12  16
ENDBRANCH   1   9
BRANCH   1  25
HETATM   25  C   UNL     1      20.659  48.358  47.140  1.00  0.00     0.080 C 
BRANCH  25  26
HETATM   26  C   UNL     1      21.839  49.038  47.801  1.00  0.00    -0.052 A 
HETATM   27  C   UNL     1      22.901  48.298  48.334  1.00  0.00     0.049 A 
HETATM   28  C   UNL     1      23.966  48.950  48.951  1.00  0.00     0.116 A 
HETATM   29  F   UNL     1      24.966  48.223  49.467  1.00  0.00    -0.206 F 
HETATM   30  C   UNL     1      24.006  50.335  49.042  1.00  0.00     0.042 A 
HETATM   31  C   UNL     1      22.963  51.083  48.503  1.00  0.00     0.003 A 
HETATM   32  C   UNL     1      21.886  50.440  47.886  1.00  0.00     0.007 A 
ENDBRANCH  25  26
ENDBRANCH   1  25
BRANCH   5  33
HETATM   33  C   UNL     1      17.212  50.641  49.379  1.00  0.00     0.140 C 
BRANCH  33  34
HETATM   34  C   UNL     1      17.781  52.044  49.648  1.00  0.00    -0.004 C 
HETATM   35  C   UNL     1      18.709  52.513  48.526  1.00  0.00     0.011 C 
HETATM   36  C   UNL     1      16.628  53.036  49.819  1.00  0.00     0.011 C 
ENDBRANCH  33  34
ENDBRANCH   5  33
TORSDOF 7
ENDMDL
MODEL 9
REMARK VINA RESULT:      -8.2      4.144      7.295
REMARK  7 active torsions:
REMARK  status: ('A' for Active; 'I' for Inactive)
REMARK    1  A    between atoms: C_8  and  C_9 
REMARK    2  A    between atoms: C_9  and  N_10 
REMARK    3  A    between atoms: C_14  and  C_15 
REMARK    4  A    between atoms: C_15  and  C_16 
REMARK    5  A    between atoms: C_16  and  C_17 
REMARK    6  A    between atoms: N_27  and  C_28 
REMARK    7  A    between atoms: C_28  and  C_29 
ROOT
HETATM    1  C   UNL     1      27.356  42.704  51.840  1.00  0.00     0.123 A 
HETATM    2  N   UNL     1      26.511  43.057  52.970  1.00  0.00    -0.324 N 
HETATM    3  C   UNL     1      25.479  43.905  52.648  1.00  0.00     0.326 A 
HETATM    4  O   UNL     1      24.662  44.319  53.447  1.00  0.00    -0.247 OA
HETATM    5  N   UNL     1      25.527  44.139  51.309  1.00  0.00    -0.268 N 
HETATM    6  C   UNL     1      26.593  43.492  50.754  1.00  0.00     0.257 A 
HETATM    7  O   UNL     1      26.874  43.481  49.563  1.00  0.00    -0.270 OA
HETATM    8  H   UNL     1      26.689  42.816  53.941  1.00  0.00     0.165 HD
ENDROOT
BRANCH   1   9
HETATM    9  C   UNL     1      27.339  41.147  51.634  1.00  0.00     0.027 C 
HETATM   10  C   UNL     1      28.523  40.512  50.885  1.00  0.00     0.035 C 
HETATM   11  C   UNL     1      28.484  40.594  49.365  1.00  0.00     0.235 C 
HETATM   12  N   UNL     1      27.139  40.221  48.798  1.00  0.00    -0.067 N 
HETATM   13  H   UNL     1      27.081  39.193  48.816  1.00  0.00     0.280 HD
HETATM   14  C   UNL     1      25.927  40.741  49.521  1.00  0.00     0.235 C 
HETATM   15  C   UNL     1      26.047  40.567  51.024  1.00  0.00     0.035 C 
BRANCH  12  16
HETATM   16  C   UNL     1      27.042  40.615  47.327  1.00  0.00     0.278 C 
BRANCH  16  17
HETATM   17  C   UNL     1      27.618  39.627  46.394  1.00  0.00     0.034 A 
HETATM   18  C   UNL     1      28.051  39.821  45.051  1.00  0.00     0.062 A 
HETATM   19  C   UNL     1      28.065  41.071  44.247  1.00  0.00     0.073 C 
HETATM   20  N   UNL     1      28.507  38.686  44.509  1.00  0.00    -0.176 NA
HETATM   21  N   UNL     1      28.321  37.750  45.460  1.00  0.00    -0.262 N 
HETATM   22  C   UNL     1      28.620  36.367  45.169  1.00  0.00     0.181 C 
HETATM   23  C   UNL     1      27.830  38.287  46.611  1.00  0.00     0.131 A 
HETATM   24 CL   UNL     1      27.557  37.335  47.993  1.00  0.00    -0.062 Cl
ENDBRANCH  16  17
ENDBRANCH  12  16
ENDBRANCH   1   9
BRANCH   1  25
HETATM   25  C   UNL     1      28.759  43.351  51.970  1.00  0.00     0.080 C 
BRANCH  25  26
HETATM   26  C   UNL     1      29.128  43.803  53.366  1.00  0.00    -0.052 A 
HETATM   27  C   UNL     1      30.079  43.114  54.128  1.00  0.00     0.049 A 
HETATM   28  C   UNL     1      30.387  43.544  55.417  1.00  0.00     0.116 A 
HETATM   29  F   UNL     1      31.291  42.863  56.133  1.00  0.00    -0.206 F 
HETATM   30  C   UNL     1      29.771  44.660  55.969  1.00  0.00     0.042 A 
HETATM   31  C   UNL     1      28.833  45.361  55.217  1.00  0.00     0.003 A 
HETATM   32  C   UNL     1      28.513  44.937  53.924  1.00  0.00     0.007 A 
ENDBRANCH  25  26
ENDBRANCH   1  25
BRANCH   5  33
HETATM   33  C   UNL     1      24.554  44.929  50.579  1.00  0.00     0.140 C 
BRANCH  33  34
HETATM   34  C   UNL     1      25.066  46.321  50.175  1.00  0.00    -0.004 C 
HETATM   35  C   UNL     1      23.977  47.164  49.510  1.00  0.00     0.011 C 
HETATM   36  C   UNL     1      25.602  47.045  51.413  1.00  0.00     0.011 C 
ENDBRANCH  33  34
ENDBRANCH   5  33
TORSDOF 7
ENDMDL
MODEL 10
REMARK VINA RESULT:      -8.1     11.606     14.658
REMARK  7 active torsions:
REMARK  status: ('A' for Active; 'I' for Inactive)
REMARK    1  A    between atoms: C_8  and  C_9 
REMARK    2  A    between atoms: C_9  and  N_10 
REMARK    3  A    between atoms: C_14  and  C_15 
REMARK    4  A    between atoms: C_15  and  C_16 
REMARK    5  A    between atoms: C_16  and  C_17 
REMARK    6  A    between atoms: N_27  and  C_28 
REMARK    7  A    between atoms: C_28  and  C_29 
ROOT
HETATM    1  C   UNL     1      32.232  50.439  41.441  1.00  0.00     0.123 A 
HETATM    2  N   UNL     1      32.390  50.725  40.022  1.00  0.00    -0.324 N 
HETATM    3  C   UNL     1      33.582  51.331  39.708  1.00  0.00     0.326 A 
HETATM    4  O   UNL     1      33.907  51.654  38.582  1.00  0.00    -0.247 OA
HETATM    5  N   UNL     1      34.309  51.451  40.851  1.00  0.00    -0.268 N 
HETATM    6  C   UNL     1      33.602  50.970  41.914  1.00  0.00     0.257 A 
HETATM    7  O   UNL     1      34.008  50.908  43.067  1.00  0.00    -0.270 OA
HETATM    8  H   UNL     1      31.674  50.609  39.312  1.00  0.00     0.165 HD
ENDROOT
BRANCH   1   9
HETATM    9  C   UNL     1      32.036  48.895  41.648  1.00  0.00     0.027 C 
HETATM   10  C   UNL     1      31.742  48.038  40.405  1.00  0.00     0.035 C 
HETATM   11  C   UNL     1      30.301  48.035  39.911  1.00  0.00     0.235 C 
HETATM   12  N   UNL     1      29.305  47.846  41.026  1.00  0.00    -0.067 N 
HETATM   13  H   UNL     1      29.303  46.842  41.259  1.00  0.00     0.280 HD
HETATM   14  C   UNL     1      29.566  48.592  42.306  1.00  0.00     0.235 C 
HETATM   15  C   UNL     1      31.018  48.490  42.735  1.00  0.00     0.035 C 
BRANCH  12  16
HETATM   16  C   UNL     1      27.891  48.163  40.550  1.00  0.00     0.278 C 
BRANCH  16  17
HETATM   17  C   UNL     1      27.407  47.290  39.462  1.00  0.00     0.034 A 
HETATM   18  C   UNL     1      26.882  47.663  38.192  1.00  0.00     0.062 A 
HETATM   19  C   UNL     1      26.712  49.024  37.615  1.00  0.00     0.073 C 
HETATM   20  N   UNL     1      26.529  46.594  37.469  1.00  0.00    -0.176 NA
HETATM   21  N   UNL     1      26.762  45.540  38.275  1.00  0.00    -0.262 N 
HETATM   22  C   UNL     1      26.395  44.213  37.838  1.00  0.00     0.181 C 
HETATM   23  C   UNL     1      27.324  45.919  39.455  1.00  0.00     0.131 A 
HETATM   24 CL   UNL     1      27.774  44.779  40.634  1.00  0.00    -0.062 Cl
ENDBRANCH  16  17
ENDBRANCH  12  16
ENDBRANCH   1   9
BRANCH   1  25
HETATM   25  C   UNL     1      31.147  51.347  42.074  1.00  0.00     0.080 C 
BRANCH  25  26
HETATM   26  C   UNL     1      30.346  52.170  41.089  1.00  0.00    -0.052 A 
HETATM   27  C   UNL     1      29.299  51.605  40.351  1.00  0.00     0.049 A 
HETATM   28  C   UNL     1      28.589  52.383  39.439  1.00  0.00     0.116 A 
HETATM   29  F   UNL     1      27.599  51.821  38.734  1.00  0.00    -0.206 F 
HETATM   30  C   UNL     1      28.892  53.725  39.248  1.00  0.00     0.042 A 
HETATM   31  C   UNL     1      29.923  54.301  39.985  1.00  0.00     0.003 A 
HETATM   32  C   UNL     1      30.645  53.530  40.900  1.00  0.00     0.007 A 
ENDBRANCH  25  26
ENDBRANCH   1  25
BRANCH   5  33
HETATM   33  C   UNL     1      35.660  51.977  40.913  1.00  0.00     0.140 C 
BRANCH  33  34
HETATM   34  C   UNL     1      36.747  50.917  40.678  1.00  0.00    -0.004 C 
HETATM   35  C   UNL     1      37.590  51.221  39.439  1.00  0.00     0.011 C 
HETATM   36  C   UNL     1      37.649  50.832  41.913  1.00  0.00     0.011 C 
ENDBRANCH  33  34
ENDBRANCH   5  33
TORSDOF 7
ENDMDL
