MODEL 1
REMARK VINA RESULT:      -9.9      0.000      0.000
REMARK  7 active torsions:
REMARK  status: ('A' for Active; 'I' for Inactive)
REMARK    1  A    between atoms: O_2  and  C_3 
REMARK    2  A    between atoms: C_4  and  O_5 
REMARK    3  A    between atoms: C_7  and  C_8 
REMARK    4  A    between atoms: N_9  and  N_10 
REMARK    5  A    between atoms: C_21  and  C_22 
REMARK       I    between atoms: C_22  and  N_23 
REMARK    6  A    between atoms: N_23  and  C_24 
REMARK    7  A    between atoms: C_31  and  N_32 
ROOT
HETATM    1  N   UNL     1      25.730  45.543  52.317  1.00  0.00    -0.197 N 
HETATM    2  C   UNL     1      26.425  44.342  52.298  1.00  0.00     0.183 A 
HETATM    3  C   UNL     1      27.415  44.420  53.268  1.00  0.00     0.125 A 
HETATM    4  N   UNL     1      28.358  43.451  53.409  1.00  0.00    -0.242 NA
HETATM    5  C   UNL     1      28.201  42.401  52.591  1.00  0.00     0.086 A 
HETATM    6  C   UNL     1      27.160  42.322  51.626  1.00  0.00     0.088 A 
HETATM    7  N   UNL     1      26.261  43.306  51.440  1.00  0.00    -0.225 NA
HETATM    8  C   UNL     1      29.096  41.346  52.706  1.00  0.00     0.034 A 
HETATM    9  C   UNL     1      28.990  40.206  51.908  1.00  0.00     0.002 A 
HETATM   10  C   UNL     1      27.967  40.119  50.975  1.00  0.00     0.002 A 
HETATM   11  C   UNL     1      27.064  41.178  50.841  1.00  0.00     0.034 A 
HETATM   12  C   UNL     1      27.271  45.641  53.966  1.00  0.00     0.110 C 
HETATM   13  C   UNL     1      26.116  46.239  53.479  1.00  0.00     0.143 C 
ENDROOT
BRANCH   1  14
HETATM   14  N   UNL     1      25.203  46.136  51.191  1.00  0.00    -0.176 NA
HETATM   15  C   UNL     1      25.301  47.424  51.160  1.00  0.00     0.153 C 
BRANCH  15  16
HETATM   16  C   UNL     1      25.477  48.139  49.879  1.00  0.00     0.019 A 
HETATM   17  C   UNL     1      24.359  48.572  49.162  1.00  0.00     0.113 A 
HETATM   18  C   UNL     1      24.513  49.550  48.168  1.00  0.00     0.102 A 
HETATM   19  C   UNL     1      25.791  49.992  47.817  1.00  0.00     0.040 A 
HETATM   20  C   UNL     1      26.912  49.509  48.489  1.00  0.00     0.004 A 
HETATM   21  C   UNL     1      26.756  48.594  49.529  1.00  0.00     0.016 A 
BRANCH  17  22
HETATM   22  O   UNL     1      23.117  48.070  49.461  1.00  0.00    -0.352 OA
HETATM   23  C   UNL     1      22.809  47.015  48.545  1.00  0.00     0.210 C 
ENDBRANCH  17  22
BRANCH  18  24
HETATM   24  O   UNL     1      23.476  50.112  47.469  1.00  0.00    -0.353 OA
HETATM   25  C   UNL     1      22.794  51.130  48.203  1.00  0.00     0.210 C 
ENDBRANCH  18  24
ENDBRANCH  15  16
ENDBRANCH   1  14
BRANCH  13  26
HETATM   26  N   UNL     1      25.558  47.414  53.891  1.00  0.00    -0.383 N 
HETATM   27  H   UNL     1      24.725  47.794  53.454  1.00  0.00     0.157 HD
HETATM   28  H   UNL     1      25.556  47.589  54.902  1.00  0.00     0.157 HD
ENDBRANCH  13  26
BRANCH  12  29
HETATM   29  C   UNL     1      28.156  46.247  54.949  1.00  0.00     0.258 C 
HETATM   30  N   UNL     1      29.042  45.367  55.536  1.00  0.00    -0.352 N 
HETATM   31  H   UNL     1      28.962  44.394  55.253  1.00  0.00     0.163 HD
HETATM   32  O   UNL     1      28.182  47.458  55.157  1.00  0.00    -0.267 OA
BRANCH  30  33
HETATM   33  C   UNL     1      30.326  45.830  56.044  1.00  0.00     0.084 C 
HETATM   34  C   UNL     1      30.270  46.035  57.560  1.00  0.00     0.025 C 
HETATM   35  C   UNL     1      30.204  44.722  58.336  1.00  0.00     0.002 C 
HETATM   36  C   UNL     1      31.328  43.770  57.940  1.00  0.00     0.000 C 
HETATM   37  C   UNL     1      31.363  43.531  56.435  1.00  0.00     0.002 C 
HETATM   38  C   UNL     1      31.444  44.845  55.658  1.00  0.00     0.025 C 
ENDBRANCH  30  33
ENDBRANCH  12  29
TORSDOF 7
ENDMDL
MODEL 2
REMARK VINA RESULT:      -9.5      3.162      8.835
REMARK  7 active torsions:
REMARK  status: ('A' for Active; 'I' for Inactive)
REMARK    1  A    between atoms: O_2  and  C_3 
REMARK    2  A    between atoms: C_4  and  O_5 
REMARK    3  A    between atoms: C_7  and  C_8 
REMARK    4  A    between atoms: N_9  and  N_10 
REMARK    5  A    between atoms: C_21  and  C_22 
REMARK       I    between atoms: C_22  and  N_23 
REMARK    6  A    between atoms: N_23  and  C_24 
REMARK    7  A    between atoms: C_31  and  N_32 
ROOT
HETATM    1  N   UNL     1      26.459  43.343  51.597  1.00  0.00    -0.197 N 
HETATM    2  C   UNL     1      25.510  43.824  50.705  1.00  0.00     0.183 A 
HETATM    3  C   UNL     1      25.201  42.791  49.830  1.00  0.00     0.125 A 
HETATM    4  N   UNL     1      24.399  42.984  48.750  1.00  0.00    -0.242 NA
HETATM    5  C   UNL     1      23.886  44.219  48.652  1.00  0.00     0.086 A 
HETATM    6  C   UNL     1      24.187  45.256  49.576  1.00  0.00     0.088 A 
HETATM    7  N   UNL     1      25.029  45.088  50.613  1.00  0.00    -0.225 NA
HETATM    8  C   UNL     1      23.019  44.483  47.600  1.00  0.00     0.034 A 
HETATM    9  C   UNL     1      22.424  45.735  47.439  1.00  0.00     0.002 A 
HETATM   10  C   UNL     1      22.704  46.745  48.348  1.00  0.00     0.002 A 
HETATM   11  C   UNL     1      23.584  46.497  49.405  1.00  0.00     0.034 A 
HETATM   12  C   UNL     1      25.887  41.627  50.243  1.00  0.00     0.110 C 
HETATM   13  C   UNL     1      26.520  41.946  51.438  1.00  0.00     0.143 C 
ENDROOT
BRANCH   1  14
HETATM   14  N   UNL     1      27.473  44.114  52.120  1.00  0.00    -0.176 NA
HETATM   15  C   UNL     1      27.403  44.310  53.395  1.00  0.00     0.153 C 
BRANCH  15  16
HETATM   16  C   UNL     1      28.629  44.446  54.208  1.00  0.00     0.019 A 
HETATM   17  C   UNL     1      28.666  45.353  55.271  1.00  0.00     0.113 A 
HETATM   18  C   UNL     1      29.659  45.225  56.252  1.00  0.00     0.102 A 
HETATM   19  C   UNL     1      30.674  44.277  56.098  1.00  0.00     0.040 A 
HETATM   20  C   UNL     1      30.674  43.417  55.002  1.00  0.00     0.004 A 
HETATM   21  C   UNL     1      29.645  43.490  54.064  1.00  0.00     0.016 A 
BRANCH  17  22
HETATM   22  O   UNL     1      27.708  46.331  55.369  1.00  0.00    -0.352 OA
HETATM   23  C   UNL     1      28.170  47.503  54.687  1.00  0.00     0.210 C 
ENDBRANCH  17  22
BRANCH  18  24
HETATM   24  O   UNL     1      29.734  45.998  57.382  1.00  0.00    -0.353 OA
HETATM   25  C   UNL     1      30.585  45.441  58.385  1.00  0.00     0.210 C 
ENDBRANCH  18  24
ENDBRANCH  15  16
ENDBRANCH   1  14
BRANCH  13  26
HETATM   26  N   UNL     1      27.265  41.115  52.224  1.00  0.00    -0.383 N 
HETATM   27  H   UNL     1      28.279  41.119  52.197  1.00  0.00     0.157 HD
HETATM   28  H   UNL     1      26.923  40.962  53.180  1.00  0.00     0.157 HD
ENDBRANCH  13  26
BRANCH  12  29
HETATM   29  C   UNL     1      26.015  40.346  49.565  1.00  0.00     0.258 C 
HETATM   30  N   UNL     1      25.866  40.412  48.194  1.00  0.00    -0.352 N 
HETATM   31  H   UNL     1      25.649  41.328  47.809  1.00  0.00     0.163 HD
HETATM   32  O   UNL     1      26.335  39.316  50.152  1.00  0.00    -0.267 OA
BRANCH  30  33
HETATM   33  C   UNL     1      26.517  39.440  47.326  1.00  0.00     0.084 C 
HETATM   34  C   UNL     1      25.791  39.337  45.983  1.00  0.00     0.025 C 
HETATM   35  C   UNL     1      25.993  40.567  45.101  1.00  0.00     0.002 C 
HETATM   36  C   UNL     1      27.471  40.897  44.916  1.00  0.00     0.000 C 
HETATM   37  C   UNL     1      28.190  41.040  46.253  1.00  0.00     0.002 C 
HETATM   38  C   UNL     1      28.000  39.802  47.130  1.00  0.00     0.025 C 
ENDBRANCH  30  33
ENDBRANCH  12  29
TORSDOF 7
ENDMDL
MODEL 3
REMARK VINA RESULT:      -9.5      3.912      9.031
REMARK  7 active torsions:
REMARK  status: ('A' for Active; 'I' for Inactive)
REMARK    1  A    between atoms: O_2  and  C_3 
REMARK    2  A    between atoms: C_4  and  O_5 
REMARK    3  A    between atoms: C_7  and  C_8 
REMARK    4  A    between atoms: N_9  and  N_10 
REMARK    5  A    between atoms: C_21  and  C_22 
REMARK       I    between atoms: C_22  and  N_23 
REMARK    6  A    between atoms: N_23  and  C_24 
REMARK    7  A    between atoms: C_31  and  N_32 
ROOT
HETATM    1  N   UNL     1      27.427  42.050  51.803  1.00  0.00    -0.197 N 
HETATM    2  C   UNL     1      26.288  42.182  51.021  1.00  0.00     0.183 A 
HETATM    3  C   UNL     1      26.309  41.160  50.081  1.00  0.00     0.125 A 
HETATM    4  N   UNL     1      25.396  41.092  49.077  1.00  0.00    -0.242 NA
HETATM    5  C   UNL     1      24.450  42.041  49.121  1.00  0.00     0.086 A 
HETATM    6  C   UNL     1      24.424  43.060  50.111  1.00  0.00     0.088 A 
HETATM    7  N   UNL     1      25.360  43.170  51.072  1.00  0.00    -0.225 NA
HETATM    8  C   UNL     1      23.452  42.012  48.156  1.00  0.00     0.034 A 
HETATM    9  C   UNL     1      22.418  42.949  48.144  1.00  0.00     0.002 A 
HETATM   10  C   UNL     1      22.381  43.937  49.118  1.00  0.00     0.002 A 
HETATM   11  C   UNL     1      23.385  43.984  50.089  1.00  0.00     0.034 A 
HETATM   12  C   UNL     1      27.419  40.326  50.345  1.00  0.00     0.110 C 
HETATM   13  C   UNL     1      27.994  40.794  51.519  1.00  0.00     0.143 C 
ENDROOT
BRANCH   1  14
HETATM   14  N   UNL     1      28.121  43.120  52.324  1.00  0.00    -0.176 NA
HETATM   15  C   UNL     1      27.934  43.325  53.586  1.00  0.00     0.153 C 
BRANCH  15  16
HETATM   16  C   UNL     1      29.016  43.869  54.432  1.00  0.00     0.019 A 
HETATM   17  C   UNL     1      28.748  44.912  55.324  1.00  0.00     0.113 A 
HETATM   18  C   UNL     1      29.647  45.174  56.368  1.00  0.00     0.102 A 
HETATM   19  C   UNL     1      30.857  44.479  56.438  1.00  0.00     0.040 A 
HETATM   20  C   UNL     1      31.153  43.485  55.508  1.00  0.00     0.004 A 
HETATM   21  C   UNL     1      30.228  43.169  54.514  1.00  0.00     0.016 A 
BRANCH  17  22
HETATM   22  O   UNL     1      27.592  45.641  55.197  1.00  0.00    -0.352 OA
HETATM   23  C   UNL     1      27.912  46.929  54.660  1.00  0.00     0.210 C 
ENDBRANCH  17  22
BRANCH  18  24
HETATM   24  O   UNL     1      29.439  46.108  57.350  1.00  0.00    -0.353 OA
HETATM   25  C   UNL     1      30.515  46.182  58.288  1.00  0.00     0.210 C 
ENDBRANCH  18  24
ENDBRANCH  15  16
ENDBRANCH   1  14
BRANCH  13  26
HETATM   26  N   UNL     1      29.067  40.269  52.179  1.00  0.00    -0.383 N 
HETATM   27  H   UNL     1      29.250  40.477  53.154  1.00  0.00     0.157 HD
HETATM   28  H   UNL     1      29.307  39.296  51.959  1.00  0.00     0.157 HD
ENDBRANCH  13  26
BRANCH  12  29
HETATM   29  C   UNL     1      27.954  39.231  49.549  1.00  0.00     0.258 C 
HETATM   30  N   UNL     1      26.994  38.412  48.991  1.00  0.00    -0.352 N 
HETATM   31  H   UNL     1      26.028  38.632  49.218  1.00  0.00     0.163 HD
HETATM   32  O   UNL     1      29.154  39.114  49.309  1.00  0.00    -0.267 OA
BRANCH  30  33
HETATM   33  C   UNL     1      27.259  37.689  47.754  1.00  0.00     0.084 C 
HETATM   34  C   UNL     1      26.712  36.262  47.829  1.00  0.00     0.025 C 
HETATM   35  C   UNL     1      25.186  36.207  47.776  1.00  0.00     0.002 C 
HETATM   36  C   UNL     1      24.632  36.958  46.569  1.00  0.00     0.000 C 
HETATM   37  C   UNL     1      25.144  38.393  46.512  1.00  0.00     0.002 C 
HETATM   38  C   UNL     1      26.671  38.447  46.550  1.00  0.00     0.025 C 
ENDBRANCH  30  33
ENDBRANCH  12  29
TORSDOF 7
ENDMDL
MODEL 4
REMARK VINA RESULT:      -9.3      2.603      8.317
REMARK  7 active torsions:
REMARK  status: ('A' for Active; 'I' for Inactive)
REMARK    1  A    between atoms: O_2  and  C_3 
REMARK    2  A    between atoms: C_4  and  O_5 
REMARK    3  A    between atoms: C_7  and  C_8 
REMARK    4  A    between atoms: N_9  and  N_10 
REMARK    5  A    between atoms: C_21  and  C_22 
REMARK       I    between atoms: C_22  and  N_23 
REMARK    6  A    between atoms: N_23  and  C_24 
REMARK    7  A    between atoms: C_31  and  N_32 
ROOT
HETATM    1  N   UNL     1      25.268  47.092  50.091  1.00  0.00    -0.197 N 
HETATM    2  C   UNL     1      25.302  45.764  49.690  1.00  0.00     0.183 A 
HETATM    3  C   UNL     1      24.095  45.488  49.061  1.00  0.00     0.125 A 
HETATM    4  N   UNL     1      23.761  44.230  48.672  1.00  0.00    -0.242 NA
HETATM    5  C   UNL     1      24.716  43.312  48.879  1.00  0.00     0.086 A 
HETATM    6  C   UNL     1      25.961  43.619  49.493  1.00  0.00     0.088 A 
HETATM    7  N   UNL     1      26.273  44.850  49.937  1.00  0.00    -0.225 NA
HETATM    8  C   UNL     1      24.470  42.010  48.465  1.00  0.00     0.034 A 
HETATM    9  C   UNL     1      25.420  41.000  48.623  1.00  0.00     0.002 A 
HETATM   10  C   UNL     1      26.642  41.299  49.208  1.00  0.00     0.002 A 
HETATM   11  C   UNL     1      26.899  42.603  49.640  1.00  0.00     0.034 A 
HETATM   12  C   UNL     1      23.343  46.683  48.981  1.00  0.00     0.110 C 
HETATM   13  C   UNL     1      24.161  47.695  49.465  1.00  0.00     0.143 C 
ENDROOT
BRANCH   1  14
HETATM   14  N   UNL     1      25.861  47.554  51.245  1.00  0.00    -0.176 NA
HETATM   15  C   UNL     1      25.298  47.160  52.339  1.00  0.00     0.153 C 
BRANCH  15  16
HETATM   16  C   UNL     1      26.097  46.926  53.559  1.00  0.00     0.019 A 
HETATM   17  C   UNL     1      26.899  45.786  53.661  1.00  0.00     0.113 A 
HETATM   18  C   UNL     1      27.919  45.744  54.623  1.00  0.00     0.102 A 
HETATM   19  C   UNL     1      28.048  46.782  55.549  1.00  0.00     0.040 A 
HETATM   20  C   UNL     1      27.203  47.888  55.488  1.00  0.00     0.004 A 
HETATM   21  C   UNL     1      26.237  47.969  54.486  1.00  0.00     0.016 A 
BRANCH  17  22
HETATM   22  O   UNL     1      26.711  44.738  52.795  1.00  0.00    -0.352 OA
HETATM   23  C   UNL     1      25.777  43.819  53.374  1.00  0.00     0.210 C 
ENDBRANCH  17  22
BRANCH  18  24
HETATM   24  O   UNL     1      28.821  44.719  54.749  1.00  0.00    -0.353 OA
HETATM   25  C   UNL     1      29.819  44.972  55.739  1.00  0.00     0.210 C 
ENDBRANCH  18  24
ENDBRANCH  15  16
ENDBRANCH   1  14
BRANCH  13  26
HETATM   26  N   UNL     1      23.870  49.027  49.538  1.00  0.00    -0.383 N 
HETATM   27  H   UNL     1      22.988  49.402  49.205  1.00  0.00     0.157 HD
HETATM   28  H   UNL     1      24.183  49.518  50.383  1.00  0.00     0.157 HD
ENDBRANCH  13  26
BRANCH  12  29
HETATM   29  C   UNL     1      21.962  46.873  48.563  1.00  0.00     0.258 C 
HETATM   30  N   UNL     1      21.308  47.900  49.211  1.00  0.00    -0.352 N 
HETATM   31  H   UNL     1      21.838  48.388  49.929  1.00  0.00     0.163 HD
HETATM   32  O   UNL     1      21.461  46.242  47.635  1.00  0.00    -0.267 OA
BRANCH  30  33
HETATM   33  C   UNL     1      20.214  48.612  48.565  1.00  0.00     0.084 C 
HETATM   34  C   UNL     1      19.064  48.851  49.546  1.00  0.00     0.025 C 
HETATM   35  C   UNL     1      19.395  49.900  50.606  1.00  0.00     0.002 C 
HETATM   36  C   UNL     1      19.879  51.206  49.982  1.00  0.00     0.000 C 
HETATM   37  C   UNL     1      21.050  50.978  49.033  1.00  0.00     0.002 C 
HETATM   38  C   UNL     1      20.714  49.938  47.963  1.00  0.00     0.025 C 
ENDBRANCH  30  33
ENDBRANCH  12  29
TORSDOF 7
ENDMDL
MODEL 5
REMARK VINA RESULT:      -9.3      2.925      8.593
REMARK  7 active torsions:
REMARK  status: ('A' for Active; 'I' for Inactive)
REMARK    1  A    between atoms: O_2  and  C_3 
REMARK    2  A    between atoms: C_4  and  O_5 
REMARK    3  A    between atoms: C_7  and  C_8 
REMARK    4  A    between atoms: N_9  and  N_10 
REMARK    5  A    between atoms: C_21  and  C_22 
REMARK       I    between atoms: C_22  and  N_23 
REMARK    6  A    between atoms: N_23  and  C_24 
REMARK    7  A    between atoms: C_31  and  N_32 
ROOT
HETATM    1  N   UNL     1      24.370  44.734  50.535  1.00  0.00    -0.197 N 
HETATM    2  C   UNL     1      25.051  45.300  51.603  1.00  0.00     0.183 A 
HETATM    3  C   UNL     1      25.116  46.668  51.377  1.00  0.00     0.125 A 
HETATM    4  N   UNL     1      25.841  47.493  52.178  1.00  0.00    -0.242 NA
HETATM    5  C   UNL     1      26.414  46.886  53.227  1.00  0.00     0.086 A 
HETATM    6  C   UNL     1      26.309  45.488  53.462  1.00  0.00     0.088 A 
HETATM    7  N   UNL     1      25.644  44.656  52.639  1.00  0.00    -0.225 NA
HETATM    8  C   UNL     1      27.133  47.668  54.120  1.00  0.00     0.034 A 
HETATM    9  C   UNL     1      27.742  47.118  55.250  1.00  0.00     0.002 A 
HETATM   10  C   UNL     1      27.629  45.757  55.491  1.00  0.00     0.002 A 
HETATM   11  C   UNL     1      26.916  44.955  54.594  1.00  0.00     0.034 A 
HETATM   12  C   UNL     1      24.381  46.969  50.208  1.00  0.00     0.110 C 
HETATM   13  C   UNL     1      23.783  45.784  49.803  1.00  0.00     0.143 C 
ENDROOT
BRANCH   1  14
HETATM   14  N   UNL     1      24.658  43.490  50.020  1.00  0.00    -0.176 NA
HETATM   15  C   UNL     1      25.867  43.350  49.584  1.00  0.00     0.153 C 
BRANCH  15  16
HETATM   16  C   UNL     1      26.558  42.048  49.676  1.00  0.00     0.019 A 
HETATM   17  C   UNL     1      26.641  41.220  48.553  1.00  0.00     0.113 A 
HETATM   18  C   UNL     1      27.589  40.187  48.525  1.00  0.00     0.102 A 
HETATM   19  C   UNL     1      28.355  39.913  49.661  1.00  0.00     0.040 A 
HETATM   20  C   UNL     1      28.224  40.698  50.805  1.00  0.00     0.004 A 
HETATM   21  C   UNL     1      27.337  41.774  50.809  1.00  0.00     0.016 A 
BRANCH  17  22
HETATM   22  O   UNL     1      25.826  41.450  47.472  1.00  0.00    -0.352 OA
HETATM   23  C   UNL     1      24.657  40.630  47.589  1.00  0.00     0.210 C 
ENDBRANCH  17  22
BRANCH  18  24
HETATM   24  O   UNL     1      27.818  39.377  47.443  1.00  0.00    -0.353 OA
HETATM   25  C   UNL     1      28.410  38.125  47.798  1.00  0.00     0.210 C 
ENDBRANCH  18  24
ENDBRANCH  15  16
ENDBRANCH   1  14
BRANCH  13  26
HETATM   26  N   UNL     1      22.942  45.604  48.743  1.00  0.00    -0.383 N 
HETATM   27  H   UNL     1      22.850  44.707  48.278  1.00  0.00     0.157 HD
HETATM   28  H   UNL     1      22.038  46.088  48.789  1.00  0.00     0.157 HD
ENDBRANCH  13  26
BRANCH  12  29
HETATM   29  C   UNL     1      24.290  48.225  49.478  1.00  0.00     0.258 C 
HETATM   30  N   UNL     1      23.065  48.854  49.579  1.00  0.00    -0.352 N 
HETATM   31  H   UNL     1      22.352  48.365  50.115  1.00  0.00     0.163 HD
HETATM   32  O   UNL     1      25.255  48.732  48.912  1.00  0.00    -0.267 OA
BRANCH  30  33
HETATM   33  C   UNL     1      22.958  50.301  49.457  1.00  0.00     0.084 C 
HETATM   34  C   UNL     1      22.678  50.706  48.008  1.00  0.00     0.025 C 
HETATM   35  C   UNL     1      21.261  50.356  47.555  1.00  0.00     0.002 C 
HETATM   36  C   UNL     1      20.207  50.913  48.508  1.00  0.00     0.000 C 
HETATM   37  C   UNL     1      20.460  50.480  49.947  1.00  0.00     0.002 C 
HETATM   38  C   UNL     1      21.873  50.843  50.405  1.00  0.00     0.025 C 
ENDBRANCH  30  33
ENDBRANCH  12  29
TORSDOF 7
ENDMDL
MODEL 6
REMARK VINA RESULT:      -9.3      2.688      6.036
REMARK  7 active torsions:
REMARK  status: ('A' for Active; 'I' for Inactive)
REMARK    1  A    between atoms: O_2  and  C_3 
REMARK    2  A    between atoms: C_4  and  O_5 
REMARK    3  A    between atoms: C_7  and  C_8 
REMARK    4  A    between atoms: N_9  and  N_10 
REMARK    5  A    between atoms: C_21  and  C_22 
REMARK       I    between atoms: C_22  and  N_23 
REMARK    6  A    between atoms: N_23  and  C_24 
REMARK    7  A    between atoms: C_31  and  N_32 
ROOT
HETATM    1  N   UNL     1      24.817  46.934  50.488  1.00  0.00    -0.197 N 
HETATM    2  C   UNL     1      25.584  46.601  51.595  1.00  0.00     0.183 A 
HETATM    3  C   UNL     1      25.561  45.218  51.716  1.00  0.00     0.125 A 
HETATM    4  N   UNL     1      26.109  44.583  52.786  1.00  0.00    -0.242 NA
HETATM    5  C   UNL     1      26.727  45.394  53.656  1.00  0.00     0.086 A 
HETATM    6  C   UNL     1      26.771  46.806  53.499  1.00  0.00     0.088 A 
HETATM    7  N   UNL     1      26.177  47.446  52.474  1.00  0.00    -0.225 NA
HETATM    8  C   UNL     1      27.354  44.817  54.753  1.00  0.00     0.034 A 
HETATM    9  C   UNL     1      28.038  45.588  55.693  1.00  0.00     0.002 A 
HETATM   10  C   UNL     1      28.096  46.965  55.535  1.00  0.00     0.002 A 
HETATM   11  C   UNL     1      27.460  47.560  54.442  1.00  0.00     0.034 A 
HETATM   12  C   UNL     1      24.855  44.679  50.616  1.00  0.00     0.110 C 
HETATM   13  C   UNL     1      24.557  45.746  49.779  1.00  0.00     0.143 C 
ENDROOT
BRANCH   1  14
HETATM   14  N   UNL     1      24.049  48.074  50.409  1.00  0.00    -0.176 NA
HETATM   15  C   UNL     1      23.893  48.541  49.214  1.00  0.00     0.153 C 
BRANCH  15  16
HETATM   16  C   UNL     1      22.643  49.228  48.828  1.00  0.00     0.019 A 
HETATM   17  C   UNL     1      21.456  48.501  48.704  1.00  0.00     0.113 A 
HETATM   18  C   UNL     1      20.228  49.180  48.707  1.00  0.00     0.102 A 
HETATM   19  C   UNL     1      20.203  50.577  48.709  1.00  0.00     0.040 A 
HETATM   20  C   UNL     1      21.392  51.302  48.765  1.00  0.00     0.004 A 
HETATM   21  C   UNL     1      22.611  50.630  48.840  1.00  0.00     0.016 A 
BRANCH  17  22
HETATM   22  O   UNL     1      21.498  47.132  48.622  1.00  0.00    -0.352 OA
HETATM   23  C   UNL     1      21.185  46.737  47.282  1.00  0.00     0.210 C 
ENDBRANCH  17  22
BRANCH  18  24
HETATM   24  O   UNL     1      19.004  48.562  48.683  1.00  0.00    -0.353 OA
HETATM   25  C   UNL     1      18.462  48.347  49.988  1.00  0.00     0.210 C 
ENDBRANCH  18  24
ENDBRANCH  15  16
ENDBRANCH   1  14
BRANCH  13  26
HETATM   26  N   UNL     1      23.921  45.695  48.573  1.00  0.00    -0.383 N 
HETATM   27  H   UNL     1      22.932  45.903  48.479  1.00  0.00     0.157 HD
HETATM   28  H   UNL     1      24.448  46.041  47.763  1.00  0.00     0.157 HD
ENDBRANCH  13  26
BRANCH  12  29
HETATM   29  C   UNL     1      24.425  43.308  50.383  1.00  0.00     0.258 C 
HETATM   30  N   UNL     1      25.258  42.584  49.554  1.00  0.00    -0.352 N 
HETATM   31  H   UNL     1      26.054  43.086  49.168  1.00  0.00     0.163 HD
HETATM   32  O   UNL     1      23.463  42.810  50.962  1.00  0.00    -0.267 OA
BRANCH  30  33
HETATM   33  C   UNL     1      25.353  41.136  49.674  1.00  0.00     0.084 C 
HETATM   34  C   UNL     1      25.739  40.503  48.335  1.00  0.00     0.025 C 
HETATM   35  C   UNL     1      27.192  40.772  47.946  1.00  0.00     0.002 C 
HETATM   36  C   UNL     1      28.160  40.373  49.056  1.00  0.00     0.000 C 
HETATM   37  C   UNL     1      27.802  41.033  50.383  1.00  0.00     0.002 C 
HETATM   38  C   UNL     1      26.353  40.751  50.779  1.00  0.00     0.025 C 
ENDBRANCH  30  33
ENDBRANCH  12  29
TORSDOF 7
ENDMDL
MODEL 7
REMARK VINA RESULT:      -9.2      3.100      9.244
REMARK  7 active torsions:
REMARK  status: ('A' for Active; 'I' for Inactive)
REMARK    1  A    between atoms: O_2  and  C_3 
REMARK    2  A    between atoms: C_4  and  O_5 
REMARK    3  A    between atoms: C_7  and  C_8 
REMARK    4  A    between atoms: N_9  and  N_10 
REMARK    5  A    between atoms: C_21  and  C_22 
REMARK       I    between atoms: C_22  and  N_23 
REMARK    6  A    between atoms: N_23  and  C_24 
REMARK    7  A    between atoms: C_31  and  N_32 
ROOT
HETATM    1  N   UNL     1      24.885  45.447  50.190  1.00  0.00    -0.197 N 
HETATM    2  C   UNL     1      24.024  44.950  49.222  1.00  0.00     0.183 A 
HETATM    3  C   UNL     1      23.258  46.013  48.762  1.00  0.00     0.125 A 
HETATM    4  N   UNL     1      22.222  45.830  47.901  1.00  0.00    -0.242 NA
HETATM    5  C   UNL     1      22.060  44.565  47.488  1.00  0.00     0.086 A 
HETATM    6  C   UNL     1      22.876  43.494  47.943  1.00  0.00     0.088 A 
HETATM    7  N   UNL     1      23.863  43.658  48.843  1.00  0.00    -0.225 NA
HETATM    8  C   UNL     1      21.052  44.303  46.570  1.00  0.00     0.034 A 
HETATM    9  C   UNL     1      20.831  43.018  46.073  1.00  0.00     0.002 A 
HETATM   10  C   UNL     1      21.634  41.973  46.503  1.00  0.00     0.002 A 
HETATM   11  C   UNL     1      22.646  42.220  47.436  1.00  0.00     0.034 A 
HETATM   12  C   UNL     1      23.715  47.200  49.378  1.00  0.00     0.110 C 
HETATM   13  C   UNL     1      24.835  46.852  50.121  1.00  0.00     0.143 C 
ENDROOT
BRANCH   1  14
HETATM   14  N   UNL     1      25.274  44.733  51.302  1.00  0.00    -0.176 NA
HETATM   15  C   UNL     1      26.547  44.535  51.401  1.00  0.00     0.153 C 
BRANCH  15  16
HETATM   16  C   UNL     1      27.201  44.467  52.724  1.00  0.00     0.019 A 
HETATM   17  C   UNL     1      28.299  43.624  52.918  1.00  0.00     0.113 A 
HETATM   18  C   UNL     1      29.135  43.825  54.026  1.00  0.00     0.102 A 
HETATM   19  C   UNL     1      28.800  44.780  54.989  1.00  0.00     0.040 A 
HETATM   20  C   UNL     1      27.667  45.576  54.827  1.00  0.00     0.004 A 
HETATM   21  C   UNL     1      26.875  45.431  53.689  1.00  0.00     0.016 A 
BRANCH  17  22
HETATM   22  O   UNL     1      28.573  42.637  52.005  1.00  0.00    -0.352 OA
HETATM   23  C   UNL     1      27.974  41.414  52.450  1.00  0.00     0.210 C 
ENDBRANCH  17  22
BRANCH  18  24
HETATM   24  O   UNL     1      30.287  43.120  54.263  1.00  0.00    -0.353 OA
HETATM   25  C   UNL     1      30.801  43.317  55.581  1.00  0.00     0.210 C 
ENDBRANCH  18  24
ENDBRANCH  15  16
ENDBRANCH   1  14
BRANCH  13  26
HETATM   26  N   UNL     1      25.633  47.685  50.851  1.00  0.00    -0.383 N 
HETATM   27  H   UNL     1      26.003  47.415  51.756  1.00  0.00     0.157 HD
HETATM   28  H   UNL     1      26.317  48.240  50.324  1.00  0.00     0.157 HD
ENDBRANCH  13  26
BRANCH  12  29
HETATM   29  C   UNL     1      23.134  48.534  49.346  1.00  0.00     0.258 C 
HETATM   30  N   UNL     1      21.779  48.558  49.088  1.00  0.00    -0.352 N 
HETATM   31  H   UNL     1      21.339  47.658  48.913  1.00  0.00     0.163 HD
HETATM   32  O   UNL     1      23.777  49.542  49.632  1.00  0.00    -0.267 OA
BRANCH  30  33
HETATM   33  C   UNL     1      20.945  49.643  49.585  1.00  0.00     0.084 C 
HETATM   34  C   UNL     1      20.899  50.799  48.583  1.00  0.00     0.025 C 
HETATM   35  C   UNL     1      20.085  50.471  47.333  1.00  0.00     0.002 C 
HETATM   36  C   UNL     1      18.685  49.975  47.681  1.00  0.00     0.000 C 
HETATM   37  C   UNL     1      18.727  48.797  48.649  1.00  0.00     0.002 C 
HETATM   38  C   UNL     1      19.529  49.131  49.907  1.00  0.00     0.025 C 
ENDBRANCH  30  33
ENDBRANCH  12  29
TORSDOF 7
ENDMDL
MODEL 8
REMARK VINA RESULT:      -9.1      2.884      8.935
REMARK  7 active torsions:
REMARK  status: ('A' for Active; 'I' for Inactive)
REMARK    1  A    between atoms: O_2  and  C_3 
REMARK    2  A    between atoms: C_4  and  O_5 
REMARK    3  A    between atoms: C_7  and  C_8 
REMARK    4  A    between atoms: N_9  and  N_10 
REMARK    5  A    between atoms: C_21  and  C_22 
REMARK       I    between atoms: C_22  and  N_23 
REMARK    6  A    between atoms: N_23  and  C_24 
REMARK    7  A    between atoms: C_31  and  N_32 
ROOT
HETATM    1  N   UNL     1      25.527  44.510  51.011  1.00  0.00    -0.197 N 
HETATM    2  C   UNL     1      24.674  45.371  50.336  1.00  0.00     0.183 A 
HETATM    3  C   UNL     1      24.007  44.626  49.373  1.00  0.00     0.125 A 
HETATM    4  N   UNL     1      23.196  45.208  48.451  1.00  0.00    -0.242 NA
HETATM    5  C   UNL     1      23.044  46.531  48.601  1.00  0.00     0.086 A 
HETATM    6  C   UNL     1      23.708  47.275  49.614  1.00  0.00     0.088 A 
HETATM    7  N   UNL     1      24.561  46.714  50.492  1.00  0.00    -0.225 NA
HETATM    8  C   UNL     1      22.193  47.193  47.727  1.00  0.00     0.034 A 
HETATM    9  C   UNL     1      21.962  48.566  47.828  1.00  0.00     0.002 A 
HETATM   10  C   UNL     1      22.597  49.292  48.825  1.00  0.00     0.002 A 
HETATM   11  C   UNL     1      23.465  48.641  49.706  1.00  0.00     0.034 A 
HETATM   12  C   UNL     1      24.374  43.268  49.518  1.00  0.00     0.110 C 
HETATM   13  C   UNL     1      25.178  43.196  50.648  1.00  0.00     0.143 C 
ENDROOT
BRANCH   1  14
HETATM   14  N   UNL     1      26.760  44.885  51.496  1.00  0.00    -0.176 NA
HETATM   15  C   UNL     1      26.948  44.638  52.750  1.00  0.00     0.153 C 
BRANCH  15  16
HETATM   16  C   UNL     1      28.291  44.292  53.260  1.00  0.00     0.019 A 
HETATM   17  C   UNL     1      28.679  44.700  54.539  1.00  0.00     0.113 A 
HETATM   18  C   UNL     1      29.771  44.077  55.160  1.00  0.00     0.102 A 
HETATM   19  C   UNL     1      30.536  43.144  54.455  1.00  0.00     0.040 A 
HETATM   20  C   UNL     1      30.187  42.787  53.154  1.00  0.00     0.004 A 
HETATM   21  C   UNL     1      29.057  43.349  52.561  1.00  0.00     0.016 A 
BRANCH  17  22
HETATM   22  O   UNL     1      27.967  45.675  55.192  1.00  0.00    -0.352 OA
HETATM   23  C   UNL     1      28.617  46.936  54.995  1.00  0.00     0.210 C 
ENDBRANCH  17  22
BRANCH  18  24
HETATM   24  O   UNL     1      30.180  44.333  56.444  1.00  0.00    -0.353 OA
HETATM   25  C   UNL     1      31.346  43.595  56.816  1.00  0.00     0.210 C 
ENDBRANCH  18  24
ENDBRANCH  15  16
ENDBRANCH   1  14
BRANCH  13  26
HETATM   26  N   UNL     1      25.729  42.075  51.198  1.00  0.00    -0.383 N 
HETATM   27  H   UNL     1      26.129  42.077  52.131  1.00  0.00     0.157 HD
HETATM   28  H   UNL     1      25.250  41.188  51.005  1.00  0.00     0.157 HD
ENDBRANCH  13  26
BRANCH  12  29
HETATM   29  C   UNL     1      24.074  42.138  48.652  1.00  0.00     0.258 C 
HETATM   30  N   UNL     1      25.085  41.810  47.773  1.00  0.00    -0.352 N 
HETATM   31  H   UNL     1      25.910  42.406  47.794  1.00  0.00     0.163 HD
HETATM   32  O   UNL     1      23.050  41.469  48.771  1.00  0.00    -0.267 OA
BRANCH  30  33
HETATM   33  C   UNL     1      25.238  40.446  47.287  1.00  0.00     0.084 C 
HETATM   34  C   UNL     1      25.841  40.432  45.881  1.00  0.00     0.025 C 
HETATM   35  C   UNL     1      27.317  40.823  45.862  1.00  0.00     0.002 C 
HETATM   36  C   UNL     1      28.140  39.982  46.833  1.00  0.00     0.000 C 
HETATM   37  C   UNL     1      27.566  40.024  48.244  1.00  0.00     0.002 C 
HETATM   38  C   UNL     1      26.092  39.619  48.265  1.00  0.00     0.025 C 
ENDBRANCH  30  33
ENDBRANCH  12  29
TORSDOF 7
ENDMDL
MODEL 9
REMARK VINA RESULT:      -8.9      2.650      6.299
REMARK  7 active torsions:
REMARK  status: ('A' for Active; 'I' for Inactive)
REMARK    1  A    between atoms: O_2  and  C_3 
REMARK    2  A    between atoms: C_4  and  O_5 
REMARK    3  A    between atoms: C_7  and  C_8 
REMARK    4  A    between atoms: N_9  and  N_10 
REMARK    5  A    between atoms: C_21  and  C_22 
REMARK       I    between atoms: C_22  and  N_23 
REMARK    6  A    between atoms: N_23  and  C_24 
REMARK    7  A    between atoms: C_31  and  N_32 
ROOT
HETATM    1  N   UNL     1      25.270  44.563  49.940  1.00  0.00    -0.197 N 
HETATM    2  C   UNL     1      26.205  44.139  50.874  1.00  0.00     0.183 A 
HETATM    3  C   UNL     1      26.471  42.801  50.619  1.00  0.00     0.125 A 
HETATM    4  N   UNL     1      27.248  42.054  51.447  1.00  0.00    -0.242 NA
HETATM    5  C   UNL     1      27.783  42.735  52.471  1.00  0.00     0.086 A 
HETATM    6  C   UNL     1      27.527  44.114  52.698  1.00  0.00     0.088 A 
HETATM    7  N   UNL     1      26.708  44.844  51.918  1.00  0.00    -0.225 NA
HETATM    8  C   UNL     1      28.628  42.053  53.336  1.00  0.00     0.034 A 
HETATM    9  C   UNL     1      29.243  42.693  54.413  1.00  0.00     0.002 A 
HETATM   10  C   UNL     1      29.007  44.043  54.630  1.00  0.00     0.002 A 
HETATM   11  C   UNL     1      28.149  44.739  53.773  1.00  0.00     0.034 A 
HETATM   12  C   UNL     1      25.772  42.415  49.452  1.00  0.00     0.110 C 
HETATM   13  C   UNL     1      25.178  43.565  48.951  1.00  0.00     0.143 C 
ENDROOT
BRANCH   1  14
HETATM   14  N   UNL     1      24.286  45.486  50.213  1.00  0.00    -0.176 NA
HETATM   15  C   UNL     1      24.348  46.569  49.510  1.00  0.00     0.153 C 
BRANCH  15  16
HETATM   16  C   UNL     1      23.120  47.293  49.125  1.00  0.00     0.019 A 
HETATM   17  C   UNL     1      23.142  48.683  48.986  1.00  0.00     0.113 A 
HETATM   18  C   UNL     1      22.114  49.322  48.277  1.00  0.00     0.102 A 
HETATM   19  C   UNL     1      21.017  48.586  47.824  1.00  0.00     0.040 A 
HETATM   20  C   UNL     1      20.964  47.207  48.022  1.00  0.00     0.004 A 
HETATM   21  C   UNL     1      22.020  46.558  48.659  1.00  0.00     0.016 A 
BRANCH  17  22
HETATM   22  O   UNL     1      24.187  49.406  49.505  1.00  0.00    -0.352 OA
HETATM   23  C   UNL     1      25.073  49.771  48.443  1.00  0.00     0.210 C 
ENDBRANCH  17  22
BRANCH  18  24
HETATM   24  O   UNL     1      22.084  50.665  48.002  1.00  0.00    -0.353 OA
HETATM   25  C   UNL     1      20.926  51.317  48.527  1.00  0.00     0.210 C 
ENDBRANCH  18  24
ENDBRANCH  15  16
ENDBRANCH   1  14
BRANCH  13  26
HETATM   26  N   UNL     1      24.436  43.682  47.811  1.00  0.00    -0.383 N 
HETATM   27  H   UNL     1      23.423  43.633  47.823  1.00  0.00     0.157 HD
HETATM   28  H   UNL     1      24.764  44.367  47.121  1.00  0.00     0.157 HD
ENDBRANCH  13  26
BRANCH  12  29
HETATM   29  C   UNL     1      25.602  41.088  48.880  1.00  0.00     0.258 C 
HETATM   30  N   UNL     1      26.747  40.318  48.880  1.00  0.00    -0.352 N 
HETATM   31  H   UNL     1      27.587  40.762  49.241  1.00  0.00     0.163 HD
HETATM   32  O   UNL     1      24.507  40.656  48.528  1.00  0.00    -0.267 OA
BRANCH  30  33
HETATM   33  C   UNL     1      26.667  38.864  48.925  1.00  0.00     0.084 C 
HETATM   34  C   UNL     1      26.624  38.276  47.513  1.00  0.00     0.025 C 
HETATM   35  C   UNL     1      27.960  38.386  46.781  1.00  0.00     0.002 C 
HETATM   36  C   UNL     1      29.106  37.797  47.599  1.00  0.00     0.000 C 
HETATM   37  C   UNL     1      29.177  38.408  48.994  1.00  0.00     0.002 C 
HETATM   38  C   UNL     1      27.844  38.285  49.732  1.00  0.00     0.025 C 
ENDBRANCH  30  33
ENDBRANCH  12  29
TORSDOF 7
ENDMDL
MODEL 10
REMARK VINA RESULT:      -8.8      3.677      9.038
REMARK  7 active torsions:
REMARK  status: ('A' for Active; 'I' for Inactive)
REMARK    1  A    between atoms: O_2  and  C_3 
REMARK    2  A    between atoms: C_4  and  O_5 
REMARK    3  A    between atoms: C_7  and  C_8 
REMARK    4  A    between atoms: N_9  and  N_10 
REMARK    5  A    between atoms: C_21  and  C_22 
REMARK       I    between atoms: C_22  and  N_23 
REMARK    6  A    between atoms: N_23  and  C_24 
REMARK    7  A    between atoms: C_31  and  N_32 
ROOT
HETATM    1  N   UNL     1      25.842  43.621  49.715  1.00  0.00    -0.197 N 
HETATM    2  C   UNL     1      25.938  44.428  50.839  1.00  0.00     0.183 A 
HETATM    3  C   UNL     1      24.986  45.430  50.714  1.00  0.00     0.125 A 
HETATM    4  N   UNL     1      24.915  46.465  51.593  1.00  0.00    -0.242 NA
HETATM    5  C   UNL     1      25.784  46.390  52.611  1.00  0.00     0.086 A 
HETATM    6  C   UNL     1      26.731  45.337  52.742  1.00  0.00     0.088 A 
HETATM    7  N   UNL     1      26.847  44.343  51.842  1.00  0.00    -0.225 NA
HETATM    8  C   UNL     1      25.744  47.385  53.577  1.00  0.00     0.034 A 
HETATM    9  C   UNL     1      26.598  47.369  54.681  1.00  0.00     0.002 A 
HETATM   10  C   UNL     1      27.513  46.336  54.820  1.00  0.00     0.002 A 
HETATM   11  C   UNL     1      27.572  45.333  53.849  1.00  0.00     0.034 A 
HETATM   12  C   UNL     1      24.222  45.187  49.550  1.00  0.00     0.110 C 
HETATM   13  C   UNL     1      24.654  43.968  49.044  1.00  0.00     0.143 C 
ENDROOT
BRANCH   1  14
HETATM   14  N   UNL     1      26.924  43.011  49.120  1.00  0.00    -0.176 NA
HETATM   15  C   UNL     1      27.008  41.738  49.323  1.00  0.00     0.153 C 
BRANCH  15  16
HETATM   16  C   UNL     1      27.578  40.844  48.294  1.00  0.00     0.019 A 
HETATM   17  C   UNL     1      27.759  39.486  48.571  1.00  0.00     0.113 A 
HETATM   18  C   UNL     1      27.940  38.584  47.512  1.00  0.00     0.102 A 
HETATM   19  C   UNL     1      28.061  39.060  46.204  1.00  0.00     0.040 A 
HETATM   20  C   UNL     1      27.947  40.423  45.937  1.00  0.00     0.004 A 
HETATM   21  C   UNL     1      27.691  41.314  46.978  1.00  0.00     0.016 A 
BRANCH  17  22
HETATM   22  O   UNL     1      27.718  39.041  49.869  1.00  0.00    -0.352 OA
HETATM   23  C   UNL     1      29.058  38.860  50.341  1.00  0.00     0.210 C 
ENDBRANCH  17  22
BRANCH  18  24
HETATM   24  O   UNL     1      28.035  37.225  47.662  1.00  0.00    -0.353 OA
HETATM   25  C   UNL     1      27.957  36.519  46.423  1.00  0.00     0.210 C 
ENDBRANCH  18  24
ENDBRANCH  15  16
ENDBRANCH   1  14
BRANCH  13  26
HETATM   26  N   UNL     1      24.169  43.310  47.951  1.00  0.00    -0.383 N 
HETATM   27  H   UNL     1      24.705  42.591  47.477  1.00  0.00     0.157 HD
HETATM   28  H   UNL     1      23.170  43.075  47.965  1.00  0.00     0.157 HD
ENDBRANCH  13  26
BRANCH  12  29
HETATM   29  C   UNL     1      23.226  46.034  48.910  1.00  0.00     0.258 C 
HETATM   30  N   UNL     1      23.475  47.386  49.022  1.00  0.00    -0.352 N 
HETATM   31  H   UNL     1      24.295  47.649  49.562  1.00  0.00     0.163 HD
HETATM   32  O   UNL     1      22.305  45.577  48.238  1.00  0.00    -0.267 OA
BRANCH  30  33
HETATM   33  C   UNL     1      22.991  48.318  48.013  1.00  0.00     0.084 C 
HETATM   34  C   UNL     1      21.503  48.613  48.212  1.00  0.00     0.025 C 
HETATM   35  C   UNL     1      21.226  49.478  49.440  1.00  0.00     0.002 C 
HETATM   36  C   UNL     1      22.054  50.759  49.431  1.00  0.00     0.000 C 
HETATM   37  C   UNL     1      23.542  50.469  49.273  1.00  0.00     0.002 C 
HETATM   38  C   UNL     1      23.821  49.615  48.035  1.00  0.00     0.025 C 
ENDBRANCH  30  33
ENDBRANCH  12  29
TORSDOF 7
ENDMDL
