MODEL 1
REMARK VINA RESULT:      -8.7      0.000      0.000
REMARK  6 active torsions:
REMARK  status: ('A' for Active; 'I' for Inactive)
REMARK    1  A    between atoms: C_9  and  C_10 
REMARK    2  A    between atoms: C_10  and  S_11 
REMARK    3  A    between atoms: S_11  and  C_12 
REMARK    4  A    between atoms: C_12  and  C_13 
REMARK       I    between atoms: C_13  and  N_14 
REMARK    5  A    between atoms: N_14  and  N_15 
REMARK       I    between atoms: N_15  and  C_16 
REMARK    6  A    between atoms: C_16  and  C_17 
ROOT
HETATM    1  C   UNL     1      24.923  46.081  49.821  1.00  0.00     0.245 C 
HETATM    2  N   UNL     1      24.817  47.449  49.962  1.00  0.00    -0.267 N 
HETATM    3  O   UNL     1      23.967  45.379  49.486  1.00  0.00    -0.271 OA
HETATM    4  H   UNL     1      25.534  47.966  50.478  1.00  0.00     0.190 HD
ENDROOT
BRANCH   1   5
HETATM    5  C   UNL     1      26.325  45.516  49.977  1.00  0.00     0.178 C 
BRANCH   5   6
HETATM    6  S   UNL     1      26.398  44.174  51.205  1.00  0.00    -0.154 SA
BRANCH   6   7
HETATM    7  C   UNL     1      26.193  45.179  52.713  1.00  0.00     0.135 C 
BRANCH   7   8
HETATM    8  C   UNL     1      27.351  44.989  53.629  1.00  0.00     0.062 A 
HETATM    9  C   UNL     1      28.218  43.917  53.727  1.00  0.00     0.126 A 
HETATM   10  N   UNL     1      29.074  44.222  54.754  1.00  0.00    -0.315 N 
HETATM   11  C   UNL     1      30.119  43.473  55.288  1.00  0.00     0.105 A 
HETATM   12  C   UNL     1      28.709  45.479  55.220  1.00  0.00     0.134 A 
HETATM   13  C   UNL     1      30.834  43.971  56.317  1.00  0.00    -0.046 A 
HETATM   14  C   UNL     1      31.967  43.246  56.971  1.00  0.00     0.049 C 
HETATM   15  C   UNL     1      30.476  45.295  56.828  1.00  0.00     0.012 A 
HETATM   16  C   UNL     1      29.463  46.011  56.302  1.00  0.00     0.051 A 
HETATM   17  N   UNL     1      27.683  45.961  54.550  1.00  0.00    -0.233 NA
ENDBRANCH   7   8
ENDBRANCH   6   7
ENDBRANCH   5   6
ENDBRANCH   1   5
BRANCH   2  18
HETATM   18  N   UNL     1      23.540  48.020  49.921  1.00  0.00    -0.262 N 
HETATM   19  C   UNL     1      23.342  49.168  49.185  1.00  0.00     0.286 C 
HETATM   20  O   UNL     1      24.251  49.704  48.553  1.00  0.00    -0.264 OA
HETATM   21  H   UNL     1      22.831  47.600  50.515  1.00  0.00     0.190 HD
BRANCH  19  22
HETATM   22  C   UNL     1      21.995  49.697  49.198  1.00  0.00     0.103 A 
HETATM   23  N   UNL     1      20.955  48.989  49.771  1.00  0.00    -0.360 N 
HETATM   24  H   UNL     1      21.070  48.078  50.202  1.00  0.00     0.165 HD
HETATM   25  C   UNL     1      19.787  49.696  49.678  1.00  0.00     0.107 A 
HETATM   26  C   UNL     1      20.079  50.869  49.034  1.00  0.00     0.028 A 
HETATM   27 BR   UNL     1      18.888  52.252  48.618  1.00  0.00    -0.050 Br
HETATM   28  C   UNL     1      21.454  50.884  48.724  1.00  0.00     0.055 A 
ENDBRANCH  19  22
ENDBRANCH   2  18
TORSDOF 6
ENDMDL
MODEL 2
REMARK VINA RESULT:      -8.6      1.491      2.064
REMARK  6 active torsions:
REMARK  status: ('A' for Active; 'I' for Inactive)
REMARK    1  A    between atoms: C_9  and  C_10 
REMARK    2  A    between atoms: C_10  and  S_11 
REMARK    3  A    between atoms: S_11  and  C_12 
REMARK    4  A    between atoms: C_12  and  C_13 
REMARK       I    between atoms: C_13  and  N_14 
REMARK    5  A    between atoms: N_14  and  N_15 
REMARK       I    between atoms: N_15  and  C_16 
REMARK    6  A    between atoms: C_16  and  C_17 
ROOT
HETATM    1  C   UNL     1      25.205  46.914  50.078  1.00  0.00     0.245 C 
HETATM    2  N   UNL     1      23.979  46.809  49.455  1.00  0.00    -0.267 N 
HETATM    3  O   UNL     1      25.432  47.763  50.943  1.00  0.00    -0.271 OA
HETATM    4  H   UNL     1      23.893  46.284  48.581  1.00  0.00     0.190 HD
ENDROOT
BRANCH   1   5
HETATM    5  C   UNL     1      26.212  45.834  49.721  1.00  0.00     0.178 C 
BRANCH   5   6
HETATM    6  S   UNL     1      25.526  44.158  49.910  1.00  0.00    -0.154 SA
BRANCH   6   7
HETATM    7  C   UNL     1      25.190  44.207  51.702  1.00  0.00     0.135 C 
BRANCH   7   8
HETATM    8  C   UNL     1      26.441  43.977  52.475  1.00  0.00     0.062 A 
HETATM    9  C   UNL     1      26.786  44.438  53.732  1.00  0.00     0.126 A 
HETATM   10  N   UNL     1      28.059  43.979  53.961  1.00  0.00    -0.315 N 
HETATM   11  C   UNL     1      28.889  44.182  55.060  1.00  0.00     0.105 A 
HETATM   12  C   UNL     1      28.423  43.235  52.846  1.00  0.00     0.134 A 
HETATM   13  C   UNL     1      30.121  43.638  55.070  1.00  0.00    -0.046 A 
HETATM   14  C   UNL     1      31.095  43.801  56.193  1.00  0.00     0.049 C 
HETATM   15  C   UNL     1      30.534  42.843  53.911  1.00  0.00     0.012 A 
HETATM   16  C   UNL     1      29.721  42.653  52.853  1.00  0.00     0.051 A 
HETATM   17  N   UNL     1      27.460  43.212  51.948  1.00  0.00    -0.233 NA
ENDBRANCH   7   8
ENDBRANCH   6   7
ENDBRANCH   5   6
ENDBRANCH   1   5
BRANCH   2  18
HETATM   18  N   UNL     1      23.040  47.824  49.670  1.00  0.00    -0.262 N 
HETATM   19  C   UNL     1      22.494  48.475  48.585  1.00  0.00     0.286 C 
HETATM   20  O   UNL     1      22.801  48.187  47.429  1.00  0.00    -0.264 OA
HETATM   21  H   UNL     1      22.868  48.092  50.636  1.00  0.00     0.190 HD
BRANCH  19  22
HETATM   22  C   UNL     1      21.535  49.513  48.894  1.00  0.00     0.103 A 
HETATM   23  N   UNL     1      21.303  49.907  50.198  1.00  0.00    -0.360 N 
HETATM   24  H   UNL     1      21.776  49.500  50.997  1.00  0.00     0.165 HD
HETATM   25  C   UNL     1      20.373  50.911  50.237  1.00  0.00     0.107 A 
HETATM   26  C   UNL     1      20.000  51.161  48.943  1.00  0.00     0.028 A 
HETATM   27 BR   UNL     1      18.760  52.433  48.355  1.00  0.00    -0.050 Br
HETATM   28  C   UNL     1      20.714  50.294  48.092  1.00  0.00     0.055 A 
ENDBRANCH  19  22
ENDBRANCH   2  18
TORSDOF 6
ENDMDL
MODEL 3
REMARK VINA RESULT:      -8.4      1.501      2.169
REMARK  6 active torsions:
REMARK  status: ('A' for Active; 'I' for Inactive)
REMARK    1  A    between atoms: C_9  and  C_10 
REMARK    2  A    between atoms: C_10  and  S_11 
REMARK    3  A    between atoms: S_11  and  C_12 
REMARK    4  A    between atoms: C_12  and  C_13 
REMARK       I    between atoms: C_13  and  N_14 
REMARK    5  A    between atoms: N_14  and  N_15 
REMARK       I    between atoms: N_15  and  C_16 
REMARK    6  A    between atoms: C_16  and  C_17 
ROOT
HETATM    1  C   UNL     1      24.445  44.233  50.843  1.00  0.00     0.245 C 
HETATM    2  N   UNL     1      24.733  45.358  50.098  1.00  0.00    -0.267 N 
HETATM    3  O   UNL     1      23.289  43.858  51.046  1.00  0.00    -0.271 OA
HETATM    4  H   UNL     1      25.661  45.785  50.157  1.00  0.00     0.190 HD
ENDROOT
BRANCH   1   5
HETATM    5  C   UNL     1      25.649  43.416  51.282  1.00  0.00     0.178 C 
BRANCH   5   6
HETATM    6  S   UNL     1      27.218  44.305  51.030  1.00  0.00    -0.154 SA
BRANCH   6   7
HETATM    7  C   UNL     1      28.348  43.061  51.739  1.00  0.00     0.135 C 
BRANCH   7   8
HETATM    8  C   UNL     1      28.851  43.508  53.067  1.00  0.00     0.062 A 
HETATM    9  C   UNL     1      28.446  44.583  53.835  1.00  0.00     0.126 A 
HETATM   10  N   UNL     1      29.256  44.577  54.942  1.00  0.00    -0.315 N 
HETATM   11  C   UNL     1      29.293  45.460  56.017  1.00  0.00     0.105 A 
HETATM   12  C   UNL     1      30.101  43.482  54.814  1.00  0.00     0.134 A 
HETATM   13  C   UNL     1      30.189  45.266  57.005  1.00  0.00    -0.046 A 
HETATM   14  C   UNL     1      30.321  46.159  58.198  1.00  0.00     0.049 C 
HETATM   15  C   UNL     1      31.092  44.118  56.901  1.00  0.00     0.012 A 
HETATM   16  C   UNL     1      31.046  43.270  55.855  1.00  0.00     0.051 A 
HETATM   17  N   UNL     1      29.866  42.820  53.700  1.00  0.00    -0.233 NA
ENDBRANCH   7   8
ENDBRANCH   6   7
ENDBRANCH   5   6
ENDBRANCH   1   5
BRANCH   2  18
HETATM   18  N   UNL     1      23.676  46.202  49.741  1.00  0.00    -0.262 N 
HETATM   19  C   UNL     1      23.845  47.566  49.836  1.00  0.00     0.286 C 
HETATM   20  O   UNL     1      24.901  48.069  50.219  1.00  0.00    -0.264 OA
HETATM   21  H   UNL     1      22.793  45.756  49.506  1.00  0.00     0.190 HD
BRANCH  19  22
HETATM   22  C   UNL     1      22.704  48.367  49.452  1.00  0.00     0.103 A 
HETATM   23  N   UNL     1      21.462  47.793  49.253  1.00  0.00    -0.360 N 
HETATM   24  H   UNL     1      21.282  46.801  49.357  1.00  0.00     0.165 HD
HETATM   25  C   UNL     1      20.542  48.749  48.916  1.00  0.00     0.107 A 
HETATM   26  C   UNL     1      21.201  49.949  48.894  1.00  0.00     0.028 A 
HETATM   27 BR   UNL     1      20.470  51.628  48.504  1.00  0.00    -0.050 Br
HETATM   28  C   UNL     1      22.553  49.729  49.223  1.00  0.00     0.055 A 
ENDBRANCH  19  22
ENDBRANCH   2  18
TORSDOF 6
ENDMDL
MODEL 4
REMARK VINA RESULT:      -7.9      5.267      7.772
REMARK  6 active torsions:
REMARK  status: ('A' for Active; 'I' for Inactive)
REMARK    1  A    between atoms: C_9  and  C_10 
REMARK    2  A    between atoms: C_10  and  S_11 
REMARK    3  A    between atoms: S_11  and  C_12 
REMARK    4  A    between atoms: C_12  and  C_13 
REMARK       I    between atoms: C_13  and  N_14 
REMARK    5  A    between atoms: N_14  and  N_15 
REMARK       I    between atoms: N_15  and  C_16 
REMARK    6  A    between atoms: C_16  and  C_17 
ROOT
HETATM    1  C   UNL     1      24.895  43.796  49.035  1.00  0.00     0.245 C 
HETATM    2  N   UNL     1      26.247  43.579  49.203  1.00  0.00    -0.267 N 
HETATM    3  O   UNL     1      24.139  42.924  48.603  1.00  0.00    -0.271 OA
HETATM    4  H   UNL     1      26.882  44.375  49.313  1.00  0.00     0.190 HD
ENDROOT
BRANCH   1   5
HETATM    5  C   UNL     1      24.382  45.133  49.542  1.00  0.00     0.178 C 
BRANCH   5   6
HETATM    6  S   UNL     1      25.726  46.216  50.124  1.00  0.00    -0.154 SA
BRANCH   6   7
HETATM    7  C   UNL     1      25.419  46.085  51.916  1.00  0.00     0.135 C 
BRANCH   7   8
HETATM    8  C   UNL     1      26.559  45.409  52.594  1.00  0.00     0.062 A 
HETATM    9  C   UNL     1      27.061  45.612  53.865  1.00  0.00     0.126 A 
HETATM   10  N   UNL     1      28.138  44.769  53.980  1.00  0.00    -0.315 N 
HETATM   11  C   UNL     1      29.018  44.597  55.045  1.00  0.00     0.105 A 
HETATM   12  C   UNL     1      28.228  44.070  52.784  1.00  0.00     0.134 A 
HETATM   13  C   UNL     1      30.025  43.708  54.936  1.00  0.00    -0.046 A 
HETATM   14  C   UNL     1      31.031  43.453  56.013  1.00  0.00     0.049 C 
HETATM   15  C   UNL     1      30.145  42.951  53.688  1.00  0.00     0.012 A 
HETATM   16  C   UNL     1      29.286  43.126  52.665  1.00  0.00     0.051 A 
HETATM   17  N   UNL     1      27.281  44.431  51.942  1.00  0.00    -0.233 NA
ENDBRANCH   7   8
ENDBRANCH   6   7
ENDBRANCH   5   6
ENDBRANCH   1   5
BRANCH   2  18
HETATM   18  N   UNL     1      26.799  42.407  48.674  1.00  0.00    -0.262 N 
HETATM   19  C   UNL     1      27.195  41.405  49.534  1.00  0.00     0.286 C 
HETATM   20  O   UNL     1      27.072  41.505  50.754  1.00  0.00    -0.264 OA
HETATM   21  H   UNL     1      26.960  42.388  47.671  1.00  0.00     0.190 HD
BRANCH  19  22
HETATM   22  C   UNL     1      27.759  40.229  48.908  1.00  0.00     0.103 A 
HETATM   23  N   UNL     1      28.878  39.608  49.431  1.00  0.00    -0.360 N 
HETATM   24  H   UNL     1      29.361  39.934  50.261  1.00  0.00     0.165 HD
HETATM   25  C   UNL     1      29.211  38.512  48.682  1.00  0.00     0.107 A 
HETATM   26  C   UNL     1      28.298  38.431  47.663  1.00  0.00     0.028 A 
HETATM   27 BR   UNL     1      28.230  37.136  46.314  1.00  0.00    -0.050 Br
HETATM   28  C   UNL     1      27.386  39.497  47.789  1.00  0.00     0.055 A 
ENDBRANCH  19  22
ENDBRANCH   2  18
TORSDOF 6
ENDMDL
MODEL 5
REMARK VINA RESULT:      -7.8      2.634      3.791
REMARK  6 active torsions:
REMARK  status: ('A' for Active; 'I' for Inactive)
REMARK    1  A    between atoms: C_9  and  C_10 
REMARK    2  A    between atoms: C_10  and  S_11 
REMARK    3  A    between atoms: S_11  and  C_12 
REMARK    4  A    between atoms: C_12  and  C_13 
REMARK       I    between atoms: C_13  and  N_14 
REMARK    5  A    between atoms: N_14  and  N_15 
REMARK       I    between atoms: N_15  and  C_16 
REMARK    6  A    between atoms: C_16  and  C_17 
ROOT
HETATM    1  C   UNL     1      25.327  42.227  48.474  1.00  0.00     0.245 C 
HETATM    2  N   UNL     1      25.784  43.372  49.095  1.00  0.00    -0.267 N 
HETATM    3  O   UNL     1      24.487  42.260  47.573  1.00  0.00    -0.271 OA
HETATM    4  H   UNL     1      26.274  43.306  49.991  1.00  0.00     0.190 HD
ENDROOT
BRANCH   1   5
HETATM    5  C   UNL     1      26.024  40.941  48.884  1.00  0.00     0.178 C 
BRANCH   5   6
HETATM    6  S   UNL     1      26.170  40.778  50.692  1.00  0.00    -0.154 SA
BRANCH   6   7
HETATM    7  C   UNL     1      27.973  41.014  50.837  1.00  0.00     0.135 C 
BRANCH   7   8
HETATM    8  C   UNL     1      28.289  41.942  51.958  1.00  0.00     0.062 A 
HETATM    9  C   UNL     1      27.605  43.067  52.378  1.00  0.00     0.126 A 
HETATM   10  N   UNL     1      28.337  43.583  53.416  1.00  0.00    -0.315 N 
HETATM   11  C   UNL     1      28.111  44.728  54.176  1.00  0.00     0.105 A 
HETATM   12  C   UNL     1      29.421  42.736  53.602  1.00  0.00     0.134 A 
HETATM   13  C   UNL     1      28.977  45.056  55.155  1.00  0.00    -0.046 A 
HETATM   14  C   UNL     1      28.834  46.266  56.022  1.00  0.00     0.049 C 
HETATM   15  C   UNL     1      30.128  44.179  55.380  1.00  0.00     0.012 A 
HETATM   16  C   UNL     1      30.336  43.074  54.638  1.00  0.00     0.051 A 
HETATM   17  N   UNL     1      29.404  41.737  52.744  1.00  0.00    -0.233 NA
ENDBRANCH   7   8
ENDBRANCH   6   7
ENDBRANCH   5   6
ENDBRANCH   1   5
BRANCH   2  18
HETATM   18  N   UNL     1      25.123  44.576  48.830  1.00  0.00    -0.262 N 
HETATM   19  C   UNL     1      24.555  45.274  49.873  1.00  0.00     0.286 C 
HETATM   20  O   UNL     1      24.617  44.876  51.036  1.00  0.00    -0.264 OA
HETATM   21  H   UNL     1      25.020  44.837  47.853  1.00  0.00     0.190 HD
BRANCH  19  22
HETATM   22  C   UNL     1      23.887  46.506  49.514  1.00  0.00     0.103 A 
HETATM   23  N   UNL     1      22.562  46.512  49.122  1.00  0.00    -0.360 N 
HETATM   24  H   UNL     1      21.993  45.674  49.061  1.00  0.00     0.165 HD
HETATM   25  C   UNL     1      22.148  47.788  48.852  1.00  0.00     0.107 A 
HETATM   26  C   UNL     1      23.222  48.611  49.068  1.00  0.00     0.028 A 
HETATM   27 BR   UNL     1      23.273  50.471  48.870  1.00  0.00    -0.050 Br
HETATM   28  C   UNL     1      24.317  47.825  49.479  1.00  0.00     0.055 A 
ENDBRANCH  19  22
ENDBRANCH   2  18
TORSDOF 6
ENDMDL
MODEL 6
REMARK VINA RESULT:      -7.7      4.141     10.287
REMARK  6 active torsions:
REMARK  status: ('A' for Active; 'I' for Inactive)
REMARK    1  A    between atoms: C_9  and  C_10 
REMARK    2  A    between atoms: C_10  and  S_11 
REMARK    3  A    between atoms: S_11  and  C_12 
REMARK    4  A    between atoms: C_12  and  C_13 
REMARK       I    between atoms: C_13  and  N_14 
REMARK    5  A    between atoms: N_14  and  N_15 
REMARK       I    between atoms: N_15  and  C_16 
REMARK    6  A    between atoms: C_16  and  C_17 
ROOT
HETATM    1  C   UNL     1      24.363  44.146  51.142  1.00  0.00     0.245 C 
HETATM    2  N   UNL     1      25.139  43.149  51.694  1.00  0.00    -0.267 N 
HETATM    3  O   UNL     1      24.560  45.340  51.380  1.00  0.00    -0.271 OA
HETATM    4  H   UNL     1      24.806  42.181  51.689  1.00  0.00     0.190 HD
ENDROOT
BRANCH   1   5
HETATM    5  C   UNL     1      23.337  43.684  50.120  1.00  0.00     0.178 C 
BRANCH   5   6
HETATM    6  S   UNL     1      23.447  44.615  48.559  1.00  0.00    -0.154 SA
BRANCH   6   7
HETATM    7  C   UNL     1      21.678  45.009  48.358  1.00  0.00     0.135 C 
BRANCH   7   8
HETATM    8  C   UNL     1      21.455  46.478  48.460  1.00  0.00     0.062 A 
HETATM    9  C   UNL     1      20.275  47.190  48.346  1.00  0.00     0.126 A 
HETATM   10  N   UNL     1      20.623  48.510  48.475  1.00  0.00    -0.315 N 
HETATM   11  C   UNL     1      19.823  49.648  48.408  1.00  0.00     0.105 A 
HETATM   12  C   UNL     1      21.995  48.544  48.691  1.00  0.00     0.134 A 
HETATM   13  C   UNL     1      20.384  50.864  48.556  1.00  0.00    -0.046 A 
HETATM   14  C   UNL     1      19.620  52.148  48.491  1.00  0.00     0.049 C 
HETATM   15  C   UNL     1      21.828  50.933  48.790  1.00  0.00     0.012 A 
HETATM   16  C   UNL     1      22.592  49.825  48.853  1.00  0.00     0.051 A 
HETATM   17  N   UNL     1      22.511  47.333  48.697  1.00  0.00    -0.233 NA
ENDBRANCH   7   8
ENDBRANCH   6   7
ENDBRANCH   5   6
ENDBRANCH   1   5
BRANCH   2  18
HETATM   18  N   UNL     1      26.039  43.497  52.708  1.00  0.00    -0.262 N 
HETATM   19  C   UNL     1      27.392  43.447  52.450  1.00  0.00     0.286 C 
HETATM   20  O   UNL     1      27.836  43.114  51.352  1.00  0.00    -0.264 OA
HETATM   21  H   UNL     1      25.645  43.690  53.624  1.00  0.00     0.190 HD
BRANCH  19  22
HETATM   22  C   UNL     1      28.254  43.817  53.552  1.00  0.00     0.103 A 
HETATM   23  N   UNL     1      28.084  45.015  54.220  1.00  0.00    -0.360 N 
HETATM   24  H   UNL     1      27.366  45.691  53.983  1.00  0.00     0.165 HD
HETATM   25  C   UNL     1      29.001  45.134  55.230  1.00  0.00     0.107 A 
HETATM   26  C   UNL     1      29.772  44.001  55.206  1.00  0.00     0.028 A 
HETATM   27 BR   UNL     1      31.192  43.582  56.350  1.00  0.00    -0.050 Br
HETATM   28  C   UNL     1      29.320  43.170  54.161  1.00  0.00     0.055 A 
ENDBRANCH  19  22
ENDBRANCH   2  18
TORSDOF 6
ENDMDL
MODEL 7
REMARK VINA RESULT:      -7.6      2.874      3.938
REMARK  6 active torsions:
REMARK  status: ('A' for Active; 'I' for Inactive)
REMARK    1  A    between atoms: C_9  and  C_10 
REMARK    2  A    between atoms: C_10  and  S_11 
REMARK    3  A    between atoms: S_11  and  C_12 
REMARK    4  A    between atoms: C_12  and  C_13 
REMARK       I    between atoms: C_13  and  N_14 
REMARK    5  A    between atoms: N_14  and  N_15 
REMARK       I    between atoms: N_15  and  C_16 
REMARK    6  A    between atoms: C_16  and  C_17 
ROOT
HETATM    1  C   UNL     1      26.182  43.188  50.117  1.00  0.00     0.245 C 
HETATM    2  N   UNL     1      25.203  44.015  50.628  1.00  0.00    -0.267 N 
HETATM    3  O   UNL     1      26.950  43.554  49.224  1.00  0.00    -0.271 OA
HETATM    4  H   UNL     1      24.431  43.617  51.169  1.00  0.00     0.190 HD
ENDROOT
BRANCH   1   5
HETATM    5  C   UNL     1      26.335  41.848  50.817  1.00  0.00     0.178 C 
BRANCH   5   6
HETATM    6  S   UNL     1      28.053  41.526  51.327  1.00  0.00    -0.154 SA
BRANCH   6   7
HETATM    7  C   UNL     1      27.786  41.436  53.128  1.00  0.00     0.135 C 
BRANCH   7   8
HETATM    8  C   UNL     1      27.725  42.802  53.717  1.00  0.00     0.062 A 
HETATM    9  C   UNL     1      26.655  43.675  53.783  1.00  0.00     0.126 A 
HETATM   10  N   UNL     1      27.137  44.811  54.381  1.00  0.00    -0.315 N 
HETATM   11  C   UNL     1      26.486  46.009  54.660  1.00  0.00     0.105 A 
HETATM   12  C   UNL     1      28.473  44.571  54.678  1.00  0.00     0.134 A 
HETATM   13  C   UNL     1      27.165  47.011  55.253  1.00  0.00    -0.046 A 
HETATM   14  C   UNL     1      26.567  48.340  55.588  1.00  0.00     0.049 C 
HETATM   15  C   UNL     1      28.575  46.788  55.584  1.00  0.00     0.012 A 
HETATM   16  C   UNL     1      29.194  45.623  55.309  1.00  0.00     0.051 A 
HETATM   17  N   UNL     1      28.841  43.366  54.298  1.00  0.00    -0.233 NA
ENDBRANCH   7   8
ENDBRANCH   6   7
ENDBRANCH   5   6
ENDBRANCH   1   5
BRANCH   2  18
HETATM   18  N   UNL     1      24.950  45.224  49.971  1.00  0.00    -0.262 N 
HETATM   19  C   UNL     1      25.518  46.382  50.454  1.00  0.00     0.286 C 
HETATM   20  O   UNL     1      26.250  46.388  51.443  1.00  0.00    -0.264 OA
HETATM   21  H   UNL     1      24.279  45.199  49.207  1.00  0.00     0.190 HD
BRANCH  19  22
HETATM   22  C   UNL     1      25.203  47.589  49.721  1.00  0.00     0.103 A 
HETATM   23  N   UNL     1      26.199  48.451  49.301  1.00  0.00    -0.360 N 
HETATM   24  H   UNL     1      27.185  48.295  49.480  1.00  0.00     0.165 HD
HETATM   25  C   UNL     1      25.661  49.506  48.615  1.00  0.00     0.107 A 
HETATM   26  C   UNL     1      24.303  49.322  48.599  1.00  0.00     0.028 A 
HETATM   27 BR   UNL     1      23.026  50.435  47.803  1.00  0.00    -0.050 Br
HETATM   28  C   UNL     1      24.001  48.131  49.288  1.00  0.00     0.055 A 
ENDBRANCH  19  22
ENDBRANCH   2  18
TORSDOF 6
ENDMDL
MODEL 8
REMARK VINA RESULT:      -7.6     12.796     14.535
REMARK  6 active torsions:
REMARK  status: ('A' for Active; 'I' for Inactive)
REMARK    1  A    between atoms: C_9  and  C_10 
REMARK    2  A    between atoms: C_10  and  S_11 
REMARK    3  A    between atoms: S_11  and  C_12 
REMARK    4  A    between atoms: C_12  and  C_13 
REMARK       I    between atoms: C_13  and  N_14 
REMARK    5  A    between atoms: N_14  and  N_15 
REMARK       I    between atoms: N_15  and  C_16 
REMARK    6  A    between atoms: C_16  and  C_17 
ROOT
HETATM    1  C   UNL     1      34.767  52.611  39.357  1.00  0.00     0.245 C 
HETATM    2  N   UNL     1      33.678  53.207  39.959  1.00  0.00    -0.267 N 
HETATM    3  O   UNL     1      34.647  51.679  38.559  1.00  0.00    -0.271 OA
HETATM    4  H   UNL     1      33.810  53.789  40.791  1.00  0.00     0.190 HD
ENDROOT
BRANCH   1   5
HETATM    5  C   UNL     1      36.109  53.265  39.641  1.00  0.00     0.178 C 
BRANCH   5   6
HETATM    6  S   UNL     1      37.442  52.045  39.857  1.00  0.00    -0.154 SA
BRANCH   6   7
HETATM    7  C   UNL     1      37.265  51.768  41.651  1.00  0.00     0.135 C 
BRANCH   7   8
HETATM    8  C   UNL     1      35.887  51.304  41.974  1.00  0.00     0.062 A 
HETATM    9  C   UNL     1      35.221  50.178  41.529  1.00  0.00     0.126 A 
HETATM   10  N   UNL     1      33.969  50.240  42.087  1.00  0.00    -0.315 N 
HETATM   11  C   UNL     1      32.890  49.373  41.941  1.00  0.00     0.105 A 
HETATM   12  C   UNL     1      33.937  51.387  42.870  1.00  0.00     0.134 A 
HETATM   13  C   UNL     1      31.736  49.636  42.584  1.00  0.00    -0.046 A 
HETATM   14  C   UNL     1      30.514  48.779  42.488  1.00  0.00     0.049 C 
HETATM   15  C   UNL     1      31.671  50.836  43.422  1.00  0.00     0.012 A 
HETATM   16  C   UNL     1      32.723  51.667  43.556  1.00  0.00     0.051 A 
HETATM   17  N   UNL     1      35.084  52.033  42.825  1.00  0.00    -0.233 NA
ENDBRANCH   7   8
ENDBRANCH   6   7
ENDBRANCH   5   6
ENDBRANCH   1   5
BRANCH   2  18
HETATM   18  N   UNL     1      32.427  52.599  39.812  1.00  0.00    -0.262 N 
HETATM   19  C   UNL     1      31.330  53.164  40.427  1.00  0.00     0.286 C 
HETATM   20  O   UNL     1      31.414  54.192  41.097  1.00  0.00    -0.264 OA
HETATM   21  H   UNL     1      32.404  51.710  39.321  1.00  0.00     0.190 HD
BRANCH  19  22
HETATM   22  C   UNL     1      30.075  52.472  40.229  1.00  0.00     0.103 A 
HETATM   23  N   UNL     1      29.147  52.370  41.248  1.00  0.00    -0.360 N 
HETATM   24  H   UNL     1      29.287  52.762  42.173  1.00  0.00     0.165 HD
HETATM   25  C   UNL     1      28.038  51.692  40.820  1.00  0.00     0.107 A 
HETATM   26  C   UNL     1      28.259  51.349  39.512  1.00  0.00     0.028 A 
HETATM   27 BR   UNL     1      27.099  50.410  38.382  1.00  0.00    -0.050 Br
HETATM   28  C   UNL     1      29.529  51.826  39.129  1.00  0.00     0.055 A 
ENDBRANCH  19  22
ENDBRANCH   2  18
TORSDOF 6
ENDMDL
MODEL 9
REMARK VINA RESULT:      -7.4      4.187     10.509
REMARK  6 active torsions:
REMARK  status: ('A' for Active; 'I' for Inactive)
REMARK    1  A    between atoms: C_9  and  C_10 
REMARK    2  A    between atoms: C_10  and  S_11 
REMARK    3  A    between atoms: S_11  and  C_12 
REMARK    4  A    between atoms: C_12  and  C_13 
REMARK       I    between atoms: C_13  and  N_14 
REMARK    5  A    between atoms: N_14  and  N_15 
REMARK       I    between atoms: N_15  and  C_16 
REMARK    6  A    between atoms: C_16  and  C_17 
ROOT
HETATM    1  C   UNL     1      26.319  43.862  50.020  1.00  0.00     0.245 C 
HETATM    2  N   UNL     1      26.735  44.656  51.068  1.00  0.00    -0.267 N 
HETATM    3  O   UNL     1      26.698  42.697  49.887  1.00  0.00    -0.271 OA
HETATM    4  H   UNL     1      26.617  45.671  51.019  1.00  0.00     0.190 HD
ENDROOT
BRANCH   1   5
HETATM    5  C   UNL     1      25.263  44.477  49.116  1.00  0.00     0.178 C 
BRANCH   5   6
HETATM    6  S   UNL     1      23.990  45.380  50.054  1.00  0.00    -0.154 SA
BRANCH   6   7
HETATM    7  C   UNL     1      24.579  47.077  49.739  1.00  0.00     0.135 C 
BRANCH   7   8
HETATM    8  C   UNL     1      23.457  47.944  49.285  1.00  0.00     0.062 A 
HETATM    9  C   UNL     1      22.381  47.625  48.479  1.00  0.00     0.126 A 
HETATM   10  N   UNL     1      21.668  48.787  48.330  1.00  0.00    -0.315 N 
HETATM   11  C   UNL     1      20.514  49.030  47.591  1.00  0.00     0.105 A 
HETATM   12  C   UNL     1      22.326  49.758  49.074  1.00  0.00     0.134 A 
HETATM   13  C   UNL     1      19.981  50.267  47.579  1.00  0.00    -0.046 A 
HETATM   14  C   UNL     1      18.752  50.639  46.813  1.00  0.00     0.049 C 
HETATM   15  C   UNL     1      20.649  51.313  48.358  1.00  0.00     0.012 A 
HETATM   16  C   UNL     1      21.766  51.065  49.070  1.00  0.00     0.051 A 
HETATM   17  N   UNL     1      23.396  49.268  49.665  1.00  0.00    -0.233 NA
ENDBRANCH   7   8
ENDBRANCH   6   7
ENDBRANCH   5   6
ENDBRANCH   1   5
BRANCH   2  18
HETATM   18  N   UNL     1      27.771  44.185  51.883  1.00  0.00    -0.262 N 
HETATM   19  C   UNL     1      27.828  44.591  53.198  1.00  0.00     0.286 C 
HETATM   20  O   UNL     1      26.991  45.350  53.685  1.00  0.00    -0.264 OA
HETATM   21  H   UNL     1      28.490  43.625  51.432  1.00  0.00     0.190 HD
BRANCH  19  22
HETATM   22  C   UNL     1      28.932  44.063  53.970  1.00  0.00     0.103 A 
HETATM   23  N   UNL     1      29.767  43.092  53.450  1.00  0.00    -0.360 N 
HETATM   24  H   UNL     1      29.657  42.699  52.522  1.00  0.00     0.165 HD
HETATM   25  C   UNL     1      30.742  42.766  54.353  1.00  0.00     0.107 A 
HETATM   26  C   UNL     1      30.528  43.532  55.468  1.00  0.00     0.028 A 
HETATM   27 BR   UNL     1      31.540  43.539  57.043  1.00  0.00    -0.050 Br
HETATM   28  C   UNL     1      29.399  44.346  55.246  1.00  0.00     0.055 A 
ENDBRANCH  19  22
ENDBRANCH   2  18
TORSDOF 6
ENDMDL
MODEL 10
REMARK VINA RESULT:      -7.3      4.007     10.619
REMARK  6 active torsions:
REMARK  status: ('A' for Active; 'I' for Inactive)
REMARK    1  A    between atoms: C_9  and  C_10 
REMARK    2  A    between atoms: C_10  and  S_11 
REMARK    3  A    between atoms: S_11  and  C_12 
REMARK    4  A    between atoms: C_12  and  C_13 
REMARK       I    between atoms: C_13  and  N_14 
REMARK    5  A    between atoms: N_14  and  N_15 
REMARK       I    between atoms: N_15  and  C_16 
REMARK    6  A    between atoms: C_16  and  C_17 
ROOT
HETATM    1  C   UNL     1      25.102  45.446  51.078  1.00  0.00     0.245 C 
HETATM    2  N   UNL     1      25.673  46.421  51.869  1.00  0.00    -0.267 N 
HETATM    3  O   UNL     1      25.319  44.245  51.255  1.00  0.00    -0.271 OA
HETATM    4  H   UNL     1      25.686  47.394  51.552  1.00  0.00     0.190 HD
ENDROOT
BRANCH   1   5
HETATM    5  C   UNL     1      24.089  45.942  50.060  1.00  0.00     0.178 C 
BRANCH   5   6
HETATM    6  S   UNL     1      24.112  47.755  49.888  1.00  0.00    -0.154 SA
BRANCH   6   7
HETATM    7  C   UNL     1      23.084  47.894  48.388  1.00  0.00     0.135 C 
BRANCH   7   8
HETATM    8  C   UNL     1      21.874  48.718  48.658  1.00  0.00     0.062 A 
HETATM    9  C   UNL     1      21.671  50.067  48.437  1.00  0.00     0.126 A 
HETATM   10  N   UNL     1      20.408  50.336  48.900  1.00  0.00    -0.315 N 
HETATM   11  C   UNL     1      19.720  51.545  48.945  1.00  0.00     0.105 A 
HETATM   12  C   UNL     1      19.885  49.133  49.357  1.00  0.00     0.134 A 
HETATM   13  C   UNL     1      18.474  51.580  49.456  1.00  0.00    -0.046 A 
HETATM   14  C   UNL     1      17.651  52.825  49.562  1.00  0.00     0.049 C 
HETATM   15  C   UNL     1      17.892  50.328  49.944  1.00  0.00     0.012 A 
HETATM   16  C   UNL     1      18.568  49.163  49.894  1.00  0.00     0.051 A 
HETATM   17  N   UNL     1      20.746  48.147  49.210  1.00  0.00    -0.233 NA
ENDBRANCH   7   8
ENDBRANCH   6   7
ENDBRANCH   5   6
ENDBRANCH   1   5
BRANCH   2  18
HETATM   18  N   UNL     1      26.681  46.041  52.763  1.00  0.00    -0.262 N 
HETATM   19  C   UNL     1      26.673  46.554  54.041  1.00  0.00     0.286 C 
HETATM   20  O   UNL     1      25.802  47.333  54.427  1.00  0.00    -0.264 OA
HETATM   21  H   UNL     1      27.428  45.461  52.391  1.00  0.00     0.190 HD
BRANCH  19  22
HETATM   22  C   UNL     1      27.751  46.115  54.900  1.00  0.00     0.103 A 
HETATM   23  N   UNL     1      27.902  46.626  56.176  1.00  0.00    -0.360 N 
HETATM   24  H   UNL     1      27.284  47.324  56.575  1.00  0.00     0.165 HD
HETATM   25  C   UNL     1      28.975  46.048  56.799  1.00  0.00     0.107 A 
HETATM   26  C   UNL     1      29.522  45.160  55.911  1.00  0.00     0.028 A 
HETATM   27 BR   UNL     1      31.012  44.062  56.192  1.00  0.00    -0.050 Br
HETATM   28  C   UNL     1      28.772  45.192  54.719  1.00  0.00     0.055 A 
ENDBRANCH  19  22
ENDBRANCH   2  18
TORSDOF 6
ENDMDL
