MODEL 1
REMARK VINA RESULT:      -9.3      0.000      0.000
REMARK  5 active torsions:
REMARK  status: ('A' for Active; 'I' for Inactive)
REMARK    1  A    between atoms: O_2  and  C_3 
REMARK    2  A    between atoms: C_7  and  C_8 
REMARK    3  A    between atoms: C_8  and  N_9 
REMARK       I    between atoms: N_9  and  C_10 
REMARK    4  A    between atoms: C_10  and  C_11 
REMARK    5  A    between atoms: C_13  and  C_14 
ROOT
HETATM    1  N   UNL     1      26.389  45.111  51.999  1.00  0.00    -0.353 N 
HETATM    2  C   UNL     1      26.669  44.697  53.282  1.00  0.00     0.251 C 
HETATM    3  O   UNL     1      25.881  44.810  54.214  1.00  0.00    -0.268 OA
HETATM    4  H   UNL     1      27.082  45.041  51.269  1.00  0.00     0.163 HD
ENDROOT
BRANCH   2   5
HETATM    5  C   UNL     1      28.022  44.124  53.519  1.00  0.00     0.032 A 
HETATM    6  C   UNL     1      28.649  44.400  54.742  1.00  0.00     0.029 A 
HETATM    7  C   UNL     1      29.919  43.881  55.030  1.00  0.00    -0.023 A 
HETATM    8  C   UNL     1      30.549  43.074  54.073  1.00  0.00     0.012 A 
HETATM    9  C   UNL     1      29.921  42.783  52.858  1.00  0.00     0.002 A 
HETATM   10  C   UNL     1      28.657  43.304  52.579  1.00  0.00     0.017 A 
BRANCH   7  11
HETATM   11  C   UNL     1      30.560  44.191  56.298  1.00  0.00    -0.002 A 
HETATM   12  C   UNL     1      31.551  43.428  56.884  1.00  0.00     0.153 A 
HETATM   13  O   UNL     1      31.943  43.968  58.068  1.00  0.00    -0.334 OA
HETATM   14  C   UNL     1      31.195  45.083  58.257  1.00  0.00     0.142 A 
HETATM   15  C   UNL     1      30.329  45.264  57.205  1.00  0.00     0.038 A 
ENDBRANCH   7  11
ENDBRANCH   2   5
BRANCH   1  16
HETATM   16  C   UNL     1      25.094  45.653  51.657  1.00  0.00     0.161 C 
BRANCH  16  17
HETATM   17  C   UNL     1      25.223  46.825  50.719  1.00  0.00    -0.037 A 
HETATM   18  C   UNL     1      26.471  47.400  50.450  1.00  0.00     0.054 A 
HETATM   19  C   UNL     1      26.581  48.468  49.557  1.00  0.00     0.150 A 
HETATM   20  C   UNL     1      25.457  48.988  48.913  1.00  0.00     0.106 A 
HETATM   21  F   UNL     1      27.806  48.971  49.347  1.00  0.00    -0.203 F 
HETATM   22  C   UNL     1      24.209  48.420  49.189  1.00  0.00     0.040 A 
HETATM   23  C   UNL     1      24.091  47.347  50.078  1.00  0.00     0.012 A 
BRANCH  20  24
HETATM   24  O   UNL     1      25.416  50.020  48.016  1.00  0.00    -0.353 OA
HETATM   25  C   UNL     1      24.138  50.571  47.724  1.00  0.00     0.210 C 
ENDBRANCH  20  24
ENDBRANCH  16  17
ENDBRANCH   1  16
TORSDOF 5
ENDMDL
MODEL 2
REMARK VINA RESULT:      -8.6      2.610      8.992
REMARK  5 active torsions:
REMARK  status: ('A' for Active; 'I' for Inactive)
REMARK    1  A    between atoms: O_2  and  C_3 
REMARK    2  A    between atoms: C_7  and  C_8 
REMARK    3  A    between atoms: C_8  and  N_9 
REMARK       I    between atoms: N_9  and  C_10 
REMARK    4  A    between atoms: C_10  and  C_11 
REMARK    5  A    between atoms: C_13  and  C_14 
ROOT
HETATM    1  N   UNL     1      26.270  46.042  51.602  1.00  0.00    -0.353 N 
HETATM    2  C   UNL     1      26.676  46.181  50.294  1.00  0.00     0.251 C 
HETATM    3  O   UNL     1      27.241  45.294  49.666  1.00  0.00    -0.268 OA
HETATM    4  H   UNL     1      25.848  46.813  52.099  1.00  0.00     0.163 HD
ENDROOT
BRANCH   2   5
HETATM    5  C   UNL     1      26.432  47.503  49.655  1.00  0.00     0.032 A 
HETATM    6  C   UNL     1      25.107  47.948  49.547  1.00  0.00     0.029 A 
HETATM    7  C   UNL     1      24.812  49.188  48.965  1.00  0.00    -0.023 A 
HETATM    8  C   UNL     1      25.869  49.980  48.497  1.00  0.00     0.012 A 
HETATM    9  C   UNL     1      27.193  49.548  48.617  1.00  0.00     0.002 A 
HETATM   10  C   UNL     1      27.478  48.312  49.198  1.00  0.00     0.017 A 
BRANCH   7  11
HETATM   11  C   UNL     1      23.429  49.626  48.847  1.00  0.00    -0.002 A 
HETATM   12  C   UNL     1      22.330  48.809  49.026  1.00  0.00     0.153 A 
HETATM   13  O   UNL     1      21.176  49.502  48.840  1.00  0.00    -0.334 OA
HETATM   14  C   UNL     1      21.528  50.775  48.531  1.00  0.00     0.142 A 
HETATM   15  C   UNL     1      22.897  50.904  48.517  1.00  0.00     0.038 A 
ENDBRANCH   7  11
ENDBRANCH   2   5
BRANCH   1  16
HETATM   16  C   UNL     1      26.433  44.790  52.304  1.00  0.00     0.161 C 
BRANCH  16  17
HETATM   17  C   UNL     1      27.410  44.925  53.443  1.00  0.00    -0.037 A 
HETATM   18  C   UNL     1      28.391  43.952  53.671  1.00  0.00     0.054 A 
HETATM   19  C   UNL     1      29.308  44.102  54.712  1.00  0.00     0.150 A 
HETATM   20  C   UNL     1      29.273  45.219  55.549  1.00  0.00     0.106 A 
HETATM   21  F   UNL     1      30.221  43.132  54.875  1.00  0.00    -0.203 F 
HETATM   22  C   UNL     1      28.287  46.186  55.329  1.00  0.00     0.040 A 
HETATM   23  C   UNL     1      27.368  46.045  54.284  1.00  0.00     0.012 A 
BRANCH  20  24
HETATM   24  O   UNL     1      30.105  45.499  56.598  1.00  0.00    -0.353 OA
HETATM   25  C   UNL     1      29.502  45.990  57.789  1.00  0.00     0.210 C 
ENDBRANCH  20  24
ENDBRANCH  16  17
ENDBRANCH   1  16
TORSDOF 5
ENDMDL
MODEL 3
REMARK VINA RESULT:      -8.4      2.767      3.313
REMARK  5 active torsions:
REMARK  status: ('A' for Active; 'I' for Inactive)
REMARK    1  A    between atoms: O_2  and  C_3 
REMARK    2  A    between atoms: C_7  and  C_8 
REMARK    3  A    between atoms: C_8  and  N_9 
REMARK       I    between atoms: N_9  and  C_10 
REMARK    4  A    between atoms: C_10  and  C_11 
REMARK    5  A    between atoms: C_13  and  C_14 
ROOT
HETATM    1  N   UNL     1      26.514  45.698  51.928  1.00  0.00    -0.353 N 
HETATM    2  C   UNL     1      26.799  45.384  53.238  1.00  0.00     0.251 C 
HETATM    3  O   UNL     1      26.131  45.779  54.186  1.00  0.00    -0.268 OA
HETATM    4  H   UNL     1      27.116  45.390  51.178  1.00  0.00     0.163 HD
ENDROOT
BRANCH   2   5
HETATM    5  C   UNL     1      28.010  44.552  53.478  1.00  0.00     0.032 A 
HETATM    6  C   UNL     1      28.696  44.722  54.688  1.00  0.00     0.029 A 
HETATM    7  C   UNL     1      29.837  43.961  54.979  1.00  0.00    -0.023 A 
HETATM    8  C   UNL     1      30.277  43.021  54.036  1.00  0.00     0.012 A 
HETATM    9  C   UNL     1      29.587  42.838  52.835  1.00  0.00     0.002 A 
HETATM   10  C   UNL     1      28.452  43.600  52.553  1.00  0.00     0.017 A 
BRANCH   7  11
HETATM   11  C   UNL     1      30.544  44.162  56.234  1.00  0.00    -0.002 A 
HETATM   12  C   UNL     1      31.483  43.293  56.754  1.00  0.00     0.153 A 
HETATM   13  O   UNL     1      31.959  43.747  57.943  1.00  0.00    -0.334 OA
HETATM   14  C   UNL     1      31.319  44.914  58.202  1.00  0.00     0.142 A 
HETATM   15  C   UNL     1      30.437  45.212  57.189  1.00  0.00     0.038 A 
ENDBRANCH   7  11
ENDBRANCH   2   5
BRANCH   1  16
HETATM   16  C   UNL     1      25.345  46.475  51.585  1.00  0.00     0.161 C 
BRANCH  16  17
HETATM   17  C   UNL     1      24.429  45.708  50.668  1.00  0.00    -0.037 A 
HETATM   18  C   UNL     1      24.032  44.400  50.973  1.00  0.00     0.054 A 
HETATM   19  C   UNL     1      23.161  43.709  50.129  1.00  0.00     0.150 A 
HETATM   20  C   UNL     1      22.664  44.301  48.965  1.00  0.00     0.106 A 
HETATM   21  F   UNL     1      22.822  42.460  50.481  1.00  0.00    -0.203 F 
HETATM   22  C   UNL     1      23.068  45.603  48.655  1.00  0.00     0.040 A 
HETATM   23  C   UNL     1      23.937  46.303  49.499  1.00  0.00     0.012 A 
BRANCH  20  24
HETATM   24  O   UNL     1      21.805  43.750  48.055  1.00  0.00    -0.353 OA
HETATM   25  C   UNL     1      20.814  44.606  47.501  1.00  0.00     0.210 C 
ENDBRANCH  20  24
ENDBRANCH  16  17
ENDBRANCH   1  16
TORSDOF 5
ENDMDL
MODEL 4
REMARK VINA RESULT:      -8.3      3.842      6.096
REMARK  5 active torsions:
REMARK  status: ('A' for Active; 'I' for Inactive)
REMARK    1  A    between atoms: O_2  and  C_3 
REMARK    2  A    between atoms: C_7  and  C_8 
REMARK    3  A    between atoms: C_8  and  N_9 
REMARK       I    between atoms: N_9  and  C_10 
REMARK    4  A    between atoms: C_10  and  C_11 
REMARK    5  A    between atoms: C_13  and  C_14 
ROOT
HETATM    1  N   UNL     1      26.961  44.292  51.317  1.00  0.00    -0.353 N 
HETATM    2  C   UNL     1      26.289  44.552  52.489  1.00  0.00     0.251 C 
HETATM    3  O   UNL     1      25.142  44.178  52.705  1.00  0.00    -0.268 OA
HETATM    4  H   UNL     1      27.890  44.656  51.160  1.00  0.00     0.163 HD
ENDROOT
BRANCH   2   5
HETATM    5  C   UNL     1      27.010  45.363  53.508  1.00  0.00     0.032 A 
HETATM    6  C   UNL     1      28.047  44.749  54.225  1.00  0.00     0.029 A 
HETATM    7  C   UNL     1      28.772  45.462  55.190  1.00  0.00    -0.023 A 
HETATM    8  C   UNL     1      28.443  46.804  55.422  1.00  0.00     0.012 A 
HETATM    9  C   UNL     1      27.420  47.425  54.699  1.00  0.00     0.002 A 
HETATM   10  C   UNL     1      26.703  46.708  53.740  1.00  0.00     0.017 A 
BRANCH   7  11
HETATM   11  C   UNL     1      29.834  44.803  55.934  1.00  0.00    -0.002 A 
HETATM   12  C   UNL     1      30.360  45.264  57.125  1.00  0.00     0.153 A 
HETATM   13  O   UNL     1      31.345  44.440  57.571  1.00  0.00    -0.334 OA
HETATM   14  C   UNL     1      31.465  43.444  56.660  1.00  0.00     0.142 A 
HETATM   15  C   UNL     1      30.567  43.620  55.634  1.00  0.00     0.038 A 
ENDBRANCH   7  11
ENDBRANCH   2   5
BRANCH   1  16
HETATM   16  C   UNL     1      26.362  43.488  50.276  1.00  0.00     0.161 C 
BRANCH  16  17
HETATM   17  C   UNL     1      27.007  42.129  50.196  1.00  0.00    -0.037 A 
HETATM   18  C   UNL     1      27.860  41.674  51.209  1.00  0.00     0.054 A 
HETATM   19  C   UNL     1      28.429  40.402  51.137  1.00  0.00     0.150 A 
HETATM   20  C   UNL     1      28.164  39.553  50.060  1.00  0.00     0.106 A 
HETATM   21  F   UNL     1      29.238  40.030  52.141  1.00  0.00    -0.203 F 
HETATM   22  C   UNL     1      27.320  40.010  49.043  1.00  0.00     0.040 A 
HETATM   23  C   UNL     1      26.742  41.282  49.111  1.00  0.00     0.012 A 
BRANCH  20  24
HETATM   24  O   UNL     1      28.644  38.288  49.862  1.00  0.00    -0.353 OA
HETATM   25  C   UNL     1      29.942  38.170  49.294  1.00  0.00     0.210 C 
ENDBRANCH  20  24
ENDBRANCH  16  17
ENDBRANCH   1  16
TORSDOF 5
ENDMDL
MODEL 5
REMARK VINA RESULT:      -8.2      2.299      3.330
REMARK  5 active torsions:
REMARK  status: ('A' for Active; 'I' for Inactive)
REMARK    1  A    between atoms: O_2  and  C_3 
REMARK    2  A    between atoms: C_7  and  C_8 
REMARK    3  A    between atoms: C_8  and  N_9 
REMARK       I    between atoms: N_9  and  C_10 
REMARK    4  A    between atoms: C_10  and  C_11 
REMARK    5  A    between atoms: C_13  and  C_14 
ROOT
HETATM    1  N   UNL     1      24.948  46.564  51.077  1.00  0.00    -0.353 N 
HETATM    2  C   UNL     1      25.479  45.615  51.921  1.00  0.00     0.251 C 
HETATM    3  O   UNL     1      25.350  44.409  51.746  1.00  0.00    -0.268 OA
HETATM    4  H   UNL     1      25.039  47.548  51.280  1.00  0.00     0.163 HD
ENDROOT
BRANCH   2   5
HETATM    5  C   UNL     1      26.209  46.118  53.117  1.00  0.00     0.032 A 
HETATM    6  C   UNL     1      27.291  45.365  53.593  1.00  0.00     0.029 A 
HETATM    7  C   UNL     1      28.026  45.789  54.709  1.00  0.00    -0.023 A 
HETATM    8  C   UNL     1      27.660  46.987  55.338  1.00  0.00     0.012 A 
HETATM    9  C   UNL     1      26.591  47.750  54.858  1.00  0.00     0.002 A 
HETATM   10  C   UNL     1      25.865  47.319  53.747  1.00  0.00     0.017 A 
BRANCH   7  11
HETATM   11  C   UNL     1      29.136  44.987  55.196  1.00  0.00    -0.002 A 
HETATM   12  C   UNL     1      30.003  45.373  56.200  1.00  0.00     0.153 A 
HETATM   13  O   UNL     1      30.941  44.416  56.426  1.00  0.00    -0.334 OA
HETATM   14  C   UNL     1      30.688  43.406  55.557  1.00  0.00     0.142 A 
HETATM   15  C   UNL     1      29.595  43.706  54.778  1.00  0.00     0.038 A 
ENDBRANCH   7  11
ENDBRANCH   2   5
BRANCH   1  16
HETATM   16  C   UNL     1      24.248  46.181  49.872  1.00  0.00     0.161 C 
BRANCH  16  17
HETATM   17  C   UNL     1      23.501  47.348  49.281  1.00  0.00    -0.037 A 
HETATM   18  C   UNL     1      23.999  48.652  49.386  1.00  0.00     0.054 A 
HETATM   19  C   UNL     1      23.311  49.722  48.810  1.00  0.00     0.150 A 
HETATM   20  C   UNL     1      22.116  49.521  48.116  1.00  0.00     0.106 A 
HETATM   21  F   UNL     1      23.844  50.944  48.950  1.00  0.00    -0.203 F 
HETATM   22  C   UNL     1      21.613  48.219  48.019  1.00  0.00     0.040 A 
HETATM   23  C   UNL     1      22.299  47.143  48.590  1.00  0.00     0.012 A 
BRANCH  20  24
HETATM   24  O   UNL     1      21.343  50.466  47.500  1.00  0.00    -0.353 OA
HETATM   25  C   UNL     1      20.512  51.264  48.334  1.00  0.00     0.210 C 
ENDBRANCH  20  24
ENDBRANCH  16  17
ENDBRANCH   1  16
TORSDOF 5
ENDMDL
MODEL 6
REMARK VINA RESULT:      -8.1      2.884      8.212
REMARK  5 active torsions:
REMARK  status: ('A' for Active; 'I' for Inactive)
REMARK    1  A    between atoms: O_2  and  C_3 
REMARK    2  A    between atoms: C_7  and  C_8 
REMARK    3  A    between atoms: C_8  and  N_9 
REMARK       I    between atoms: N_9  and  C_10 
REMARK    4  A    between atoms: C_10  and  C_11 
REMARK    5  A    between atoms: C_13  and  C_14 
ROOT
HETATM    1  N   UNL     1      27.819  43.335  52.016  1.00  0.00    -0.353 N 
HETATM    2  C   UNL     1      26.902  42.484  51.444  1.00  0.00     0.251 C 
HETATM    3  O   UNL     1      27.077  41.275  51.340  1.00  0.00    -0.268 OA
HETATM    4  H   UNL     1      27.657  44.331  52.042  1.00  0.00     0.163 HD
ENDROOT
BRANCH   2   5
HETATM    5  C   UNL     1      25.662  43.104  50.901  1.00  0.00     0.032 A 
HETATM    6  C   UNL     1      25.680  44.478  50.624  1.00  0.00     0.029 A 
HETATM    7  C   UNL     1      24.549  45.119  50.100  1.00  0.00    -0.023 A 
HETATM    8  C   UNL     1      23.398  44.358  49.855  1.00  0.00     0.012 A 
HETATM    9  C   UNL     1      23.380  42.985  50.116  1.00  0.00     0.002 A 
HETATM   10  C   UNL     1      24.511  42.355  50.637  1.00  0.00     0.017 A 
BRANCH   7  11
HETATM   11  C   UNL     1      24.582  46.549  49.833  1.00  0.00    -0.002 A 
HETATM   12  C   UNL     1      25.667  47.368  50.076  1.00  0.00     0.153 A 
HETATM   13  O   UNL     1      25.390  48.653  49.734  1.00  0.00    -0.334 OA
HETATM   14  C   UNL     1      24.115  48.671  49.273  1.00  0.00     0.142 A 
HETATM   15  C   UNL     1      23.572  47.409  49.316  1.00  0.00     0.038 A 
ENDBRANCH   7  11
ENDBRANCH   2   5
BRANCH   1  16
HETATM   16  C   UNL     1      29.041  42.831  52.600  1.00  0.00     0.161 C 
BRANCH  16  17
HETATM   17  C   UNL     1      29.392  43.577  53.861  1.00  0.00    -0.037 A 
HETATM   18  C   UNL     1      30.461  43.167  54.668  1.00  0.00     0.054 A 
HETATM   19  C   UNL     1      30.794  43.883  55.820  1.00  0.00     0.150 A 
HETATM   20  C   UNL     1      30.076  45.021  56.194  1.00  0.00     0.106 A 
HETATM   21  F   UNL     1      31.827  43.434  56.547  1.00  0.00    -0.203 F 
HETATM   22  C   UNL     1      29.003  45.425  55.394  1.00  0.00     0.040 A 
HETATM   23  C   UNL     1      28.667  44.716  54.236  1.00  0.00     0.012 A 
BRANCH  20  24
HETATM   24  O   UNL     1      30.292  45.818  57.284  1.00  0.00    -0.353 OA
HETATM   25  C   UNL     1      29.161  46.134  58.088  1.00  0.00     0.210 C 
ENDBRANCH  20  24
ENDBRANCH  16  17
ENDBRANCH   1  16
TORSDOF 5
ENDMDL
MODEL 7
REMARK VINA RESULT:      -8.1      4.134      5.926
REMARK  5 active torsions:
REMARK  status: ('A' for Active; 'I' for Inactive)
REMARK    1  A    between atoms: O_2  and  C_3 
REMARK    2  A    between atoms: C_7  and  C_8 
REMARK    3  A    between atoms: C_8  and  N_9 
REMARK       I    between atoms: N_9  and  C_10 
REMARK    4  A    between atoms: C_10  and  C_11 
REMARK    5  A    between atoms: C_13  and  C_14 
ROOT
HETATM    1  N   UNL     1      23.151  47.992  49.593  1.00  0.00    -0.353 N 
HETATM    2  C   UNL     1      24.466  47.867  49.980  1.00  0.00     0.251 C 
HETATM    3  O   UNL     1      25.352  48.630  49.613  1.00  0.00    -0.268 OA
HETATM    4  H   UNL     1      22.459  47.316  49.881  1.00  0.00     0.163 HD
ENDROOT
BRANCH   2   5
HETATM    5  C   UNL     1      24.797  46.712  50.859  1.00  0.00     0.032 A 
HETATM    6  C   UNL     1      25.605  46.948  51.980  1.00  0.00     0.029 A 
HETATM    7  C   UNL     1      25.944  45.905  52.853  1.00  0.00    -0.023 A 
HETATM    8  C   UNL     1      25.455  44.619  52.586  1.00  0.00     0.012 A 
HETATM    9  C   UNL     1      24.638  44.381  51.477  1.00  0.00     0.002 A 
HETATM   10  C   UNL     1      24.305  45.426  50.613  1.00  0.00     0.017 A 
BRANCH   7  11
HETATM   11  C   UNL     1      26.795  46.167  54.003  1.00  0.00    -0.002 A 
HETATM   12  C   UNL     1      26.938  47.400  54.609  1.00  0.00     0.153 A 
HETATM   13  O   UNL     1      27.808  47.331  55.651  1.00  0.00    -0.334 OA
HETATM   14  C   UNL     1      28.240  46.047  55.716  1.00  0.00     0.142 A 
HETATM   15  C   UNL     1      27.654  45.293  54.727  1.00  0.00     0.038 A 
ENDBRANCH   7  11
ENDBRANCH   2   5
BRANCH   1  16
HETATM   16  C   UNL     1      22.719  49.095  48.766  1.00  0.00     0.161 C 
BRANCH  16  17
HETATM   17  C   UNL     1      21.350  49.576  49.168  1.00  0.00    -0.037 A 
HETATM   18  C   UNL     1      20.313  48.670  49.423  1.00  0.00     0.054 A 
HETATM   19  C   UNL     1      19.055  49.127  49.822  1.00  0.00     0.150 A 
HETATM   20  C   UNL     1      18.799  50.491  49.976  1.00  0.00     0.106 A 
HETATM   21  F   UNL     1      18.108  48.205  50.049  1.00  0.00    -0.203 F 
HETATM   22  C   UNL     1      19.832  51.397  49.712  1.00  0.00     0.040 A 
HETATM   23  C   UNL     1      21.095  50.946  49.317  1.00  0.00     0.012 A 
BRANCH  20  24
HETATM   24  O   UNL     1      17.626  51.078  50.364  1.00  0.00    -0.353 OA
HETATM   25  C   UNL     1      17.086  52.072  49.502  1.00  0.00     0.210 C 
ENDBRANCH  20  24
ENDBRANCH  16  17
ENDBRANCH   1  16
TORSDOF 5
ENDMDL
MODEL 8
REMARK VINA RESULT:      -8.1      4.836      7.777
REMARK  5 active torsions:
REMARK  status: ('A' for Active; 'I' for Inactive)
REMARK    1  A    between atoms: O_2  and  C_3 
REMARK    2  A    between atoms: C_7  and  C_8 
REMARK    3  A    between atoms: C_8  and  N_9 
REMARK       I    between atoms: N_9  and  C_10 
REMARK    4  A    between atoms: C_10  and  C_11 
REMARK    5  A    between atoms: C_13  and  C_14 
ROOT
HETATM    1  N   UNL     1      22.784  50.574  49.176  1.00  0.00    -0.353 N 
HETATM    2  C   UNL     1      23.684  50.206  48.202  1.00  0.00     0.251 C 
HETATM    3  O   UNL     1      23.461  50.316  47.002  1.00  0.00    -0.268 OA
HETATM    4  H   UNL     1      22.988  50.425  50.154  1.00  0.00     0.163 HD
ENDROOT
BRANCH   2   5
HETATM    5  C   UNL     1      24.968  49.614  48.668  1.00  0.00     0.032 A 
HETATM    6  C   UNL     1      24.910  48.501  49.518  1.00  0.00     0.029 A 
HETATM    7  C   UNL     1      26.083  47.890  49.982  1.00  0.00    -0.023 A 
HETATM    8  C   UNL     1      27.319  48.412  49.575  1.00  0.00     0.012 A 
HETATM    9  C   UNL     1      27.382  49.512  48.715  1.00  0.00     0.002 A 
HETATM   10  C   UNL     1      26.209  50.114  48.258  1.00  0.00     0.017 A 
BRANCH   7  11
HETATM   11  C   UNL     1      26.002  46.745  50.875  1.00  0.00    -0.002 A 
HETATM   12  C   UNL     1      26.392  45.462  50.545  1.00  0.00     0.153 A 
HETATM   13  O   UNL     1      26.186  44.609  51.582  1.00  0.00    -0.334 OA
HETATM   14  C   UNL     1      25.651  45.341  52.591  1.00  0.00     0.142 A 
HETATM   15  C   UNL     1      25.513  46.655  52.209  1.00  0.00     0.038 A 
ENDBRANCH   7  11
ENDBRANCH   2   5
BRANCH   1  16
HETATM   16  C   UNL     1      21.521  51.186  48.832  1.00  0.00     0.161 C 
BRANCH  16  17
HETATM   17  C   UNL     1      20.383  50.211  48.978  1.00  0.00    -0.037 A 
HETATM   18  C   UNL     1      19.899  49.851  50.242  1.00  0.00     0.054 A 
HETATM   19  C   UNL     1      18.825  48.967  50.364  1.00  0.00     0.150 A 
HETATM   20  C   UNL     1      18.208  48.423  49.236  1.00  0.00     0.106 A 
HETATM   21  F   UNL     1      18.413  48.665  51.604  1.00  0.00    -0.203 F 
HETATM   22  C   UNL     1      18.697  48.774  47.974  1.00  0.00     0.040 A 
HETATM   23  C   UNL     1      19.769  49.663  47.844  1.00  0.00     0.012 A 
BRANCH  20  24
HETATM   24  O   UNL     1      17.151  47.556  49.205  1.00  0.00    -0.353 OA
HETATM   25  C   UNL     1      16.121  47.826  48.261  1.00  0.00     0.210 C 
ENDBRANCH  20  24
ENDBRANCH  16  17
ENDBRANCH   1  16
TORSDOF 5
ENDMDL
MODEL 9
REMARK VINA RESULT:      -7.9      3.520     10.065
REMARK  5 active torsions:
REMARK  status: ('A' for Active; 'I' for Inactive)
REMARK    1  A    between atoms: O_2  and  C_3 
REMARK    2  A    between atoms: C_7  and  C_8 
REMARK    3  A    between atoms: C_8  and  N_9 
REMARK       I    between atoms: N_9  and  C_10 
REMARK    4  A    between atoms: C_10  and  C_11 
REMARK    5  A    between atoms: C_13  and  C_14 
ROOT
HETATM    1  N   UNL     1      24.253  46.870  50.357  1.00  0.00    -0.353 N 
HETATM    2  C   UNL     1      23.319  47.117  49.377  1.00  0.00     0.251 C 
HETATM    3  O   UNL     1      22.677  46.235  48.819  1.00  0.00    -0.268 OA
HETATM    4  H   UNL     1      24.794  47.620  50.761  1.00  0.00     0.163 HD
ENDROOT
BRANCH   2   5
HETATM    5  C   UNL     1      23.133  48.538  48.975  1.00  0.00     0.032 A 
HETATM    6  C   UNL     1      21.891  49.137  49.229  1.00  0.00     0.029 A 
HETATM    7  C   UNL     1      21.656  50.475  48.884  1.00  0.00    -0.023 A 
HETATM    8  C   UNL     1      22.691  51.206  48.283  1.00  0.00     0.012 A 
HETATM    9  C   UNL     1      23.935  50.618  48.041  1.00  0.00     0.002 A 
HETATM   10  C   UNL     1      24.161  49.285  48.388  1.00  0.00     0.017 A 
BRANCH   7  11
HETATM   11  C   UNL     1      20.357  51.075  49.141  1.00  0.00    -0.002 A 
HETATM   12  C   UNL     1      19.831  52.142  48.439  1.00  0.00     0.153 A 
HETATM   13  O   UNL     1      18.606  52.482  48.918  1.00  0.00    -0.334 OA
HETATM   14  C   UNL     1      18.338  51.637  49.944  1.00  0.00     0.142 A 
HETATM   15  C   UNL     1      19.379  50.758  50.126  1.00  0.00     0.038 A 
ENDBRANCH   7  11
ENDBRANCH   2   5
BRANCH   1  16
HETATM   16  C   UNL     1      24.488  45.528  50.841  1.00  0.00     0.161 C 
BRANCH  16  17
HETATM   17  C   UNL     1      25.310  45.539  52.103  1.00  0.00    -0.037 A 
HETATM   18  C   UNL     1      25.581  44.354  52.799  1.00  0.00     0.054 A 
HETATM   19  C   UNL     1      26.367  44.374  53.952  1.00  0.00     0.150 A 
HETATM   20  C   UNL     1      26.902  45.567  54.440  1.00  0.00     0.106 A 
HETATM   21  F   UNL     1      26.585  43.203  54.569  1.00  0.00    -0.203 F 
HETATM   22  C   UNL     1      26.625  46.753  53.751  1.00  0.00     0.040 A 
HETATM   23  C   UNL     1      25.842  46.740  52.593  1.00  0.00     0.012 A 
BRANCH  20  24
HETATM   24  O   UNL     1      27.689  45.735  55.546  1.00  0.00    -0.353 OA
HETATM   25  C   UNL     1      28.942  46.380  55.356  1.00  0.00     0.210 C 
ENDBRANCH  20  24
ENDBRANCH  16  17
ENDBRANCH   1  16
TORSDOF 5
ENDMDL
MODEL 10
REMARK VINA RESULT:      -7.9      2.172      2.669
REMARK  5 active torsions:
REMARK  status: ('A' for Active; 'I' for Inactive)
REMARK    1  A    between atoms: O_2  and  C_3 
REMARK    2  A    between atoms: C_7  and  C_8 
REMARK    3  A    between atoms: C_8  and  N_9 
REMARK       I    between atoms: N_9  and  C_10 
REMARK    4  A    between atoms: C_10  and  C_11 
REMARK    5  A    between atoms: C_13  and  C_14 
ROOT
HETATM    1  N   UNL     1      25.653  43.785  51.107  1.00  0.00    -0.353 N 
HETATM    2  C   UNL     1      26.895  43.317  50.745  1.00  0.00     0.251 C 
HETATM    3  O   UNL     1      27.212  43.071  49.587  1.00  0.00    -0.268 OA
HETATM    4  H   UNL     1      25.416  43.933  52.077  1.00  0.00     0.163 HD
ENDROOT
BRANCH   2   5
HETATM    5  C   UNL     1      27.865  43.074  51.848  1.00  0.00     0.032 A 
HETATM    6  C   UNL     1      27.933  44.015  52.885  1.00  0.00     0.029 A 
HETATM    7  C   UNL     1      28.817  43.837  53.958  1.00  0.00    -0.023 A 
HETATM    8  C   UNL     1      29.631  42.696  53.977  1.00  0.00     0.012 A 
HETATM    9  C   UNL     1      29.557  41.748  52.953  1.00  0.00     0.002 A 
HETATM   10  C   UNL     1      28.673  41.932  51.889  1.00  0.00     0.017 A 
BRANCH   7  11
HETATM   11  C   UNL     1      28.884  44.832  55.017  1.00  0.00    -0.002 A 
HETATM   12  C   UNL     1      29.950  44.989  55.881  1.00  0.00     0.153 A 
HETATM   13  O   UNL     1      29.714  45.993  56.766  1.00  0.00    -0.334 OA
HETATM   14  C   UNL     1      28.483  46.485  56.482  1.00  0.00     0.142 A 
HETATM   15  C   UNL     1      27.928  45.806  55.422  1.00  0.00     0.038 A 
ENDBRANCH   7  11
ENDBRANCH   2   5
BRANCH   1  16
HETATM   16  C   UNL     1      24.649  44.083  50.111  1.00  0.00     0.161 C 
BRANCH  16  17
HETATM   17  C   UNL     1      24.591  45.560  49.818  1.00  0.00    -0.037 A 
HETATM   18  C   UNL     1      23.450  46.138  49.249  1.00  0.00     0.054 A 
HETATM   19  C   UNL     1      23.397  47.512  49.008  1.00  0.00     0.150 A 
HETATM   20  C   UNL     1      24.475  48.342  49.327  1.00  0.00     0.106 A 
HETATM   21  F   UNL     1      22.275  48.000  48.460  1.00  0.00    -0.203 F 
HETATM   22  C   UNL     1      25.619  47.763  49.886  1.00  0.00     0.040 A 
HETATM   23  C   UNL     1      25.676  46.388  50.135  1.00  0.00     0.012 A 
BRANCH  20  24
HETATM   24  O   UNL     1      24.561  49.695  49.153  1.00  0.00    -0.353 OA
HETATM   25  C   UNL     1      25.167  50.156  47.951  1.00  0.00     0.210 C 
ENDBRANCH  20  24
ENDBRANCH  16  17
ENDBRANCH   1  16
TORSDOF 5
ENDMDL
