MODEL 1
REMARK VINA RESULT:      -8.8      0.000      0.000
REMARK  6 active torsions:
REMARK  status: ('A' for Active; 'I' for Inactive)
REMARK    1  A    between atoms: C_2  and  N_3 
REMARK       I    between atoms: N_3  and  C_4 
REMARK    2  A    between atoms: C_4  and  C_5 
REMARK    3  A    between atoms: C_5  and  O_6 
REMARK    4  A    between atoms: O_6  and  C_7 
REMARK    5  A    between atoms: C_10  and  N_11 
REMARK       I    between atoms: N_11  and  C_12 
REMARK    6  A    between atoms: C_12  and  C_13 
ROOT
HETATM    1  N   UNL     1      26.348  45.607  51.070  1.00  0.00    -0.322 N 
HETATM    2  C   UNL     1      26.435  45.436  52.440  1.00  0.00     0.277 C 
HETATM    3  O   UNL     1      25.826  46.075  53.292  1.00  0.00    -0.266 OA
HETATM    4  H   UNL     1      26.919  44.947  50.548  1.00  0.00     0.169 HD
ENDROOT
BRANCH   1   5
HETATM    5  C   UNL     1      25.683  46.620  50.361  1.00  0.00     0.035 A 
HETATM    6  C   UNL     1      26.302  47.796  49.930  1.00  0.00     0.032 A 
HETATM    7  C   UNL     1      25.600  48.724  49.155  1.00  0.00     0.039 A 
HETATM    8  C   UNL     1      24.277  48.470  48.805  1.00  0.00     0.069 A 
HETATM    9  C   UNL     1      23.630  47.330  49.270  1.00  0.00     0.039 A 
HETATM   10  C   UNL     1      24.337  46.403  50.041  1.00  0.00     0.032 A 
BRANCH   8  11
HETATM   11  O   UNL     1      23.584  49.360  48.033  1.00  0.00    -0.342 OA
BRANCH  11  12
HETATM   12  C   UNL     1      23.593  50.661  48.633  1.00  0.00     0.278 C 
BRANCH  12  13
HETATM   13  C   UNL     1      22.326  50.957  49.437  1.00  0.00     0.241 C 
HETATM   14  N   UNL     1      21.216  51.225  48.661  1.00  0.00    -0.360 N 
HETATM   15  H   UNL     1      21.289  50.963  47.682  1.00  0.00     0.162 HD
HETATM   16  O   UNL     1      22.319  50.993  50.665  1.00  0.00    -0.271 OA
BRANCH  14  17
HETATM   17  C   UNL     1      19.906  51.372  49.258  1.00  0.00     0.118 C 
HETATM   18  C   UNL     1      19.068  52.388  48.509  1.00  0.00     0.026 C 
ENDBRANCH  14  17
ENDBRANCH  12  13
ENDBRANCH  11  12
ENDBRANCH   8  11
ENDBRANCH   1   5
BRANCH   2  19
HETATM   19  C   UNL     1      27.406  44.384  52.797  1.00  0.00     0.157 A 
HETATM   20  N   UNL     1      27.521  43.253  52.066  1.00  0.00    -0.168 NA
HETATM   21  N   UNL     1      28.522  42.584  52.668  1.00  0.00    -0.277 N 
HETATM   22  H   UNL     1      28.799  41.686  52.289  1.00  0.00     0.189 HD
HETATM   23  C   UNL     1      29.073  43.232  53.738  1.00  0.00     0.063 A 
HETATM   24  C   UNL     1      28.352  44.413  53.863  1.00  0.00     0.029 A 
HETATM   25  C   UNL     1      30.132  42.893  54.585  1.00  0.00     0.032 A 
HETATM   26  C   UNL     1      28.693  45.311  54.893  1.00  0.00     0.023 A 
HETATM   27  C   UNL     1      29.745  44.996  55.769  1.00  0.00    -0.061 A 
HETATM   28  C   UNL     1      30.458  43.803  55.597  1.00  0.00     0.009 A 
HETATM   29  C   UNL     1      30.137  45.973  56.840  1.00  0.00     0.048 C 
ENDBRANCH   2  19
TORSDOF 6
ENDMDL
MODEL 2
REMARK VINA RESULT:      -8.5      0.994      1.386
REMARK  6 active torsions:
REMARK  status: ('A' for Active; 'I' for Inactive)
REMARK    1  A    between atoms: C_2  and  N_3 
REMARK       I    between atoms: N_3  and  C_4 
REMARK    2  A    between atoms: C_4  and  C_5 
REMARK    3  A    between atoms: C_5  and  O_6 
REMARK    4  A    between atoms: O_6  and  C_7 
REMARK    5  A    between atoms: C_10  and  N_11 
REMARK       I    between atoms: N_11  and  C_12 
REMARK    6  A    between atoms: C_12  and  C_13 
ROOT
HETATM    1  N   UNL     1      26.568  44.718  50.920  1.00  0.00    -0.322 N 
HETATM    2  C   UNL     1      26.423  43.985  52.084  1.00  0.00     0.277 C 
HETATM    3  O   UNL     1      25.386  43.832  52.720  1.00  0.00    -0.266 OA
HETATM    4  H   UNL     1      27.512  44.687  50.543  1.00  0.00     0.169 HD
ENDROOT
BRANCH   1   5
HETATM    5  C   UNL     1      25.631  45.559  50.299  1.00  0.00     0.035 A 
HETATM    6  C   UNL     1      24.471  45.096  49.673  1.00  0.00     0.032 A 
HETATM    7  C   UNL     1      23.540  45.998  49.149  1.00  0.00     0.039 A 
HETATM    8  C   UNL     1      23.767  47.366  49.259  1.00  0.00     0.069 A 
HETATM    9  C   UNL     1      24.942  47.844  49.832  1.00  0.00     0.039 A 
HETATM   10  C   UNL     1      25.868  46.939  50.358  1.00  0.00     0.032 A 
BRANCH   8  11
HETATM   11  O   UNL     1      22.857  48.260  48.766  1.00  0.00    -0.342 OA
BRANCH  11  12
HETATM   12  C   UNL     1      23.272  49.604  49.039  1.00  0.00     0.278 C 
BRANCH  12  13
HETATM   13  C   UNL     1      22.158  50.461  49.641  1.00  0.00     0.241 C 
HETATM   14  N   UNL     1      20.979  50.440  48.923  1.00  0.00    -0.360 N 
HETATM   15  H   UNL     1      20.893  49.694  48.239  1.00  0.00     0.162 HD
HETATM   16  O   UNL     1      22.324  51.140  50.651  1.00  0.00    -0.271 OA
BRANCH  14  17
HETATM   17  C   UNL     1      19.782  51.070  49.435  1.00  0.00     0.118 C 
HETATM   18  C   UNL     1      19.381  52.264  48.592  1.00  0.00     0.026 C 
ENDBRANCH  14  17
ENDBRANCH  12  13
ENDBRANCH  11  12
ENDBRANCH   8  11
ENDBRANCH   1   5
BRANCH   2  19
HETATM   19  C   UNL     1      27.706  43.407  52.526  1.00  0.00     0.157 A 
HETATM   20  N   UNL     1      28.309  42.414  51.833  1.00  0.00    -0.168 NA
HETATM   21  N   UNL     1      29.451  42.199  52.512  1.00  0.00    -0.277 N 
HETATM   22  H   UNL     1      30.086  41.486  52.174  1.00  0.00     0.189 HD
HETATM   23  C   UNL     1      29.627  43.013  53.597  1.00  0.00     0.063 A 
HETATM   24  C   UNL     1      28.489  43.808  53.647  1.00  0.00     0.029 A 
HETATM   25  C   UNL     1      30.675  43.123  54.516  1.00  0.00     0.032 A 
HETATM   26  C   UNL     1      28.376  44.768  54.673  1.00  0.00     0.023 A 
HETATM   27  C   UNL     1      29.407  44.897  55.619  1.00  0.00    -0.061 A 
HETATM   28  C   UNL     1      30.544  44.087  55.522  1.00  0.00     0.009 A 
HETATM   29  C   UNL     1      29.305  45.949  56.686  1.00  0.00     0.048 C 
ENDBRANCH   2  19
TORSDOF 6
ENDMDL
MODEL 3
REMARK VINA RESULT:      -8.5      2.222      2.944
REMARK  6 active torsions:
REMARK  status: ('A' for Active; 'I' for Inactive)
REMARK    1  A    between atoms: C_2  and  N_3 
REMARK       I    between atoms: N_3  and  C_4 
REMARK    2  A    between atoms: C_4  and  C_5 
REMARK    3  A    between atoms: C_5  and  O_6 
REMARK    4  A    between atoms: O_6  and  C_7 
REMARK    5  A    between atoms: C_10  and  N_11 
REMARK       I    between atoms: N_11  and  C_12 
REMARK    6  A    between atoms: C_12  and  C_13 
ROOT
HETATM    1  N   UNL     1      26.734  45.925  53.466  1.00  0.00    -0.322 N 
HETATM    2  C   UNL     1      26.761  46.575  54.686  1.00  0.00     0.277 C 
HETATM    3  O   UNL     1      25.954  47.409  55.083  1.00  0.00    -0.266 OA
HETATM    4  H   UNL     1      27.486  45.249  53.356  1.00  0.00     0.169 HD
ENDROOT
BRANCH   1   5
HETATM    5  C   UNL     1      25.896  46.173  52.367  1.00  0.00     0.035 A 
HETATM    6  C   UNL     1      25.953  47.338  51.597  1.00  0.00     0.032 A 
HETATM    7  C   UNL     1      25.144  47.480  50.466  1.00  0.00     0.039 A 
HETATM    8  C   UNL     1      24.282  46.451  50.100  1.00  0.00     0.069 A 
HETATM    9  C   UNL     1      24.174  45.307  50.885  1.00  0.00     0.039 A 
HETATM   10  C   UNL     1      24.987  45.167  52.013  1.00  0.00     0.032 A 
BRANCH   8  11
HETATM   11  O   UNL     1      23.498  46.569  48.987  1.00  0.00    -0.342 OA
BRANCH  11  12
HETATM   12  C   UNL     1      23.280  47.949  48.668  1.00  0.00     0.278 C 
BRANCH  12  13
HETATM   13  C   UNL     1      21.869  48.426  49.013  1.00  0.00     0.241 C 
HETATM   14  N   UNL     1      21.825  49.672  49.607  1.00  0.00    -0.360 N 
HETATM   15  H   UNL     1      22.672  50.228  49.528  1.00  0.00     0.162 HD
HETATM   16  O   UNL     1      20.874  47.735  48.815  1.00  0.00    -0.271 OA
BRANCH  14  17
HETATM   17  C   UNL     1      20.564  50.336  49.855  1.00  0.00     0.118 C 
HETATM   18  C   UNL     1      20.306  51.430  48.839  1.00  0.00     0.026 C 
ENDBRANCH  14  17
ENDBRANCH  12  13
ENDBRANCH  11  12
ENDBRANCH   8  11
ENDBRANCH   1   5
BRANCH   2  19
HETATM   19  C   UNL     1      27.931  46.174  55.491  1.00  0.00     0.157 A 
HETATM   20  N   UNL     1      28.212  46.768  56.672  1.00  0.00    -0.168 NA
HETATM   21  N   UNL     1      29.300  46.107  57.110  1.00  0.00    -0.277 N 
HETATM   22  H   UNL     1      29.703  46.378  58.000  1.00  0.00     0.189 HD
HETATM   23  C   UNL     1      29.726  45.105  56.283  1.00  0.00     0.063 A 
HETATM   24  C   UNL     1      28.859  45.132  55.198  1.00  0.00     0.029 A 
HETATM   25  C   UNL     1      30.773  44.187  56.399  1.00  0.00     0.032 A 
HETATM   26  C   UNL     1      29.042  44.198  54.159  1.00  0.00     0.023 A 
HETATM   27  C   UNL     1      30.092  43.269  54.239  1.00  0.00    -0.061 A 
HETATM   28  C   UNL     1      30.933  43.265  55.358  1.00  0.00     0.009 A 
HETATM   29  C   UNL     1      30.261  42.246  53.152  1.00  0.00     0.048 C 
ENDBRANCH   2  19
TORSDOF 6
ENDMDL
MODEL 4
REMARK VINA RESULT:      -8.1      2.683      4.109
REMARK  6 active torsions:
REMARK  status: ('A' for Active; 'I' for Inactive)
REMARK    1  A    between atoms: C_2  and  N_3 
REMARK       I    between atoms: N_3  and  C_4 
REMARK    2  A    between atoms: C_4  and  C_5 
REMARK    3  A    between atoms: C_5  and  O_6 
REMARK    4  A    between atoms: O_6  and  C_7 
REMARK    5  A    between atoms: C_10  and  N_11 
REMARK       I    between atoms: N_11  and  C_12 
REMARK    6  A    between atoms: C_12  and  C_13 
ROOT
HETATM    1  N   UNL     1      26.847  45.477  52.946  1.00  0.00    -0.322 N 
HETATM    2  C   UNL     1      27.954  44.908  53.550  1.00  0.00     0.277 C 
HETATM    3  O   UNL     1      28.612  43.967  53.120  1.00  0.00    -0.266 OA
HETATM    4  H   UNL     1      26.472  46.268  53.463  1.00  0.00     0.169 HD
ENDROOT
BRANCH   1   5
HETATM    5  C   UNL     1      26.147  45.028  51.815  1.00  0.00     0.035 A 
HETATM    6  C   UNL     1      25.139  44.061  51.863  1.00  0.00     0.032 A 
HETATM    7  C   UNL     1      24.425  43.723  50.709  1.00  0.00     0.039 A 
HETATM    8  C   UNL     1      24.717  44.359  49.507  1.00  0.00     0.069 A 
HETATM    9  C   UNL     1      25.753  45.284  49.430  1.00  0.00     0.039 A 
HETATM   10  C   UNL     1      26.461  45.623  50.586  1.00  0.00     0.032 A 
BRANCH   8  11
HETATM   11  O   UNL     1      24.016  44.050  48.374  1.00  0.00    -0.342 OA
BRANCH  11  12
HETATM   12  C   UNL     1      22.646  44.449  48.505  1.00  0.00     0.278 C 
BRANCH  12  13
HETATM   13  C   UNL     1      22.392  45.878  48.021  1.00  0.00     0.241 C 
HETATM   14  N   UNL     1      22.246  46.799  49.039  1.00  0.00    -0.360 N 
HETATM   15  H   UNL     1      22.559  46.496  49.957  1.00  0.00     0.162 HD
HETATM   16  O   UNL     1      22.285  46.160  46.831  1.00  0.00    -0.271 OA
BRANCH  14  17
HETATM   17  C   UNL     1      22.155  48.215  48.755  1.00  0.00     0.118 C 
HETATM   18  C   UNL     1      23.383  48.957  49.242  1.00  0.00     0.026 C 
ENDBRANCH  14  17
ENDBRANCH  12  13
ENDBRANCH  11  12
ENDBRANCH   8  11
ENDBRANCH   1   5
BRANCH   2  19
HETATM   19  C   UNL     1      28.259  45.551  54.842  1.00  0.00     0.157 A 
HETATM   20  N   UNL     1      27.530  46.593  55.302  1.00  0.00    -0.168 NA
HETATM   21  N   UNL     1      28.076  46.859  56.503  1.00  0.00    -0.277 N 
HETATM   22  H   UNL     1      27.687  47.616  57.053  1.00  0.00     0.189 HD
HETATM   23  C   UNL     1      29.107  46.032  56.853  1.00  0.00     0.063 A 
HETATM   24  C   UNL     1      29.267  45.170  55.775  1.00  0.00     0.029 A 
HETATM   25  C   UNL     1      29.891  45.962  58.007  1.00  0.00     0.032 A 
HETATM   26  C   UNL     1      30.269  44.181  55.840  1.00  0.00     0.023 A 
HETATM   27  C   UNL     1      31.082  44.091  56.982  1.00  0.00    -0.061 A 
HETATM   28  C   UNL     1      30.876  44.968  58.052  1.00  0.00     0.009 A 
HETATM   29  C   UNL     1      32.121  43.009  57.068  1.00  0.00     0.048 C 
ENDBRANCH   2  19
TORSDOF 6
ENDMDL
MODEL 5
REMARK VINA RESULT:      -8.1      1.506      1.864
REMARK  6 active torsions:
REMARK  status: ('A' for Active; 'I' for Inactive)
REMARK    1  A    between atoms: C_2  and  N_3 
REMARK       I    between atoms: N_3  and  C_4 
REMARK    2  A    between atoms: C_4  and  C_5 
REMARK    3  A    between atoms: C_5  and  O_6 
REMARK    4  A    between atoms: O_6  and  C_7 
REMARK    5  A    between atoms: C_10  and  N_11 
REMARK       I    between atoms: N_11  and  C_12 
REMARK    6  A    between atoms: C_12  and  C_13 
ROOT
HETATM    1  N   UNL     1      25.449  45.354  50.529  1.00  0.00    -0.322 N 
HETATM    2  C   UNL     1      26.680  44.770  50.286  1.00  0.00     0.277 C 
HETATM    3  O   UNL     1      27.560  45.211  49.555  1.00  0.00    -0.266 OA
HETATM    4  H   UNL     1      24.883  44.831  51.193  1.00  0.00     0.169 HD
ENDROOT
BRANCH   1   5
HETATM    5  C   UNL     1      24.876  46.468  49.897  1.00  0.00     0.035 A 
HETATM    6  C   UNL     1      25.496  47.718  49.820  1.00  0.00     0.032 A 
HETATM    7  C   UNL     1      24.902  48.761  49.102  1.00  0.00     0.039 A 
HETATM    8  C   UNL     1      23.690  48.549  48.453  1.00  0.00     0.069 A 
HETATM    9  C   UNL     1      23.033  47.328  48.564  1.00  0.00     0.039 A 
HETATM   10  C   UNL     1      23.631  46.287  49.280  1.00  0.00     0.032 A 
BRANCH   8  11
HETATM   11  O   UNL     1      23.106  49.555  47.733  1.00  0.00    -0.342 OA
BRANCH  11  12
HETATM   12  C   UNL     1      23.205  50.800  48.435  1.00  0.00     0.278 C 
BRANCH  12  13
HETATM   13  C   UNL     1      22.024  51.052  49.373  1.00  0.00     0.241 C 
HETATM   14  N   UNL     1      20.851  51.383  48.726  1.00  0.00    -0.360 N 
HETATM   15  H   UNL     1      20.827  51.189  47.729  1.00  0.00     0.162 HD
HETATM   16  O   UNL     1      22.134  51.003  50.596  1.00  0.00    -0.271 OA
BRANCH  14  17
HETATM   17  C   UNL     1      19.606  51.502  49.454  1.00  0.00     0.118 C 
HETATM   18  C   UNL     1      18.657  52.467  48.773  1.00  0.00     0.026 C 
ENDBRANCH  14  17
ENDBRANCH  12  13
ENDBRANCH  11  12
ENDBRANCH   8  11
ENDBRANCH   1   5
BRANCH   2  19
HETATM   19  C   UNL     1      26.823  43.486  50.998  1.00  0.00     0.157 A 
HETATM   20  N   UNL     1      26.216  42.362  50.556  1.00  0.00    -0.168 NA
HETATM   21  N   UNL     1      26.620  41.418  51.426  1.00  0.00    -0.277 N 
HETATM   22  H   UNL     1      26.290  40.469  51.296  1.00  0.00     0.189 HD
HETATM   23  C   UNL     1      27.471  41.869  52.397  1.00  0.00     0.063 A 
HETATM   24  C   UNL     1      27.613  43.230  52.157  1.00  0.00     0.029 A 
HETATM   25  C   UNL     1      28.124  41.207  53.440  1.00  0.00     0.032 A 
HETATM   26  C   UNL     1      28.447  43.985  53.004  1.00  0.00     0.023 A 
HETATM   27  C   UNL     1      29.110  43.353  54.069  1.00  0.00    -0.061 A 
HETATM   28  C   UNL     1      28.953  41.976  54.265  1.00  0.00     0.009 A 
HETATM   29  C   UNL     1      30.033  44.150  54.946  1.00  0.00     0.048 C 
ENDBRANCH   2  19
TORSDOF 6
ENDMDL
MODEL 6
REMARK VINA RESULT:      -8.1      5.092      7.120
REMARK  6 active torsions:
REMARK  status: ('A' for Active; 'I' for Inactive)
REMARK    1  A    between atoms: C_2  and  N_3 
REMARK       I    between atoms: N_3  and  C_4 
REMARK    2  A    between atoms: C_4  and  C_5 
REMARK    3  A    between atoms: C_5  and  O_6 
REMARK    4  A    between atoms: O_6  and  C_7 
REMARK    5  A    between atoms: C_10  and  N_11 
REMARK       I    between atoms: N_11  and  C_12 
REMARK    6  A    between atoms: C_12  and  C_13 
ROOT
HETATM    1  N   UNL     1      26.994  45.041  52.796  1.00  0.00    -0.322 N 
HETATM    2  C   UNL     1      28.111  44.577  53.468  1.00  0.00     0.277 C 
HETATM    3  O   UNL     1      28.841  43.658  53.113  1.00  0.00    -0.266 OA
HETATM    4  H   UNL     1      26.552  45.834  53.255  1.00  0.00     0.169 HD
ENDROOT
BRANCH   1   5
HETATM    5  C   UNL     1      26.364  44.487  51.671  1.00  0.00     0.035 A 
HETATM    6  C   UNL     1      26.876  44.577  50.374  1.00  0.00     0.032 A 
HETATM    7  C   UNL     1      26.237  43.929  49.313  1.00  0.00     0.039 A 
HETATM    8  C   UNL     1      25.088  43.183  49.552  1.00  0.00     0.069 A 
HETATM    9  C   UNL     1      24.534  43.126  50.827  1.00  0.00     0.039 A 
HETATM   10  C   UNL     1      25.178  43.772  51.886  1.00  0.00     0.032 A 
BRANCH   8  11
HETATM   11  O   UNL     1      24.462  42.530  48.526  1.00  0.00    -0.342 OA
BRANCH  11  12
HETATM   12  C   UNL     1      24.370  41.128  48.803  1.00  0.00     0.278 C 
BRANCH  12  13
HETATM   13  C   UNL     1      25.673  40.376  48.525  1.00  0.00     0.241 C 
HETATM   14  N   UNL     1      26.065  39.532  49.544  1.00  0.00    -0.360 N 
HETATM   15  H   UNL     1      25.352  39.313  50.234  1.00  0.00     0.162 HD
HETATM   16  O   UNL     1      26.326  40.551  47.499  1.00  0.00    -0.271 OA
BRANCH  14  17
HETATM   17  C   UNL     1      27.187  38.634  49.377  1.00  0.00     0.118 C 
HETATM   18  C   UNL     1      26.763  37.186  49.520  1.00  0.00     0.026 C 
ENDBRANCH  14  17
ENDBRANCH  12  13
ENDBRANCH  11  12
ENDBRANCH   8  11
ENDBRANCH   1   5
BRANCH   2  19
HETATM   19  C   UNL     1      28.329  45.307  54.731  1.00  0.00     0.157 A 
HETATM   20  N   UNL     1      27.529  46.333  55.100  1.00  0.00    -0.168 NA
HETATM   21  N   UNL     1      28.011  46.696  56.303  1.00  0.00    -0.277 N 
HETATM   22  H   UNL     1      27.561  47.461  56.793  1.00  0.00     0.189 HD
HETATM   23  C   UNL     1      29.069  45.947  56.740  1.00  0.00     0.063 A 
HETATM   24  C   UNL     1      29.317  45.035  55.722  1.00  0.00     0.029 A 
HETATM   25  C   UNL     1      29.807  45.985  57.926  1.00  0.00     0.032 A 
HETATM   26  C   UNL     1      30.365  44.107  55.882  1.00  0.00     0.023 A 
HETATM   27  C   UNL     1      31.134  44.126  57.057  1.00  0.00    -0.061 A 
HETATM   28  C   UNL     1      30.840  45.051  58.066  1.00  0.00     0.009 A 
HETATM   29  C   UNL     1      32.224  43.109  57.246  1.00  0.00     0.048 C 
ENDBRANCH   2  19
TORSDOF 6
ENDMDL
MODEL 7
REMARK VINA RESULT:      -8.0      2.634      3.305
REMARK  6 active torsions:
REMARK  status: ('A' for Active; 'I' for Inactive)
REMARK    1  A    between atoms: C_2  and  N_3 
REMARK       I    between atoms: N_3  and  C_4 
REMARK    2  A    between atoms: C_4  and  C_5 
REMARK    3  A    between atoms: C_5  and  O_6 
REMARK    4  A    between atoms: O_6  and  C_7 
REMARK    5  A    between atoms: C_10  and  N_11 
REMARK       I    between atoms: N_11  and  C_12 
REMARK    6  A    between atoms: C_12  and  C_13 
ROOT
HETATM    1  N   UNL     1      26.651  45.979  53.074  1.00  0.00    -0.322 N 
HETATM    2  C   UNL     1      26.590  46.506  54.352  1.00  0.00     0.277 C 
HETATM    3  O   UNL     1      25.694  47.209  54.805  1.00  0.00    -0.266 OA
HETATM    4  H   UNL     1      27.472  45.399  52.920  1.00  0.00     0.169 HD
ENDROOT
BRANCH   1   5
HETATM    5  C   UNL     1      25.809  46.245  51.983  1.00  0.00     0.035 A 
HETATM    6  C   UNL     1      25.889  47.406  51.208  1.00  0.00     0.032 A 
HETATM    7  C   UNL     1      25.073  47.565  50.084  1.00  0.00     0.039 A 
HETATM    8  C   UNL     1      24.180  46.558  49.732  1.00  0.00     0.069 A 
HETATM    9  C   UNL     1      24.050  45.421  50.522  1.00  0.00     0.039 A 
HETATM   10  C   UNL     1      24.870  45.263  51.642  1.00  0.00     0.032 A 
BRANCH   8  11
HETATM   11  O   UNL     1      23.388  46.694  48.625  1.00  0.00    -0.342 OA
BRANCH  11  12
HETATM   12  C   UNL     1      22.846  48.018  48.552  1.00  0.00     0.278 C 
BRANCH  12  13
HETATM   13  C   UNL     1      21.323  48.047  48.683  1.00  0.00     0.241 C 
HETATM   14  N   UNL     1      20.723  46.810  48.561  1.00  0.00    -0.360 N 
HETATM   15  H   UNL     1      21.342  46.009  48.646  1.00  0.00     0.162 HD
HETATM   16  O   UNL     1      20.697  49.092  48.839  1.00  0.00    -0.271 OA
BRANCH  14  17
HETATM   17  C   UNL     1      19.308  46.640  48.813  1.00  0.00     0.118 C 
HETATM   18  C   UNL     1      18.764  45.414  48.107  1.00  0.00     0.026 C 
ENDBRANCH  14  17
ENDBRANCH  12  13
ENDBRANCH  11  12
ENDBRANCH   8  11
ENDBRANCH   1   5
BRANCH   2  19
HETATM   19  C   UNL     1      27.783  46.152  55.144  1.00  0.00     0.157 A 
HETATM   20  N   UNL     1      28.102  46.817  56.277  1.00  0.00    -0.168 NA
HETATM   21  N   UNL     1      29.201  46.181  56.723  1.00  0.00    -0.277 N 
HETATM   22  H   UNL     1      29.631  46.505  57.581  1.00  0.00     0.189 HD
HETATM   23  C   UNL     1      29.599  45.127  55.947  1.00  0.00     0.063 A 
HETATM   24  C   UNL     1      28.699  45.090  54.890  1.00  0.00     0.029 A 
HETATM   25  C   UNL     1      30.648  44.214  56.089  1.00  0.00     0.032 A 
HETATM   26  C   UNL     1      28.849  44.091  53.907  1.00  0.00     0.023 A 
HETATM   27  C   UNL     1      29.899  43.165  54.013  1.00  0.00    -0.061 A 
HETATM   28  C   UNL     1      30.773  43.227  55.104  1.00  0.00     0.009 A 
HETATM   29  C   UNL     1      30.032  42.075  52.987  1.00  0.00     0.048 C 
ENDBRANCH   2  19
TORSDOF 6
ENDMDL
MODEL 8
REMARK VINA RESULT:      -7.9      2.811      3.360
REMARK  6 active torsions:
REMARK  status: ('A' for Active; 'I' for Inactive)
REMARK    1  A    between atoms: C_2  and  N_3 
REMARK       I    between atoms: N_3  and  C_4 
REMARK    2  A    between atoms: C_4  and  C_5 
REMARK    3  A    between atoms: C_5  and  O_6 
REMARK    4  A    between atoms: O_6  and  C_7 
REMARK    5  A    between atoms: C_10  and  N_11 
REMARK       I    between atoms: N_11  and  C_12 
REMARK    6  A    between atoms: C_12  and  C_13 
ROOT
HETATM    1  N   UNL     1      26.201  43.291  51.272  1.00  0.00    -0.322 N 
HETATM    2  C   UNL     1      26.944  44.206  51.997  1.00  0.00     0.277 C 
HETATM    3  O   UNL     1      26.691  45.397  52.137  1.00  0.00    -0.266 OA
HETATM    4  H   UNL     1      26.577  42.347  51.314  1.00  0.00     0.169 HD
ENDROOT
BRANCH   1   5
HETATM    5  C   UNL     1      25.107  43.534  50.427  1.00  0.00     0.035 A 
HETATM    6  C   UNL     1      23.848  42.954  50.604  1.00  0.00     0.032 A 
HETATM    7  C   UNL     1      22.781  43.308  49.771  1.00  0.00     0.039 A 
HETATM    8  C   UNL     1      22.974  44.249  48.765  1.00  0.00     0.069 A 
HETATM    9  C   UNL     1      24.233  44.796  48.541  1.00  0.00     0.039 A 
HETATM   10  C   UNL     1      25.296  44.444  49.378  1.00  0.00     0.032 A 
BRANCH   8  11
HETATM   11  O   UNL     1      21.935  44.617  47.956  1.00  0.00    -0.342 OA
BRANCH  11  12
HETATM   12  C   UNL     1      20.798  45.000  48.737  1.00  0.00     0.278 C 
BRANCH  12  13
HETATM   13  C   UNL     1      20.480  46.493  48.637  1.00  0.00     0.241 C 
HETATM   14  N   UNL     1      19.527  46.928  49.536  1.00  0.00    -0.360 N 
HETATM   15  H   UNL     1      19.327  46.296  50.306  1.00  0.00     0.162 HD
HETATM   16  O   UNL     1      21.002  47.221  47.797  1.00  0.00    -0.271 OA
BRANCH  14  17
HETATM   17  C   UNL     1      19.225  48.335  49.679  1.00  0.00     0.118 C 
HETATM   18  C   UNL     1      18.646  48.641  51.046  1.00  0.00     0.026 C 
ENDBRANCH  14  17
ENDBRANCH  12  13
ENDBRANCH  11  12
ENDBRANCH   8  11
ENDBRANCH   1   5
BRANCH   2  19
HETATM   19  C   UNL     1      28.147  43.586  52.584  1.00  0.00     0.157 A 
HETATM   20  N   UNL     1      28.801  42.582  51.958  1.00  0.00    -0.168 NA
HETATM   21  N   UNL     1      29.846  42.328  52.768  1.00  0.00    -0.277 N 
HETATM   22  H   UNL     1      30.497  41.599  52.501  1.00  0.00     0.189 HD
HETATM   23  C   UNL     1      29.912  43.128  53.875  1.00  0.00     0.063 A 
HETATM   24  C   UNL     1      28.799  43.956  53.797  1.00  0.00     0.029 A 
HETATM   25  C   UNL     1      30.843  43.199  54.915  1.00  0.00     0.032 A 
HETATM   26  C   UNL     1      28.590  44.910  54.812  1.00  0.00     0.023 A 
HETATM   27  C   UNL     1      29.501  45.001  55.877  1.00  0.00    -0.061 A 
HETATM   28  C   UNL     1      30.619  44.159  55.909  1.00  0.00     0.009 A 
HETATM   29  C   UNL     1      29.301  46.047  56.937  1.00  0.00     0.048 C 
ENDBRANCH   2  19
TORSDOF 6
ENDMDL
MODEL 9
REMARK VINA RESULT:      -7.9      3.790      4.170
REMARK  6 active torsions:
REMARK  status: ('A' for Active; 'I' for Inactive)
REMARK    1  A    between atoms: C_2  and  N_3 
REMARK       I    between atoms: N_3  and  C_4 
REMARK    2  A    between atoms: C_4  and  C_5 
REMARK    3  A    between atoms: C_5  and  O_6 
REMARK    4  A    between atoms: O_6  and  C_7 
REMARK    5  A    between atoms: C_10  and  N_11 
REMARK       I    between atoms: N_11  and  C_12 
REMARK    6  A    between atoms: C_12  and  C_13 
ROOT
HETATM    1  N   UNL     1      25.884  43.005  51.407  1.00  0.00    -0.322 N 
HETATM    2  C   UNL     1      26.839  43.941  51.761  1.00  0.00     0.277 C 
HETATM    3  O   UNL     1      26.783  45.148  51.554  1.00  0.00    -0.266 OA
HETATM    4  H   UNL     1      26.120  42.061  51.702  1.00  0.00     0.169 HD
ENDROOT
BRANCH   1   5
HETATM    5  C   UNL     1      24.739  43.187  50.615  1.00  0.00     0.035 A 
HETATM    6  C   UNL     1      23.907  44.307  50.704  1.00  0.00     0.032 A 
HETATM    7  C   UNL     1      22.830  44.461  49.825  1.00  0.00     0.039 A 
HETATM    8  C   UNL     1      22.590  43.496  48.852  1.00  0.00     0.069 A 
HETATM    9  C   UNL     1      23.376  42.350  48.784  1.00  0.00     0.039 A 
HETATM   10  C   UNL     1      24.454  42.201  49.661  1.00  0.00     0.032 A 
BRANCH   8  11
HETATM   11  O   UNL     1      21.552  43.643  47.975  1.00  0.00    -0.342 OA
BRANCH  11  12
HETATM   12  C   UNL     1      20.910  44.910  48.161  1.00  0.00     0.278 C 
BRANCH  12  13
HETATM   13  C   UNL     1      19.406  44.864  47.886  1.00  0.00     0.241 C 
HETATM   14  N   UNL     1      18.697  45.901  48.458  1.00  0.00    -0.360 N 
HETATM   15  H   UNL     1      19.250  46.691  48.778  1.00  0.00     0.162 HD
HETATM   16  O   UNL     1      18.882  43.956  47.246  1.00  0.00    -0.271 OA
BRANCH  14  17
HETATM   17  C   UNL     1      17.292  46.093  48.168  1.00  0.00     0.118 C 
HETATM   18  C   UNL     1      16.724  47.268  48.938  1.00  0.00     0.026 C 
ENDBRANCH  14  17
ENDBRANCH  12  13
ENDBRANCH  11  12
ENDBRANCH   8  11
ENDBRANCH   1   5
BRANCH   2  19
HETATM   19  C   UNL     1      28.003  43.311  52.412  1.00  0.00     0.157 A 
HETATM   20  N   UNL     1      28.598  42.216  51.887  1.00  0.00    -0.168 NA
HETATM   21  N   UNL     1      29.626  41.981  52.725  1.00  0.00    -0.277 N 
HETATM   22  H   UNL     1      30.234  41.193  52.532  1.00  0.00     0.189 HD
HETATM   23  C   UNL     1      29.737  42.876  53.752  1.00  0.00     0.063 A 
HETATM   24  C   UNL     1      28.674  43.756  53.588  1.00  0.00     0.029 A 
HETATM   25  C   UNL     1      30.669  42.992  54.786  1.00  0.00     0.032 A 
HETATM   26  C   UNL     1      28.520  44.812  54.507  1.00  0.00     0.023 A 
HETATM   27  C   UNL     1      29.434  44.951  55.565  1.00  0.00    -0.061 A 
HETATM   28  C   UNL     1      30.500  44.052  55.684  1.00  0.00     0.009 A 
HETATM   29  C   UNL     1      29.293  46.102  56.520  1.00  0.00     0.048 C 
ENDBRANCH   2  19
TORSDOF 6
ENDMDL
MODEL 10
REMARK VINA RESULT:      -7.7      2.478      2.797
REMARK  6 active torsions:
REMARK  status: ('A' for Active; 'I' for Inactive)
REMARK    1  A    between atoms: C_2  and  N_3 
REMARK       I    between atoms: N_3  and  C_4 
REMARK    2  A    between atoms: C_4  and  C_5 
REMARK    3  A    between atoms: C_5  and  O_6 
REMARK    4  A    between atoms: O_6  and  C_7 
REMARK    5  A    between atoms: C_10  and  N_11 
REMARK       I    between atoms: N_11  and  C_12 
REMARK    6  A    between atoms: C_12  and  C_13 
ROOT
HETATM    1  N   UNL     1      25.343  45.023  50.513  1.00  0.00    -0.322 N 
HETATM    2  C   UNL     1      26.659  44.834  50.130  1.00  0.00     0.277 C 
HETATM    3  O   UNL     1      27.290  45.524  49.336  1.00  0.00    -0.266 OA
HETATM    4  H   UNL     1      25.028  44.349  51.207  1.00  0.00     0.169 HD
ENDROOT
BRANCH   1   5
HETATM    5  C   UNL     1      24.404  45.923  49.985  1.00  0.00     0.035 A 
HETATM    6  C   UNL     1      24.445  47.302  50.206  1.00  0.00     0.032 A 
HETATM    7  C   UNL     1      23.524  48.148  49.578  1.00  0.00     0.039 A 
HETATM    8  C   UNL     1      22.567  47.612  48.723  1.00  0.00     0.069 A 
HETATM    9  C   UNL     1      22.478  46.237  48.534  1.00  0.00     0.039 A 
HETATM   10  C   UNL     1      23.402  45.395  49.159  1.00  0.00     0.032 A 
BRANCH   8  11
HETATM   11  O   UNL     1      21.672  48.429  48.090  1.00  0.00    -0.342 OA
BRANCH  11  12
HETATM   12  C   UNL     1      20.872  49.137  49.045  1.00  0.00     0.278 C 
BRANCH  12  13
HETATM   13  C   UNL     1      19.570  48.412  49.388  1.00  0.00     0.241 C 
HETATM   14  N   UNL     1      18.955  47.815  48.306  1.00  0.00    -0.360 N 
HETATM   15  H   UNL     1      19.531  47.707  47.476  1.00  0.00     0.162 HD
HETATM   16  O   UNL     1      19.101  48.405  50.523  1.00  0.00    -0.271 OA
BRANCH  14  17
HETATM   17  C   UNL     1      17.801  46.961  48.482  1.00  0.00     0.118 C 
HETATM   18  C   UNL     1      16.519  47.681  48.115  1.00  0.00     0.026 C 
ENDBRANCH  14  17
ENDBRANCH  12  13
ENDBRANCH  11  12
ENDBRANCH   8  11
ENDBRANCH   1   5
BRANCH   2  19
HETATM   19  C   UNL     1      27.247  43.644  50.773  1.00  0.00     0.157 A 
HETATM   20  N   UNL     1      27.285  42.448  50.143  1.00  0.00    -0.168 NA
HETATM   21  N   UNL     1      27.926  41.649  51.016  1.00  0.00    -0.277 N 
HETATM   22  H   UNL     1      28.081  40.680  50.760  1.00  0.00     0.189 HD
HETATM   23  C   UNL     1      28.321  42.270  52.169  1.00  0.00     0.063 A 
HETATM   24  C   UNL     1      27.875  43.580  52.051  1.00  0.00     0.029 A 
HETATM   25  C   UNL     1      29.029  41.802  53.280  1.00  0.00     0.032 A 
HETATM   26  C   UNL     1      28.139  44.483  53.099  1.00  0.00     0.023 A 
HETATM   27  C   UNL     1      28.839  44.044  54.235  1.00  0.00    -0.061 A 
HETATM   28  C   UNL     1      29.286  42.719  54.306  1.00  0.00     0.009 A 
HETATM   29  C   UNL     1      29.157  45.018  55.333  1.00  0.00     0.048 C 
ENDBRANCH   2  19
TORSDOF 6
ENDMDL
