MODEL 1
REMARK VINA RESULT:      -8.9      0.000      0.000
REMARK  6 active torsions:
REMARK  status: ('A' for Active; 'I' for Inactive)
REMARK    1  A    between atoms: C_2  and  O_3 
REMARK    2  A    between atoms: O_3  and  C_4 
REMARK    3  A    between atoms: C_6  and  C_7 
REMARK       I    between atoms: C_7  and  N_8 
REMARK    4  A    between atoms: C_10  and  N_11 
REMARK       I    between atoms: N_11  and  C_12 
REMARK    5  A    between atoms: C_12  and  C_13 
REMARK    6  A    between atoms: N_15  and  C_16 
ROOT
HETATM    1  N   UNL     1      26.170  46.439  50.594  1.00  0.00    -0.319 N 
HETATM    2  C   UNL     1      26.219  45.082  50.308  1.00  0.00     0.295 C 
HETATM    3  O   UNL     1      25.714  44.548  49.326  1.00  0.00    -0.264 OA
HETATM    4  H   UNL     1      26.764  46.731  51.371  1.00  0.00     0.169 HD
ENDROOT
BRANCH   1   5
HETATM    5  C   UNL     1      25.440  47.441  49.914  1.00  0.00     0.051 A 
HETATM    6  C   UNL     1      26.114  48.459  49.209  1.00  0.00     0.061 A 
HETATM    7  C   UNL     1      25.396  49.504  48.606  1.00  0.00     0.056 A 
HETATM    8  C   UNL     1      24.004  49.546  48.673  1.00  0.00     0.069 A 
HETATM    9  C   UNL     1      23.331  48.538  49.357  1.00  0.00     0.039 A 
HETATM   10  C   UNL     1      24.043  47.497  49.969  1.00  0.00     0.033 A 
BRANCH   6  11
HETATM   11  C   UNL     1      27.586  48.476  49.015  1.00  0.00     0.251 C 
HETATM   12  N   UNL     1      28.214  49.681  49.181  1.00  0.00    -0.366 N 
HETATM   13  H   UNL     1      27.759  50.434  49.682  1.00  0.00     0.159 HD
HETATM   14  H   UNL     1      29.226  49.646  49.224  1.00  0.00     0.159 HD
HETATM   15  O   UNL     1      28.223  47.460  48.774  1.00  0.00    -0.268 OA
ENDBRANCH   6  11
BRANCH   8  16
HETATM   16  O   UNL     1      23.426  50.603  48.029  1.00  0.00    -0.351 OA
BRANCH  16  17
HETATM   17  C   UNL     1      22.061  50.459  47.636  1.00  0.00     0.171 C 
HETATM   18  C   UNL     1      21.211  51.314  48.558  1.00  0.00     0.034 C 
ENDBRANCH  16  17
ENDBRANCH   8  16
ENDBRANCH   1   5
BRANCH   2  19
HETATM   19  C   UNL     1      27.007  44.317  51.302  1.00  0.00     0.239 A 
HETATM   20  N   UNL     1      27.846  44.905  52.180  1.00  0.00    -0.140 NA
HETATM   21  N   UNL     1      28.268  43.855  52.935  1.00  0.00    -0.225 N 
HETATM   22  C   UNL     1      27.760  42.692  52.416  1.00  0.00     0.237 A 
HETATM   23  N   UNL     1      26.960  42.946  51.410  1.00  0.00    -0.216 NA
BRANCH  21  24
HETATM   24  C   UNL     1      29.085  44.028  54.083  1.00  0.00     0.059 A 
HETATM   25  C   UNL     1      28.901  45.155  54.897  1.00  0.00     0.031 A 
HETATM   26  C   UNL     1      29.669  45.318  56.053  1.00  0.00     0.002 A 
HETATM   27  C   UNL     1      30.627  44.366  56.396  1.00  0.00     0.000 A 
HETATM   28  C   UNL     1      30.821  43.248  55.587  1.00  0.00     0.002 A 
HETATM   29  C   UNL     1      30.052  43.074  54.433  1.00  0.00     0.031 A 
ENDBRANCH  21  24
ENDBRANCH   2  19
TORSDOF 6
ENDMDL
MODEL 2
REMARK VINA RESULT:      -8.7      2.727      8.643
REMARK  6 active torsions:
REMARK  status: ('A' for Active; 'I' for Inactive)
REMARK    1  A    between atoms: C_2  and  O_3 
REMARK    2  A    between atoms: O_3  and  C_4 
REMARK    3  A    between atoms: C_6  and  C_7 
REMARK       I    between atoms: C_7  and  N_8 
REMARK    4  A    between atoms: C_10  and  N_11 
REMARK       I    between atoms: N_11  and  C_12 
REMARK    5  A    between atoms: C_12  and  C_13 
REMARK    6  A    between atoms: N_15  and  C_16 
ROOT
HETATM    1  N   UNL     1      26.503  45.070  51.904  1.00  0.00    -0.319 N 
HETATM    2  C   UNL     1      25.199  44.622  51.751  1.00  0.00     0.295 C 
HETATM    3  O   UNL     1      24.675  43.731  52.412  1.00  0.00    -0.264 OA
HETATM    4  H   UNL     1      26.729  45.912  51.374  1.00  0.00     0.169 HD
ENDROOT
BRANCH   1   5
HETATM    5  C   UNL     1      27.514  44.526  52.731  1.00  0.00     0.051 A 
HETATM    6  C   UNL     1      27.814  45.119  53.974  1.00  0.00     0.061 A 
HETATM    7  C   UNL     1      28.874  44.635  54.757  1.00  0.00     0.056 A 
HETATM    8  C   UNL     1      29.636  43.548  54.334  1.00  0.00     0.069 A 
HETATM    9  C   UNL     1      29.339  42.950  53.113  1.00  0.00     0.039 A 
HETATM   10  C   UNL     1      28.287  43.435  52.322  1.00  0.00     0.033 A 
BRANCH   6  11
HETATM   11  C   UNL     1      27.024  46.235  54.554  1.00  0.00     0.251 C 
HETATM   12  N   UNL     1      27.720  47.355  54.921  1.00  0.00    -0.366 N 
HETATM   13  H   UNL     1      28.650  47.526  54.557  1.00  0.00     0.159 HD
HETATM   14  H   UNL     1      27.158  48.168  55.145  1.00  0.00     0.159 HD
HETATM   15  O   UNL     1      25.806  46.188  54.653  1.00  0.00    -0.268 OA
ENDBRANCH   6  11
BRANCH   8  16
HETATM   16  O   UNL     1      30.625  43.164  55.196  1.00  0.00    -0.351 OA
BRANCH  16  17
HETATM   17  C   UNL     1      31.012  44.102  56.200  1.00  0.00     0.171 C 
HETATM   18  C   UNL     1      31.859  43.372  57.227  1.00  0.00     0.034 C 
ENDBRANCH  16  17
ENDBRANCH   8  16
ENDBRANCH   1   5
BRANCH   2  19
HETATM   19  C   UNL     1      24.454  45.376  50.716  1.00  0.00     0.239 A 
HETATM   20  N   UNL     1      24.488  46.722  50.625  1.00  0.00    -0.140 NA
HETATM   21  N   UNL     1      23.754  46.962  49.506  1.00  0.00    -0.225 N 
HETATM   22  C   UNL     1      23.229  45.781  49.048  1.00  0.00     0.237 A 
HETATM   23  N   UNL     1      23.658  44.775  49.769  1.00  0.00    -0.216 NA
BRANCH  21  24
HETATM   24  C   UNL     1      23.625  48.262  48.950  1.00  0.00     0.059 A 
HETATM   25  C   UNL     1      24.762  49.072  48.817  1.00  0.00     0.031 A 
HETATM   26  C   UNL     1      24.658  50.337  48.233  1.00  0.00     0.002 A 
HETATM   27  C   UNL     1      23.422  50.802  47.788  1.00  0.00     0.000 A 
HETATM   28  C   UNL     1      22.286  50.006  47.926  1.00  0.00     0.002 A 
HETATM   29  C   UNL     1      22.383  48.737  48.502  1.00  0.00     0.031 A 
ENDBRANCH  21  24
ENDBRANCH   2  19
TORSDOF 6
ENDMDL
MODEL 3
REMARK VINA RESULT:      -8.5      2.588      9.152
REMARK  6 active torsions:
REMARK  status: ('A' for Active; 'I' for Inactive)
REMARK    1  A    between atoms: C_2  and  O_3 
REMARK    2  A    between atoms: O_3  and  C_4 
REMARK    3  A    between atoms: C_6  and  C_7 
REMARK       I    between atoms: C_7  and  N_8 
REMARK    4  A    between atoms: C_10  and  N_11 
REMARK       I    between atoms: N_11  and  C_12 
REMARK    5  A    between atoms: C_12  and  C_13 
REMARK    6  A    between atoms: N_15  and  C_16 
ROOT
HETATM    1  N   UNL     1      24.632  47.428  50.496  1.00  0.00    -0.319 N 
HETATM    2  C   UNL     1      25.060  48.314  49.517  1.00  0.00     0.295 C 
HETATM    3  O   UNL     1      26.219  48.434  49.131  1.00  0.00    -0.264 OA
HETATM    4  H   UNL     1      23.618  47.357  50.590  1.00  0.00     0.169 HD
ENDROOT
BRANCH   1   5
HETATM    5  C   UNL     1      25.425  46.600  51.322  1.00  0.00     0.051 A 
HETATM    6  C   UNL     1      25.696  45.269  50.949  1.00  0.00     0.061 A 
HETATM    7  C   UNL     1      26.411  44.418  51.808  1.00  0.00     0.056 A 
HETATM    8  C   UNL     1      26.885  44.878  53.036  1.00  0.00     0.069 A 
HETATM    9  C   UNL     1      26.631  46.194  53.407  1.00  0.00     0.039 A 
HETATM   10  C   UNL     1      25.910  47.046  52.557  1.00  0.00     0.033 A 
BRANCH   6  11
HETATM   11  C   UNL     1      25.301  44.696  49.636  1.00  0.00     0.251 C 
HETATM   12  N   UNL     1      26.190  43.838  49.047  1.00  0.00    -0.366 N 
HETATM   13  H   UNL     1      26.921  43.399  49.593  1.00  0.00     0.159 HD
HETATM   14  H   UNL     1      25.837  43.320  48.251  1.00  0.00     0.159 HD
HETATM   15  O   UNL     1      24.215  44.930  49.125  1.00  0.00    -0.268 OA
ENDBRANCH   6  11
BRANCH   8  16
HETATM   16  O   UNL     1      27.581  43.957  53.768  1.00  0.00    -0.351 OA
BRANCH  16  17
HETATM   17  C   UNL     1      28.773  44.405  54.413  1.00  0.00     0.171 C 
HETATM   18  C   UNL     1      29.717  43.223  54.534  1.00  0.00     0.034 C 
ENDBRANCH  16  17
ENDBRANCH   8  16
ENDBRANCH   1   5
BRANCH   2  19
HETATM   19  C   UNL     1      23.948  49.092  48.924  1.00  0.00     0.239 A 
HETATM   20  N   UNL     1      22.740  49.208  49.514  1.00  0.00    -0.140 NA
HETATM   21  N   UNL     1      22.086  50.063  48.683  1.00  0.00    -0.225 N 
HETATM   22  C   UNL     1      22.876  50.330  47.595  1.00  0.00     0.237 A 
HETATM   23  N   UNL     1      24.046  49.754  47.722  1.00  0.00    -0.216 NA
BRANCH  21  24
HETATM   24  C   UNL     1      20.797  50.575  48.986  1.00  0.00     0.059 A 
HETATM   25  C   UNL     1      19.985  49.900  49.909  1.00  0.00     0.031 A 
HETATM   26  C   UNL     1      18.731  50.413  50.248  1.00  0.00     0.002 A 
HETATM   27  C   UNL     1      18.278  51.595  49.663  1.00  0.00     0.000 A 
HETATM   28  C   UNL     1      19.075  52.266  48.738  1.00  0.00     0.002 A 
HETATM   29  C   UNL     1      20.334  51.762  48.399  1.00  0.00     0.031 A 
ENDBRANCH  21  24
ENDBRANCH   2  19
TORSDOF 6
ENDMDL
MODEL 4
REMARK VINA RESULT:      -8.5      2.562      8.999
REMARK  6 active torsions:
REMARK  status: ('A' for Active; 'I' for Inactive)
REMARK    1  A    between atoms: C_2  and  O_3 
REMARK    2  A    between atoms: O_3  and  C_4 
REMARK    3  A    between atoms: C_6  and  C_7 
REMARK       I    between atoms: C_7  and  N_8 
REMARK    4  A    between atoms: C_10  and  N_11 
REMARK       I    between atoms: N_11  and  C_12 
REMARK    5  A    between atoms: C_12  and  C_13 
REMARK    6  A    between atoms: N_15  and  C_16 
ROOT
HETATM    1  N   UNL     1      25.333  46.632  51.923  1.00  0.00    -0.319 N 
HETATM    2  C   UNL     1      25.492  47.393  50.774  1.00  0.00     0.295 C 
HETATM    3  O   UNL     1      26.546  47.900  50.402  1.00  0.00    -0.264 OA
HETATM    4  H   UNL     1      24.427  46.169  52.003  1.00  0.00     0.169 HD
ENDROOT
BRANCH   1   5
HETATM    5  C   UNL     1      26.281  46.397  52.945  1.00  0.00     0.051 A 
HETATM    6  C   UNL     1      26.968  45.169  53.012  1.00  0.00     0.061 A 
HETATM    7  C   UNL     1      27.846  44.899  54.074  1.00  0.00     0.056 A 
HETATM    8  C   UNL     1      28.073  45.847  55.071  1.00  0.00     0.069 A 
HETATM    9  C   UNL     1      27.407  47.066  55.006  1.00  0.00     0.039 A 
HETATM   10  C   UNL     1      26.522  47.338  53.952  1.00  0.00     0.033 A 
BRANCH   6  11
HETATM   11  C   UNL     1      26.856  44.117  51.969  1.00  0.00     0.251 C 
HETATM   12  N   UNL     1      26.285  42.932  52.349  1.00  0.00    -0.366 N 
HETATM   13  H   UNL     1      25.718  42.879  53.187  1.00  0.00     0.159 HD
HETATM   14  H   UNL     1      26.053  42.296  51.596  1.00  0.00     0.159 HD
HETATM   15  O   UNL     1      27.204  44.308  50.812  1.00  0.00    -0.268 OA
ENDBRANCH   6  11
BRANCH   8  16
HETATM   16  O   UNL     1      28.963  45.468  56.037  1.00  0.00    -0.351 OA
BRANCH  16  17
HETATM   17  C   UNL     1      28.882  46.138  57.295  1.00  0.00     0.171 C 
HETATM   18  C   UNL     1      30.142  45.822  58.080  1.00  0.00     0.034 C 
ENDBRANCH  16  17
ENDBRANCH   8  16
ENDBRANCH   1   5
BRANCH   2  19
HETATM   19  C   UNL     1      24.245  47.501  49.982  1.00  0.00     0.239 A 
HETATM   20  N   UNL     1      23.496  48.622  49.946  1.00  0.00    -0.140 NA
HETATM   21  N   UNL     1      22.528  48.303  49.046  1.00  0.00    -0.225 N 
HETATM   22  C   UNL     1      22.671  46.991  48.674  1.00  0.00     0.237 A 
HETATM   23  N   UNL     1      23.738  46.469  49.226  1.00  0.00    -0.216 NA
BRANCH  21  24
HETATM   24  C   UNL     1      21.571  49.250  48.595  1.00  0.00     0.059 A 
HETATM   25  C   UNL     1      21.600  50.556  49.104  1.00  0.00     0.031 A 
HETATM   26  C   UNL     1      20.691  51.510  48.639  1.00  0.00     0.002 A 
HETATM   27  C   UNL     1      19.747  51.165  47.674  1.00  0.00     0.000 A 
HETATM   28  C   UNL     1      19.707  49.866  47.171  1.00  0.00     0.002 A 
HETATM   29  C   UNL     1      20.617  48.908  47.625  1.00  0.00     0.031 A 
ENDBRANCH  21  24
ENDBRANCH   2  19
TORSDOF 6
ENDMDL
MODEL 5
REMARK VINA RESULT:      -8.4      3.220      5.922
REMARK  6 active torsions:
REMARK  status: ('A' for Active; 'I' for Inactive)
REMARK    1  A    between atoms: C_2  and  O_3 
REMARK    2  A    between atoms: O_3  and  C_4 
REMARK    3  A    between atoms: C_6  and  C_7 
REMARK       I    between atoms: C_7  and  N_8 
REMARK    4  A    between atoms: C_10  and  N_11 
REMARK       I    between atoms: N_11  and  C_12 
REMARK    5  A    between atoms: C_12  and  C_13 
REMARK    6  A    between atoms: N_15  and  C_16 
ROOT
HETATM    1  N   UNL     1      22.345  49.638  49.370  1.00  0.00    -0.319 N 
HETATM    2  C   UNL     1      23.441  49.464  48.538  1.00  0.00     0.295 C 
HETATM    3  O   UNL     1      23.502  49.822  47.365  1.00  0.00    -0.264 OA
HETATM    4  H   UNL     1      22.517  49.413  50.351  1.00  0.00     0.169 HD
ENDROOT
BRANCH   1   5
HETATM    5  C   UNL     1      21.063  50.124  49.025  1.00  0.00     0.051 A 
HETATM    6  C   UNL     1      20.010  49.227  48.754  1.00  0.00     0.061 A 
HETATM    7  C   UNL     1      18.760  49.703  48.326  1.00  0.00     0.056 A 
HETATM    8  C   UNL     1      18.528  51.071  48.181  1.00  0.00     0.069 A 
HETATM    9  C   UNL     1      19.560  51.963  48.458  1.00  0.00     0.039 A 
HETATM   10  C   UNL     1      20.813  51.492  48.877  1.00  0.00     0.033 A 
BRANCH   6  11
HETATM   11  C   UNL     1      20.124  47.758  48.941  1.00  0.00     0.251 C 
HETATM   12  N   UNL     1      19.266  47.185  49.840  1.00  0.00    -0.366 N 
HETATM   13  H   UNL     1      18.427  47.671  50.134  1.00  0.00     0.159 HD
HETATM   14  H   UNL     1      19.230  46.172  49.828  1.00  0.00     0.159 HD
HETATM   15  O   UNL     1      20.904  47.078  48.290  1.00  0.00    -0.268 OA
ENDBRANCH   6  11
BRANCH   8  16
HETATM   16  O   UNL     1      17.266  51.403  47.778  1.00  0.00    -0.351 OA
BRANCH  16  17
HETATM   17  C   UNL     1      16.190  51.043  48.644  1.00  0.00     0.171 C 
HETATM   18  C   UNL     1      16.016  52.151  49.667  1.00  0.00     0.034 C 
ENDBRANCH  16  17
ENDBRANCH   8  16
ENDBRANCH   1   5
BRANCH   2  19
HETATM   19  C   UNL     1      24.589  48.832  49.228  1.00  0.00     0.239 A 
HETATM   20  N   UNL     1      24.448  48.063  50.327  1.00  0.00    -0.140 NA
HETATM   21  N   UNL     1      25.719  47.635  50.554  1.00  0.00    -0.225 N 
HETATM   22  C   UNL     1      26.567  48.243  49.664  1.00  0.00     0.237 A 
HETATM   23  N   UNL     1      25.894  48.982  48.817  1.00  0.00    -0.216 NA
BRANCH  21  24
HETATM   24  C   UNL     1      26.029  46.681  51.559  1.00  0.00     0.059 A 
HETATM   25  C   UNL     1      26.383  45.376  51.187  1.00  0.00     0.031 A 
HETATM   26  C   UNL     1      26.730  44.438  52.162  1.00  0.00     0.002 A 
HETATM   27  C   UNL     1      26.718  44.794  53.510  1.00  0.00     0.000 A 
HETATM   28  C   UNL     1      26.359  46.086  53.887  1.00  0.00     0.002 A 
HETATM   29  C   UNL     1      26.016  47.032  52.917  1.00  0.00     0.031 A 
ENDBRANCH  21  24
ENDBRANCH   2  19
TORSDOF 6
ENDMDL
MODEL 6
REMARK VINA RESULT:      -8.2      2.808      9.248
REMARK  6 active torsions:
REMARK  status: ('A' for Active; 'I' for Inactive)
REMARK    1  A    between atoms: C_2  and  O_3 
REMARK    2  A    between atoms: O_3  and  C_4 
REMARK    3  A    between atoms: C_6  and  C_7 
REMARK       I    between atoms: C_7  and  N_8 
REMARK    4  A    between atoms: C_10  and  N_11 
REMARK       I    between atoms: N_11  and  C_12 
REMARK    5  A    between atoms: C_12  and  C_13 
REMARK    6  A    between atoms: N_15  and  C_16 
ROOT
HETATM    1  N   UNL     1      24.862  46.969  50.325  1.00  0.00    -0.319 N 
HETATM    2  C   UNL     1      23.723  46.968  49.533  1.00  0.00     0.295 C 
HETATM    3  O   UNL     1      23.192  45.968  49.059  1.00  0.00    -0.264 OA
HETATM    4  H   UNL     1      25.082  47.870  50.751  1.00  0.00     0.169 HD
ENDROOT
BRANCH   1   5
HETATM    5  C   UNL     1      25.702  45.875  50.636  1.00  0.00     0.051 A 
HETATM    6  C   UNL     1      26.169  45.685  51.952  1.00  0.00     0.061 A 
HETATM    7  C   UNL     1      27.073  44.652  52.246  1.00  0.00     0.056 A 
HETATM    8  C   UNL     1      27.509  43.780  51.250  1.00  0.00     0.069 A 
HETATM    9  C   UNL     1      27.044  43.953  49.950  1.00  0.00     0.039 A 
HETATM   10  C   UNL     1      26.149  44.990  49.648  1.00  0.00     0.033 A 
BRANCH   6  11
HETATM   11  C   UNL     1      25.716  46.509  53.102  1.00  0.00     0.251 C 
HETATM   12  N   UNL     1      25.685  45.894  54.324  1.00  0.00    -0.366 N 
HETATM   13  H   UNL     1      26.206  45.041  54.485  1.00  0.00     0.159 HD
HETATM   14  H   UNL     1      25.550  46.507  55.120  1.00  0.00     0.159 HD
HETATM   15  O   UNL     1      25.436  47.694  52.983  1.00  0.00    -0.268 OA
ENDBRANCH   6  11
BRANCH   8  16
HETATM   16  O   UNL     1      28.371  42.806  51.670  1.00  0.00    -0.351 OA
BRANCH  16  17
HETATM   17  C   UNL     1      28.683  42.771  53.063  1.00  0.00     0.171 C 
HETATM   18  C   UNL     1      30.191  42.846  53.212  1.00  0.00     0.034 C 
ENDBRANCH  16  17
ENDBRANCH   8  16
ENDBRANCH   1   5
BRANCH   2  19
HETATM   19  C   UNL     1      23.157  48.324  49.344  1.00  0.00     0.239 A 
HETATM   20  N   UNL     1      21.830  48.561  49.291  1.00  0.00    -0.140 NA
HETATM   21  N   UNL     1      21.774  49.917  49.203  1.00  0.00    -0.225 N 
HETATM   22  C   UNL     1      23.047  50.416  49.097  1.00  0.00     0.237 A 
HETATM   23  N   UNL     1      23.929  49.452  49.197  1.00  0.00    -0.216 NA
BRANCH  21  24
HETATM   24  C   UNL     1      20.547  50.629  49.250  1.00  0.00     0.059 A 
HETATM   25  C   UNL     1      20.373  51.758  48.436  1.00  0.00     0.031 A 
HETATM   26  C   UNL     1      19.157  52.445  48.441  1.00  0.00     0.002 A 
HETATM   27  C   UNL     1      18.115  52.017  49.261  1.00  0.00     0.000 A 
HETATM   28  C   UNL     1      18.284  50.902  50.080  1.00  0.00     0.002 A 
HETATM   29  C   UNL     1      19.495  50.205  50.076  1.00  0.00     0.031 A 
ENDBRANCH  21  24
ENDBRANCH   2  19
TORSDOF 6
ENDMDL
MODEL 7
REMARK VINA RESULT:      -8.2      4.391      5.454
REMARK  6 active torsions:
REMARK  status: ('A' for Active; 'I' for Inactive)
REMARK    1  A    between atoms: C_2  and  O_3 
REMARK    2  A    between atoms: O_3  and  C_4 
REMARK    3  A    between atoms: C_6  and  C_7 
REMARK       I    between atoms: C_7  and  N_8 
REMARK    4  A    between atoms: C_10  and  N_11 
REMARK       I    between atoms: N_11  and  C_12 
REMARK    5  A    between atoms: C_12  and  C_13 
REMARK    6  A    between atoms: N_15  and  C_16 
ROOT
HETATM    1  N   UNL     1      26.496  42.792  51.757  1.00  0.00    -0.319 N 
HETATM    2  C   UNL     1      27.547  43.677  51.562  1.00  0.00     0.295 C 
HETATM    3  O   UNL     1      27.608  44.517  50.669  1.00  0.00    -0.264 OA
HETATM    4  H   UNL     1      26.541  42.264  52.628  1.00  0.00     0.169 HD
ENDROOT
BRANCH   1   5
HETATM    5  C   UNL     1      25.374  42.584  50.922  1.00  0.00     0.051 A 
HETATM    6  C   UNL     1      25.373  41.540  49.976  1.00  0.00     0.061 A 
HETATM    7  C   UNL     1      24.297  41.383  49.087  1.00  0.00     0.056 A 
HETATM    8  C   UNL     1      23.200  42.242  49.135  1.00  0.00     0.069 A 
HETATM    9  C   UNL     1      23.188  43.269  50.074  1.00  0.00     0.039 A 
HETATM   10  C   UNL     1      24.264  43.435  50.959  1.00  0.00     0.033 A 
BRANCH   6  11
HETATM   11  C   UNL     1      26.455  40.526  49.883  1.00  0.00     0.251 C 
HETATM   12  N   UNL     1      26.164  39.271  50.346  1.00  0.00    -0.366 N 
HETATM   13  H   UNL     1      25.202  38.978  50.469  1.00  0.00     0.159 HD
HETATM   14  H   UNL     1      26.838  38.551  50.116  1.00  0.00     0.159 HD
HETATM   15  O   UNL     1      27.537  40.774  49.369  1.00  0.00    -0.268 OA
ENDBRANCH   6  11
BRANCH   8  16
HETATM   16  O   UNL     1      22.213  41.970  48.230  1.00  0.00    -0.351 OA
BRANCH  16  17
HETATM   17  C   UNL     1      22.619  41.684  46.892  1.00  0.00     0.171 C 
HETATM   18  C   UNL     1      22.690  42.994  46.128  1.00  0.00     0.034 C 
ENDBRANCH  16  17
ENDBRANCH   8  16
ENDBRANCH   1   5
BRANCH   2  19
HETATM   19  C   UNL     1      28.602  43.547  52.594  1.00  0.00     0.239 A 
HETATM   20  N   UNL     1      28.686  44.368  53.661  1.00  0.00    -0.140 NA
HETATM   21  N   UNL     1      29.720  43.833  54.365  1.00  0.00    -0.225 N 
HETATM   22  C   UNL     1      30.271  42.803  53.647  1.00  0.00     0.237 A 
HETATM   23  N   UNL     1      29.589  42.590  52.549  1.00  0.00    -0.216 NA
BRANCH  21  24
HETATM   24  C   UNL     1      30.088  44.310  55.650  1.00  0.00     0.059 A 
HETATM   25  C   UNL     1      29.448  45.442  56.176  1.00  0.00     0.031 A 
HETATM   26  C   UNL     1      29.771  45.899  57.456  1.00  0.00     0.002 A 
HETATM   27  C   UNL     1      30.736  45.237  58.212  1.00  0.00     0.000 A 
HETATM   28  C   UNL     1      31.383  44.118  57.692  1.00  0.00     0.002 A 
HETATM   29  C   UNL     1      31.061  43.650  56.415  1.00  0.00     0.031 A 
ENDBRANCH  21  24
ENDBRANCH   2  19
TORSDOF 6
ENDMDL
MODEL 8
REMARK VINA RESULT:      -8.0      2.291      8.938
REMARK  6 active torsions:
REMARK  status: ('A' for Active; 'I' for Inactive)
REMARK    1  A    between atoms: C_2  and  O_3 
REMARK    2  A    between atoms: O_3  and  C_4 
REMARK    3  A    between atoms: C_6  and  C_7 
REMARK       I    between atoms: C_7  and  N_8 
REMARK    4  A    between atoms: C_10  and  N_11 
REMARK       I    between atoms: N_11  and  C_12 
REMARK    5  A    between atoms: C_12  and  C_13 
REMARK    6  A    between atoms: N_15  and  C_16 
ROOT
HETATM    1  N   UNL     1      26.284  44.721  51.701  1.00  0.00    -0.319 N 
HETATM    2  C   UNL     1      26.426  45.237  50.421  1.00  0.00     0.295 C 
HETATM    3  O   UNL     1      27.483  45.303  49.799  1.00  0.00    -0.264 OA
HETATM    4  H   UNL     1      25.317  44.610  52.009  1.00  0.00     0.169 HD
ENDROOT
BRANCH   1   5
HETATM    5  C   UNL     1      27.305  44.301  52.585  1.00  0.00     0.051 A 
HETATM    6  C   UNL     1      27.798  42.982  52.529  1.00  0.00     0.061 A 
HETATM    7  C   UNL     1      28.749  42.536  53.460  1.00  0.00     0.056 A 
HETATM    8  C   UNL     1      29.240  43.392  54.445  1.00  0.00     0.069 A 
HETATM    9  C   UNL     1      28.767  44.699  54.500  1.00  0.00     0.039 A 
HETATM   10  C   UNL     1      27.810  45.148  53.577  1.00  0.00     0.033 A 
BRANCH   6  11
HETATM   11  C   UNL     1      27.397  42.008  51.481  1.00  0.00     0.251 C 
HETATM   12  N   UNL     1      28.383  41.199  50.984  1.00  0.00    -0.366 N 
HETATM   13  H   UNL     1      29.249  41.069  51.494  1.00  0.00     0.159 HD
HETATM   14  H   UNL     1      28.068  40.427  50.409  1.00  0.00     0.159 HD
HETATM   15  O   UNL     1      26.237  41.889  51.113  1.00  0.00    -0.268 OA
ENDBRANCH   6  11
BRANCH   8  16
HETATM   16  O   UNL     1      30.175  42.841  55.276  1.00  0.00    -0.351 OA
BRANCH  16  17
HETATM   17  C   UNL     1      31.102  43.733  55.894  1.00  0.00     0.171 C 
HETATM   18  C   UNL     1      31.422  43.197  57.278  1.00  0.00     0.034 C 
ENDBRANCH  16  17
ENDBRANCH   8  16
ENDBRANCH   1   5
BRANCH   2  19
HETATM   19  C   UNL     1      25.138  45.669  49.832  1.00  0.00     0.239 A 
HETATM   20  N   UNL     1      24.762  46.963  49.766  1.00  0.00    -0.140 NA
HETATM   21  N   UNL     1      23.587  46.895  49.084  1.00  0.00    -0.225 N 
HETATM   22  C   UNL     1      23.262  45.580  48.872  1.00  0.00     0.237 A 
HETATM   23  N   UNL     1      24.213  44.794  49.312  1.00  0.00    -0.216 NA
BRANCH  21  24
HETATM   24  C   UNL     1      22.884  48.056  48.669  1.00  0.00     0.059 A 
HETATM   25  C   UNL     1      23.603  49.195  48.276  1.00  0.00     0.031 A 
HETATM   26  C   UNL     1      22.926  50.331  47.826  1.00  0.00     0.002 A 
HETATM   27  C   UNL     1      21.533  50.341  47.774  1.00  0.00     0.000 A 
HETATM   28  C   UNL     1      20.813  49.216  48.171  1.00  0.00     0.002 A 
HETATM   29  C   UNL     1      21.482  48.073  48.616  1.00  0.00     0.031 A 
ENDBRANCH  21  24
ENDBRANCH   2  19
TORSDOF 6
ENDMDL
MODEL 9
REMARK VINA RESULT:      -7.9      2.437      3.169
REMARK  6 active torsions:
REMARK  status: ('A' for Active; 'I' for Inactive)
REMARK    1  A    between atoms: C_2  and  O_3 
REMARK    2  A    between atoms: O_3  and  C_4 
REMARK    3  A    between atoms: C_6  and  C_7 
REMARK       I    between atoms: C_7  and  N_8 
REMARK    4  A    between atoms: C_10  and  N_11 
REMARK       I    between atoms: N_11  and  C_12 
REMARK    5  A    between atoms: C_12  and  C_13 
REMARK    6  A    between atoms: N_15  and  C_16 
ROOT
HETATM    1  N   UNL     1      25.577  45.302  50.614  1.00  0.00    -0.319 N 
HETATM    2  C   UNL     1      25.552  44.796  51.905  1.00  0.00     0.295 C 
HETATM    3  O   UNL     1      24.540  44.633  52.581  1.00  0.00    -0.264 OA
HETATM    4  H   UNL     1      26.483  45.234  50.148  1.00  0.00     0.169 HD
ENDROOT
BRANCH   1   5
HETATM    5  C   UNL     1      24.500  45.845  49.875  1.00  0.00     0.051 A 
HETATM    6  C   UNL     1      23.768  45.037  48.983  1.00  0.00     0.061 A 
HETATM    7  C   UNL     1      22.756  45.592  48.184  1.00  0.00     0.056 A 
HETATM    8  C   UNL     1      22.439  46.947  48.272  1.00  0.00     0.069 A 
HETATM    9  C   UNL     1      23.150  47.749  49.158  1.00  0.00     0.039 A 
HETATM   10  C   UNL     1      24.168  47.202  49.952  1.00  0.00     0.033 A 
BRANCH   6  11
HETATM   11  C   UNL     1      23.973  43.571  48.859  1.00  0.00     0.251 C 
HETATM   12  N   UNL     1      24.469  43.117  47.666  1.00  0.00    -0.366 N 
HETATM   13  H   UNL     1      24.935  43.751  47.028  1.00  0.00     0.159 HD
HETATM   14  H   UNL     1      24.770  42.150  47.656  1.00  0.00     0.159 HD
HETATM   15  O   UNL     1      23.764  42.804  49.789  1.00  0.00    -0.268 OA
ENDBRANCH   6  11
BRANCH   8  16
HETATM   16  O   UNL     1      21.423  47.357  47.455  1.00  0.00    -0.351 OA
BRANCH  16  17
HETATM   17  C   UNL     1      20.438  48.219  48.025  1.00  0.00     0.171 C 
HETATM   18  C   UNL     1      19.459  47.364  48.810  1.00  0.00     0.034 C 
ENDBRANCH  16  17
ENDBRANCH   8  16
ENDBRANCH   1   5
BRANCH   2  19
HETATM   19  C   UNL     1      26.895  44.409  52.394  1.00  0.00     0.239 A 
HETATM   20  N   UNL     1      27.410  44.864  53.555  1.00  0.00    -0.140 NA
HETATM   21  N   UNL     1      28.590  44.192  53.639  1.00  0.00    -0.225 N 
HETATM   22  C   UNL     1      28.778  43.462  52.493  1.00  0.00     0.237 A 
HETATM   23  N   UNL     1      27.735  43.564  51.706  1.00  0.00    -0.216 NA
BRANCH  21  24
HETATM   24  C   UNL     1      29.425  44.268  54.784  1.00  0.00     0.059 A 
HETATM   25  C   UNL     1      29.298  45.357  55.660  1.00  0.00     0.031 A 
HETATM   26  C   UNL     1      30.085  45.425  56.812  1.00  0.00     0.002 A 
HETATM   27  C   UNL     1      31.004  44.416  57.093  1.00  0.00     0.000 A 
HETATM   28  C   UNL     1      31.142  43.336  56.222  1.00  0.00     0.002 A 
HETATM   29  C   UNL     1      30.354  43.257  55.071  1.00  0.00     0.031 A 
ENDBRANCH  21  24
ENDBRANCH   2  19
TORSDOF 6
ENDMDL
MODEL 10
REMARK VINA RESULT:      -7.8      2.747      9.064
REMARK  6 active torsions:
REMARK  status: ('A' for Active; 'I' for Inactive)
REMARK    1  A    between atoms: C_2  and  O_3 
REMARK    2  A    between atoms: O_3  and  C_4 
REMARK    3  A    between atoms: C_6  and  C_7 
REMARK       I    between atoms: C_7  and  N_8 
REMARK    4  A    between atoms: C_10  and  N_11 
REMARK       I    between atoms: N_11  and  C_12 
REMARK    5  A    between atoms: C_12  and  C_13 
REMARK    6  A    between atoms: N_15  and  C_16 
ROOT
HETATM    1  N   UNL     1      26.422  43.833  51.469  1.00  0.00    -0.319 N 
HETATM    2  C   UNL     1      26.543  44.498  50.258  1.00  0.00     0.295 C 
HETATM    3  O   UNL     1      27.594  44.927  49.789  1.00  0.00    -0.264 OA
HETATM    4  H   UNL     1      25.504  43.418  51.636  1.00  0.00     0.169 HD
ENDROOT
BRANCH   1   5
HETATM    5  C   UNL     1      27.420  43.631  52.451  1.00  0.00     0.051 A 
HETATM    6  C   UNL     1      28.010  42.363  52.618  1.00  0.00     0.061 A 
HETATM    7  C   UNL     1      28.937  42.137  53.648  1.00  0.00     0.056 A 
HETATM    8  C   UNL     1      29.309  43.167  54.512  1.00  0.00     0.069 A 
HETATM    9  C   UNL     1      28.739  44.425  54.346  1.00  0.00     0.039 A 
HETATM   10  C   UNL     1      27.805  44.654  53.325  1.00  0.00     0.033 A 
BRANCH   6  11
HETATM   11  C   UNL     1      27.741  41.215  51.714  1.00  0.00     0.251 C 
HETATM   12  N   UNL     1      28.756  40.312  51.548  1.00  0.00    -0.366 N 
HETATM   13  H   UNL     1      29.519  40.267  52.212  1.00  0.00     0.159 HD
HETATM   14  H   UNL     1      28.503  39.450  51.079  1.00  0.00     0.159 HD
HETATM   15  O   UNL     1      26.652  41.046  51.183  1.00  0.00    -0.268 OA
ENDBRANCH   6  11
BRANCH   8  16
HETATM   16  O   UNL     1      30.232  42.822  55.458  1.00  0.00    -0.351 OA
BRANCH  16  17
HETATM   17  C   UNL     1      31.005  43.878  56.029  1.00  0.00     0.171 C 
HETATM   18  C   UNL     1      31.794  43.310  57.194  1.00  0.00     0.034 C 
ENDBRANCH  16  17
ENDBRANCH   8  16
ENDBRANCH   1   5
BRANCH   2  19
HETATM   19  C   UNL     1      25.257  44.603  49.532  1.00  0.00     0.239 A 
HETATM   20  N   UNL     1      24.515  45.730  49.519  1.00  0.00    -0.140 NA
HETATM   21  N   UNL     1      23.497  45.405  48.677  1.00  0.00    -0.225 N 
HETATM   22  C   UNL     1      23.612  44.087  48.316  1.00  0.00     0.237 A 
HETATM   23  N   UNL     1      24.704  43.565  48.819  1.00  0.00    -0.216 NA
BRANCH  21  24
HETATM   24  C   UNL     1      22.525  46.352  48.263  1.00  0.00     0.059 A 
HETATM   25  C   UNL     1      22.545  47.645  48.806  1.00  0.00     0.031 A 
HETATM   26  C   UNL     1      21.620  48.600  48.378  1.00  0.00     0.002 A 
HETATM   27  C   UNL     1      20.667  48.269  47.417  1.00  0.00     0.000 A 
HETATM   28  C   UNL     1      20.634  46.984  46.880  1.00  0.00     0.002 A 
HETATM   29  C   UNL     1      21.561  46.024  47.297  1.00  0.00     0.031 A 
ENDBRANCH  21  24
ENDBRANCH   2  19
TORSDOF 6
ENDMDL
