MODEL 1
REMARK VINA RESULT:      -8.8      0.000      0.000
REMARK  7 active torsions:
REMARK  status: ('A' for Active; 'I' for Inactive)
REMARK    1  A    between atoms: C_7  and  C_8 
REMARK    2  A    between atoms: C_8  and  C_9 
REMARK    3  A    between atoms: C_9  and  C_10 
REMARK    4  A    between atoms: C_10  and  O_11 
REMARK    5  A    between atoms: C_13  and  C_14 
REMARK    6  A    between atoms: C_21  and  C_22 
REMARK       I    between atoms: C_22  and  N_23 
REMARK    7  A    between atoms: N_23  and  C_24 
ROOT
HETATM    1  C   UNL     1      26.067  42.457  50.168  1.00  0.00     0.070 C 
HETATM    2  C   UNL     1      25.245  43.659  49.770  1.00  0.00     0.037 C 
HETATM    3  N   UNL     1      24.621  43.572  48.522  1.00  0.00    -0.192 N 
HETATM    4  C   UNL     1      23.628  44.409  48.158  1.00  0.00     0.726 A 
HETATM    5  N   UNL     1      23.427  45.549  48.881  1.00  0.00    -0.083 N 
HETATM    6  N   UNL     1      22.331  46.217  48.468  1.00  0.00    -0.140 NA
HETATM    7  C   UNL     1      21.931  45.430  47.458  1.00  0.00     0.166 A 
HETATM    8  N   UNL     1      22.712  44.319  47.229  1.00  0.00    -0.046 NA
HETATM    9  C   UNL     1      24.249  45.943  50.025  1.00  0.00     0.202 C 
HETATM   10  C   UNL     1      25.073  44.766  50.541  1.00  0.00     0.062 C 
HETATM   11  H   UNL     1      24.656  42.664  48.063  1.00  0.00     0.184 HD
ENDROOT
BRANCH  10  12
HETATM   12  C   UNL     1      25.470  44.767  51.986  1.00  0.00     0.256 C 
HETATM   13  N   UNL     1      26.770  45.155  52.233  1.00  0.00    -0.323 N 
HETATM   14  H   UNL     1      27.392  45.282  51.448  1.00  0.00     0.169 HD
HETATM   15  O   UNL     1      24.629  44.501  52.839  1.00  0.00    -0.267 OA
BRANCH  13  16
HETATM   16  C   UNL     1      27.356  45.423  53.491  1.00  0.00     0.035 A 
HETATM   17  C   UNL     1      27.107  46.573  54.245  1.00  0.00     0.031 A 
HETATM   18  C   UNL     1      27.754  46.775  55.470  1.00  0.00     0.026 A 
HETATM   19  C   UNL     1      28.658  45.830  55.943  1.00  0.00     0.034 A 
HETATM   20 CL   UNL     1      29.463  46.086  57.441  1.00  0.00    -0.084 Cl
HETATM   21  C   UNL     1      28.915  44.677  55.206  1.00  0.00     0.026 A 
HETATM   22  C   UNL     1      28.261  44.473  53.987  1.00  0.00     0.031 A 
ENDBRANCH  13  16
ENDBRANCH  10  12
BRANCH   9  23
HETATM   23  C   UNL     1      25.095  47.156  49.626  1.00  0.00    -0.028 A 
HETATM   24  C   UNL     1      24.458  48.339  49.203  1.00  0.00     0.012 A 
HETATM   25  C   UNL     1      25.209  49.456  48.832  1.00  0.00     0.043 A 
HETATM   26  C   UNL     1      26.596  49.398  48.874  1.00  0.00     0.116 A 
HETATM   27  F   UNL     1      27.313  50.472  48.519  1.00  0.00    -0.206 F 
HETATM   28  C   UNL     1      27.250  48.239  49.273  1.00  0.00     0.043 A 
HETATM   29  C   UNL     1      26.503  47.118  49.641  1.00  0.00     0.012 A 
ENDBRANCH   9  23
BRANCH   7  30
HETATM   30  C   UNL     1      20.697  45.708  46.680  1.00  0.00     0.085 C 
BRANCH  30  31
HETATM   31  C   UNL     1      19.677  46.545  47.452  1.00  0.00     0.034 C 
BRANCH  31  32
HETATM   32  C   UNL     1      18.416  45.769  47.821  1.00  0.00     0.164 C 
BRANCH  32  33
HETATM   33  O   UNL     1      18.755  44.686  48.680  1.00  0.00    -0.401 OA
HETATM   34  H   UNL     1      19.642  44.861  49.038  1.00  0.00     0.209 HD
ENDBRANCH  32  33
ENDBRANCH  31  32
ENDBRANCH  30  31
ENDBRANCH   7  30
TORSDOF 7
ENDMDL
MODEL 2
REMARK VINA RESULT:      -8.8      2.921      3.640
REMARK  7 active torsions:
REMARK  status: ('A' for Active; 'I' for Inactive)
REMARK    1  A    between atoms: C_7  and  C_8 
REMARK    2  A    between atoms: C_8  and  C_9 
REMARK    3  A    between atoms: C_9  and  C_10 
REMARK    4  A    between atoms: C_10  and  O_11 
REMARK    5  A    between atoms: C_13  and  C_14 
REMARK    6  A    between atoms: C_21  and  C_22 
REMARK       I    between atoms: C_22  and  N_23 
REMARK    7  A    between atoms: N_23  and  C_24 
ROOT
HETATM    1  C   UNL     1      28.953  41.022  51.607  1.00  0.00     0.070 C 
HETATM    2  C   UNL     1      27.680  41.736  51.224  1.00  0.00     0.037 C 
HETATM    3  N   UNL     1      27.086  41.307  50.034  1.00  0.00    -0.192 N 
HETATM    4  C   UNL     1      25.814  41.623  49.713  1.00  0.00     0.726 A 
HETATM    5  N   UNL     1      25.189  42.623  50.401  1.00  0.00    -0.083 N 
HETATM    6  N   UNL     1      23.893  42.738  50.047  1.00  0.00    -0.140 NA
HETATM    7  C   UNL     1      23.810  41.786  49.106  1.00  0.00     0.166 A 
HETATM    8  N   UNL     1      24.974  41.091  48.864  1.00  0.00    -0.046 NA
HETATM    9  C   UNL     1      25.827  43.405  51.459  1.00  0.00     0.202 C 
HETATM   10  C   UNL     1      27.098  42.722  51.958  1.00  0.00     0.062 C 
HETATM   11  H   UNL     1      27.477  40.467  49.612  1.00  0.00     0.184 HD
ENDROOT
BRANCH  10  12
HETATM   12  C   UNL     1      27.533  42.993  53.366  1.00  0.00     0.256 C 
HETATM   13  N   UNL     1      28.561  43.903  53.493  1.00  0.00    -0.323 N 
HETATM   14  H   UNL     1      29.030  44.220  52.657  1.00  0.00     0.169 HD
HETATM   15  O   UNL     1      26.928  42.464  54.293  1.00  0.00    -0.267 OA
BRANCH  13  16
HETATM   16  C   UNL     1      29.046  44.481  54.689  1.00  0.00     0.035 A 
HETATM   17  C   UNL     1      28.483  45.602  55.304  1.00  0.00     0.031 A 
HETATM   18  C   UNL     1      29.045  46.130  56.473  1.00  0.00     0.026 A 
HETATM   19  C   UNL     1      30.177  45.542  57.027  1.00  0.00     0.034 A 
HETATM   20 CL   UNL     1      30.875  46.199  58.454  1.00  0.00    -0.084 Cl
HETATM   21  C   UNL     1      30.748  44.423  56.428  1.00  0.00     0.026 A 
HETATM   22  C   UNL     1      30.180  43.891  55.266  1.00  0.00     0.031 A 
ENDBRANCH  13  16
ENDBRANCH  10  12
BRANCH   9  23
HETATM   23  C   UNL     1      26.058  44.829  50.943  1.00  0.00    -0.028 A 
HETATM   24  C   UNL     1      27.020  45.057  49.940  1.00  0.00     0.012 A 
HETATM   25  C   UNL     1      27.250  46.346  49.457  1.00  0.00     0.043 A 
HETATM   26  C   UNL     1      26.528  47.414  49.973  1.00  0.00     0.116 A 
HETATM   27  F   UNL     1      26.749  48.649  49.506  1.00  0.00    -0.206 F 
HETATM   28  C   UNL     1      25.583  47.220  50.972  1.00  0.00     0.043 A 
HETATM   29  C   UNL     1      25.353  45.932  51.462  1.00  0.00     0.012 A 
ENDBRANCH   9  23
BRANCH   7  30
HETATM   30  C   UNL     1      22.535  41.465  48.416  1.00  0.00     0.085 C 
BRANCH  30  31
HETATM   31  C   UNL     1      22.685  40.375  47.354  1.00  0.00     0.034 C 
BRANCH  31  32
HETATM   32  C   UNL     1      21.350  39.852  46.834  1.00  0.00     0.164 C 
BRANCH  32  33
HETATM   33  O   UNL     1      20.587  39.327  47.915  1.00  0.00    -0.401 OA
HETATM   34  H   UNL     1      21.212  39.035  48.601  1.00  0.00     0.209 HD
ENDBRANCH  32  33
ENDBRANCH  31  32
ENDBRANCH  30  31
ENDBRANCH   7  30
TORSDOF 7
ENDMDL
MODEL 3
REMARK VINA RESULT:      -8.8      2.782      3.899
REMARK  7 active torsions:
REMARK  status: ('A' for Active; 'I' for Inactive)
REMARK    1  A    between atoms: C_7  and  C_8 
REMARK    2  A    between atoms: C_8  and  C_9 
REMARK    3  A    between atoms: C_9  and  C_10 
REMARK    4  A    between atoms: C_10  and  O_11 
REMARK    5  A    between atoms: C_13  and  C_14 
REMARK    6  A    between atoms: C_21  and  C_22 
REMARK       I    between atoms: C_22  and  N_23 
REMARK    7  A    between atoms: N_23  and  C_24 
ROOT
HETATM    1  C   UNL     1      22.892  44.170  47.424  1.00  0.00     0.070 C 
HETATM    2  C   UNL     1      22.910  45.559  48.017  1.00  0.00     0.037 C 
HETATM    3  N   UNL     1      22.141  46.510  47.340  1.00  0.00    -0.192 N 
HETATM    4  C   UNL     1      21.813  47.694  47.896  1.00  0.00     0.726 A 
HETATM    5  N   UNL     1      22.485  48.109  49.010  1.00  0.00    -0.083 N 
HETATM    6  N   UNL     1      21.965  49.246  49.513  1.00  0.00    -0.140 NA
HETATM    7  C   UNL     1      20.990  49.484  48.623  1.00  0.00     0.166 A 
HETATM    8  N   UNL     1      20.876  48.560  47.609  1.00  0.00    -0.046 NA
HETATM    9  C   UNL     1      23.573  47.355  49.632  1.00  0.00     0.202 C 
HETATM   10  C   UNL     1      23.593  45.910  49.139  1.00  0.00     0.062 C 
HETATM   11  H   UNL     1      21.532  46.157  46.605  1.00  0.00     0.184 HD
ENDROOT
BRANCH  10  12
HETATM   12  C   UNL     1      24.172  44.867  50.046  1.00  0.00     0.256 C 
HETATM   13  N   UNL     1      25.436  44.434  49.706  1.00  0.00    -0.323 N 
HETATM   14  H   UNL     1      25.828  44.737  48.826  1.00  0.00     0.169 HD
HETATM   15  O   UNL     1      23.541  44.522  51.041  1.00  0.00    -0.267 OA
BRANCH  13  16
HETATM   16  C   UNL     1      26.289  43.607  50.471  1.00  0.00     0.035 A 
HETATM   17  C   UNL     1      27.341  44.078  51.260  1.00  0.00     0.031 A 
HETATM   18  C   UNL     1      28.158  43.184  51.964  1.00  0.00     0.026 A 
HETATM   19  C   UNL     1      27.930  41.815  51.875  1.00  0.00     0.034 A 
HETATM   20 CL   UNL     1      28.943  40.718  52.727  1.00  0.00    -0.084 Cl
HETATM   21  C   UNL     1      26.884  41.330  51.095  1.00  0.00     0.026 A 
HETATM   22  C   UNL     1      26.063  42.224  50.401  1.00  0.00     0.031 A 
ENDBRANCH  13  16
ENDBRANCH  10  12
BRANCH   9  23
HETATM   23  C   UNL     1      24.888  48.104  49.390  1.00  0.00    -0.028 A 
HETATM   24  C   UNL     1      26.048  47.711  50.085  1.00  0.00     0.012 A 
HETATM   25  C   UNL     1      27.257  48.381  49.883  1.00  0.00     0.043 A 
HETATM   26  C   UNL     1      27.314  49.446  48.994  1.00  0.00     0.116 A 
HETATM   27  F   UNL     1      28.475  50.085  48.801  1.00  0.00    -0.206 F 
HETATM   28  C   UNL     1      26.181  49.863  48.306  1.00  0.00     0.043 A 
HETATM   29  C   UNL     1      24.969  49.199  48.508  1.00  0.00     0.012 A 
ENDBRANCH   9  23
BRANCH   7  30
HETATM   30  C   UNL     1      20.059  50.633  48.759  1.00  0.00     0.085 C 
BRANCH  30  31
HETATM   31  C   UNL     1      19.394  50.708  50.133  1.00  0.00     0.034 C 
BRANCH  31  32
HETATM   32  C   UNL     1      18.622  49.443  50.499  1.00  0.00     0.164 C 
BRANCH  32  33
HETATM   33  O   UNL     1      18.866  49.111  51.861  1.00  0.00    -0.401 OA
HETATM   34  H   UNL     1      19.822  49.195  52.018  1.00  0.00     0.209 HD
ENDBRANCH  32  33
ENDBRANCH  31  32
ENDBRANCH  30  31
ENDBRANCH   7  30
TORSDOF 7
ENDMDL
MODEL 4
REMARK VINA RESULT:      -8.8      1.194      1.708
REMARK  7 active torsions:
REMARK  status: ('A' for Active; 'I' for Inactive)
REMARK    1  A    between atoms: C_7  and  C_8 
REMARK    2  A    between atoms: C_8  and  C_9 
REMARK    3  A    between atoms: C_9  and  C_10 
REMARK    4  A    between atoms: C_10  and  O_11 
REMARK    5  A    between atoms: C_13  and  C_14 
REMARK    6  A    between atoms: C_21  and  C_22 
REMARK       I    between atoms: C_22  and  N_23 
REMARK    7  A    between atoms: N_23  and  C_24 
ROOT
HETATM    1  C   UNL     1      27.287  41.600  50.819  1.00  0.00     0.070 C 
HETATM    2  C   UNL     1      26.359  42.701  50.365  1.00  0.00     0.037 C 
HETATM    3  N   UNL     1      25.734  42.489  49.133  1.00  0.00    -0.192 N 
HETATM    4  C   UNL     1      24.669  43.215  48.735  1.00  0.00     0.726 A 
HETATM    5  N   UNL     1      24.375  44.373  49.396  1.00  0.00    -0.083 N 
HETATM    6  N   UNL     1      23.222  44.918  48.961  1.00  0.00    -0.140 NA
HETATM    7  C   UNL     1      22.884  44.044  48.002  1.00  0.00     0.166 A 
HETATM    8  N   UNL     1      23.756  42.993  47.825  1.00  0.00    -0.046 NA
HETATM    9  C   UNL     1      25.169  44.901  50.505  1.00  0.00     0.202 C 
HETATM   10  C   UNL     1      26.097  43.831  51.075  1.00  0.00     0.062 C 
HETATM   11  H   UNL     1      25.845  41.564  48.724  1.00  0.00     0.184 HD
ENDROOT
BRANCH  10  12
HETATM   12  C   UNL     1      26.505  43.949  52.513  1.00  0.00     0.256 C 
HETATM   13  N   UNL     1      27.822  44.301  52.718  1.00  0.00    -0.323 N 
HETATM   14  H   UNL     1      28.443  44.327  51.922  1.00  0.00     0.169 HD
HETATM   15  O   UNL     1      25.660  43.800  53.389  1.00  0.00    -0.267 OA
BRANCH  13  16
HETATM   16  C   UNL     1      28.428  44.659  53.944  1.00  0.00     0.035 A 
HETATM   17  C   UNL     1      28.082  45.787  54.692  1.00  0.00     0.031 A 
HETATM   18  C   UNL     1      28.755  46.085  55.883  1.00  0.00     0.026 A 
HETATM   19  C   UNL     1      29.782  45.259  56.326  1.00  0.00     0.034 A 
HETATM   20 CL   UNL     1      30.618  45.635  57.782  1.00  0.00    -0.084 Cl
HETATM   21  C   UNL     1      30.138  44.130  55.594  1.00  0.00     0.026 A 
HETATM   22  C   UNL     1      29.458  43.828  54.410  1.00  0.00     0.031 A 
ENDBRANCH  13  16
ENDBRANCH  10  12
BRANCH   9  23
HETATM   23  C   UNL     1      25.902  46.158  50.028  1.00  0.00    -0.028 A 
HETATM   24  C   UNL     1      27.238  46.060  49.591  1.00  0.00     0.012 A 
HETATM   25  C   UNL     1      27.927  47.192  49.154  1.00  0.00     0.043 A 
HETATM   26  C   UNL     1      27.293  48.428  49.155  1.00  0.00     0.116 A 
HETATM   27  F   UNL     1      27.956  49.512  48.733  1.00  0.00    -0.206 F 
HETATM   28  C   UNL     1      25.980  48.556  49.593  1.00  0.00     0.043 A 
HETATM   29  C   UNL     1      25.288  47.425  50.035  1.00  0.00     0.012 A 
ENDBRANCH   9  23
BRANCH   7  30
HETATM   30  C   UNL     1      21.624  44.169  47.226  1.00  0.00     0.085 C 
BRANCH  30  31
HETATM   31  C   UNL     1      20.977  45.549  47.350  1.00  0.00     0.034 C 
BRANCH  31  32
HETATM   32  C   UNL     1      19.785  45.572  48.302  1.00  0.00     0.164 C 
BRANCH  32  33
HETATM   33  O   UNL     1      20.148  44.972  49.539  1.00  0.00    -0.401 OA
HETATM   34  H   UNL     1      19.973  44.018  49.467  1.00  0.00     0.209 HD
ENDBRANCH  32  33
ENDBRANCH  31  32
ENDBRANCH  30  31
ENDBRANCH   7  30
TORSDOF 7
ENDMDL
MODEL 5
REMARK VINA RESULT:      -8.5      4.248      8.085
REMARK  7 active torsions:
REMARK  status: ('A' for Active; 'I' for Inactive)
REMARK    1  A    between atoms: C_7  and  C_8 
REMARK    2  A    between atoms: C_8  and  C_9 
REMARK    3  A    between atoms: C_9  and  C_10 
REMARK    4  A    between atoms: C_10  and  O_11 
REMARK    5  A    between atoms: C_13  and  C_14 
REMARK    6  A    between atoms: C_21  and  C_22 
REMARK       I    between atoms: C_22  and  N_23 
REMARK    7  A    between atoms: N_23  and  C_24 
ROOT
HETATM    1  C   UNL     1      25.798  48.700  49.081  1.00  0.00     0.070 C 
HETATM    2  C   UNL     1      25.382  47.411  49.749  1.00  0.00     0.037 C 
HETATM    3  N   UNL     1      26.337  46.838  50.594  1.00  0.00    -0.192 N 
HETATM    4  C   UNL     1      26.022  45.873  51.481  1.00  0.00     0.726 A 
HETATM    5  N   UNL     1      24.828  45.224  51.354  1.00  0.00    -0.083 N 
HETATM    6  N   UNL     1      24.607  44.376  52.379  1.00  0.00    -0.140 NA
HETATM    7  C   UNL     1      25.739  44.541  53.081  1.00  0.00     0.166 A 
HETATM    8  N   UNL     1      26.636  45.441  52.552  1.00  0.00    -0.046 NA
HETATM    9  C   UNL     1      23.866  45.491  50.285  1.00  0.00     0.202 C 
HETATM   10  C   UNL     1      24.170  46.816  49.591  1.00  0.00     0.062 C 
HETATM   11  H   UNL     1      27.159  47.404  50.795  1.00  0.00     0.184 HD
ENDROOT
BRANCH  10  12
HETATM   12  C   UNL     1      23.032  47.547  48.945  1.00  0.00     0.256 C 
HETATM   13  N   UNL     1      22.405  48.477  49.748  1.00  0.00    -0.323 N 
HETATM   14  H   UNL     1      22.654  48.514  50.726  1.00  0.00     0.169 HD
HETATM   15  O   UNL     1      22.777  47.336  47.764  1.00  0.00    -0.267 OA
BRANCH  13  16
HETATM   16  C   UNL     1      21.437  49.429  49.355  1.00  0.00     0.035 A 
HETATM   17  C   UNL     1      21.740  50.704  48.872  1.00  0.00     0.031 A 
HETATM   18  C   UNL     1      20.717  51.598  48.533  1.00  0.00     0.026 A 
HETATM   19  C   UNL     1      19.386  51.222  48.684  1.00  0.00     0.034 A 
HETATM   20 CL   UNL     1      18.131  52.326  48.281  1.00  0.00    -0.084 Cl
HETATM   21  C   UNL     1      19.068  49.954  49.162  1.00  0.00     0.026 A 
HETATM   22  C   UNL     1      20.091  49.059  49.490  1.00  0.00     0.031 A 
ENDBRANCH  13  16
ENDBRANCH  10  12
BRANCH   9  23
HETATM   23  C   UNL     1      23.845  44.291  49.334  1.00  0.00    -0.028 A 
HETATM   24  C   UNL     1      22.644  43.934  48.691  1.00  0.00     0.012 A 
HETATM   25  C   UNL     1      22.600  42.843  47.822  1.00  0.00     0.043 A 
HETATM   26  C   UNL     1      23.750  42.098  47.594  1.00  0.00     0.116 A 
HETATM   27  F   UNL     1      23.706  41.052  46.758  1.00  0.00    -0.206 F 
HETATM   28  C   UNL     1      24.945  42.419  48.225  1.00  0.00     0.043 A 
HETATM   29  C   UNL     1      24.992  43.508  49.099  1.00  0.00     0.012 A 
ENDBRANCH   9  23
BRANCH   7  30
HETATM   30  C   UNL     1      25.978  43.845  54.371  1.00  0.00     0.085 C 
BRANCH  30  31
HETATM   31  C   UNL     1      27.350  43.174  54.444  1.00  0.00     0.034 C 
BRANCH  31  32
HETATM   32  C   UNL     1      27.629  42.241  53.270  1.00  0.00     0.164 C 
BRANCH  32  33
HETATM   33  O   UNL     1      27.282  40.907  53.626  1.00  0.00    -0.401 OA
HETATM   34  H   UNL     1      27.453  40.342  52.853  1.00  0.00     0.209 HD
ENDBRANCH  32  33
ENDBRANCH  31  32
ENDBRANCH  30  31
ENDBRANCH   7  30
TORSDOF 7
ENDMDL
MODEL 6
REMARK VINA RESULT:      -8.2      6.060     10.462
REMARK  7 active torsions:
REMARK  status: ('A' for Active; 'I' for Inactive)
REMARK    1  A    between atoms: C_7  and  C_8 
REMARK    2  A    between atoms: C_8  and  C_9 
REMARK    3  A    between atoms: C_9  and  C_10 
REMARK    4  A    between atoms: C_10  and  O_11 
REMARK    5  A    between atoms: C_13  and  C_14 
REMARK    6  A    between atoms: C_21  and  C_22 
REMARK       I    between atoms: C_22  and  N_23 
REMARK    7  A    between atoms: N_23  and  C_24 
ROOT
HETATM    1  C   UNL     1      19.520  45.200  48.299  1.00  0.00     0.070 C 
HETATM    2  C   UNL     1      20.201  46.544  48.206  1.00  0.00     0.037 C 
HETATM    3  N   UNL     1      21.368  46.678  48.964  1.00  0.00    -0.192 N 
HETATM    4  C   UNL     1      22.242  47.685  48.762  1.00  0.00     0.726 A 
HETATM    5  N   UNL     1      21.848  48.763  48.021  1.00  0.00    -0.083 N 
HETATM    6  N   UNL     1      22.864  49.623  47.810  1.00  0.00    -0.140 NA
HETATM    7  C   UNL     1      23.848  49.011  48.486  1.00  0.00     0.166 A 
HETATM    8  N   UNL     1      23.498  47.827  49.096  1.00  0.00    -0.046 NA
HETATM    9  C   UNL     1      20.510  48.911  47.450  1.00  0.00     0.202 C 
HETATM   10  C   UNL     1      19.764  47.579  47.441  1.00  0.00     0.062 C 
HETATM   11  H   UNL     1      21.730  45.827  49.390  1.00  0.00     0.184 HD
ENDROOT
BRANCH  10  12
HETATM   12  C   UNL     1      18.707  47.374  46.399  1.00  0.00     0.256 C 
HETATM   13  N   UNL     1      17.410  47.461  46.859  1.00  0.00    -0.323 N 
HETATM   14  H   UNL     1      17.256  47.524  47.855  1.00  0.00     0.169 HD
HETATM   15  O   UNL     1      19.041  47.216  45.229  1.00  0.00    -0.267 OA
BRANCH  13  16
HETATM   16  C   UNL     1      16.229  47.494  46.083  1.00  0.00     0.035 A 
HETATM   17  C   UNL     1      16.059  46.799  44.883  1.00  0.00     0.031 A 
HETATM   18  C   UNL     1      14.865  46.910  44.159  1.00  0.00     0.026 A 
HETATM   19  C   UNL     1      13.840  47.724  44.630  1.00  0.00     0.034 A 
HETATM   20 CL   UNL     1      12.380  47.872  43.733  1.00  0.00    -0.084 Cl
HETATM   21  C   UNL     1      13.993  48.421  45.825  1.00  0.00     0.026 A 
HETATM   22  C   UNL     1      15.182  48.300  46.552  1.00  0.00     0.031 A 
ENDBRANCH  13  16
ENDBRANCH  10  12
BRANCH   9  23
HETATM   23  C   UNL     1      19.775  50.021  48.207  1.00  0.00    -0.028 A 
HETATM   24  C   UNL     1      19.003  49.695  49.340  1.00  0.00     0.012 A 
HETATM   25  C   UNL     1      18.322  50.690  50.045  1.00  0.00     0.043 A 
HETATM   26  C   UNL     1      18.401  52.011  49.622  1.00  0.00     0.116 A 
HETATM   27  F   UNL     1      17.748  52.962  50.301  1.00  0.00    -0.206 F 
HETATM   28  C   UNL     1      19.143  52.358  48.500  1.00  0.00     0.043 A 
HETATM   29  C   UNL     1      19.823  51.365  47.790  1.00  0.00     0.012 A 
ENDBRANCH   9  23
BRANCH   7  30
HETATM   30  C   UNL     1      25.233  49.546  48.525  1.00  0.00     0.085 C 
BRANCH  30  31
HETATM   31  C   UNL     1      26.206  48.637  49.276  1.00  0.00     0.034 C 
BRANCH  31  32
HETATM   32  C   UNL     1      27.666  49.051  49.112  1.00  0.00     0.164 C 
BRANCH  32  33
HETATM   33  O   UNL     1      27.736  50.427  48.753  1.00  0.00    -0.401 OA
HETATM   34  H   UNL     1      27.175  50.922  49.375  1.00  0.00     0.209 HD
ENDBRANCH  32  33
ENDBRANCH  31  32
ENDBRANCH  30  31
ENDBRANCH   7  30
TORSDOF 7
ENDMDL
MODEL 7
REMARK VINA RESULT:      -8.2      2.033      2.429
REMARK  7 active torsions:
REMARK  status: ('A' for Active; 'I' for Inactive)
REMARK    1  A    between atoms: C_7  and  C_8 
REMARK    2  A    between atoms: C_8  and  C_9 
REMARK    3  A    between atoms: C_9  and  C_10 
REMARK    4  A    between atoms: C_10  and  O_11 
REMARK    5  A    between atoms: C_13  and  C_14 
REMARK    6  A    between atoms: C_21  and  C_22 
REMARK       I    between atoms: C_22  and  N_23 
REMARK    7  A    between atoms: N_23  and  C_24 
ROOT
HETATM    1  C   UNL     1      24.264  43.137  48.772  1.00  0.00     0.070 C 
HETATM    2  C   UNL     1      23.892  44.595  48.900  1.00  0.00     0.037 C 
HETATM    3  N   UNL     1      23.036  45.084  47.909  1.00  0.00    -0.192 N 
HETATM    4  C   UNL     1      22.380  46.255  48.043  1.00  0.00     0.726 A 
HETATM    5  N   UNL     1      22.778  47.128  49.015  1.00  0.00    -0.083 N 
HETATM    6  N   UNL     1      21.955  48.191  49.100  1.00  0.00    -0.140 NA
HETATM    7  C   UNL     1      21.088  47.909  48.116  1.00  0.00     0.166 A 
HETATM    8  N   UNL     1      21.326  46.736  47.437  1.00  0.00    -0.046 NA
HETATM    9  C   UNL     1      23.906  46.885  49.914  1.00  0.00     0.202 C 
HETATM   10  C   UNL     1      24.314  45.414  49.900  1.00  0.00     0.062 C 
HETATM   11  H   UNL     1      22.631  44.393  47.281  1.00  0.00     0.184 HD
ENDROOT
BRANCH  10  12
HETATM   12  C   UNL     1      24.973  44.857  51.125  1.00  0.00     0.256 C 
HETATM   13  N   UNL     1      26.340  44.702  51.033  1.00  0.00    -0.323 N 
HETATM   14  H   UNL     1      26.781  44.843  50.135  1.00  0.00     0.169 HD
HETATM   15  O   UNL     1      24.295  44.644  52.126  1.00  0.00    -0.267 OA
BRANCH  13  16
HETATM   16  C   UNL     1      27.234  44.378  52.078  1.00  0.00     0.035 A 
HETATM   17  C   UNL     1      27.245  45.004  53.327  1.00  0.00     0.031 A 
HETATM   18  C   UNL     1      28.186  44.642  54.297  1.00  0.00     0.026 A 
HETATM   19  C   UNL     1      29.127  43.655  54.019  1.00  0.00     0.034 A 
HETATM   20 CL   UNL     1      30.292  43.221  55.207  1.00  0.00    -0.084 Cl
HETATM   21  C   UNL     1      29.128  43.019  52.782  1.00  0.00     0.026 A 
HETATM   22  C   UNL     1      28.180  43.375  51.817  1.00  0.00     0.031 A 
ENDBRANCH  13  16
ENDBRANCH  10  12
BRANCH   9  23
HETATM   23  C   UNL     1      25.044  47.840  49.541  1.00  0.00    -0.028 A 
HETATM   24  C   UNL     1      24.768  48.975  48.753  1.00  0.00     0.012 A 
HETATM   25  C   UNL     1      25.790  49.858  48.398  1.00  0.00     0.043 A 
HETATM   26  C   UNL     1      27.090  49.612  48.821  1.00  0.00     0.116 A 
HETATM   27  F   UNL     1      28.067  50.462  48.480  1.00  0.00    -0.206 F 
HETATM   28  C   UNL     1      27.392  48.493  49.587  1.00  0.00     0.043 A 
HETATM   29  C   UNL     1      26.374  47.605  49.940  1.00  0.00     0.012 A 
ENDBRANCH   9  23
BRANCH   7  30
HETATM   30  C   UNL     1      19.917  48.774  47.822  1.00  0.00     0.085 C 
BRANCH  30  31
HETATM   31  C   UNL     1      19.593  49.750  48.953  1.00  0.00     0.034 C 
BRANCH  31  32
HETATM   32  C   UNL     1      18.123  49.731  49.363  1.00  0.00     0.164 C 
BRANCH  32  33
HETATM   33  O   UNL     1      17.876  50.766  50.309  1.00  0.00    -0.401 OA
HETATM   34  H   UNL     1      18.078  50.412  51.192  1.00  0.00     0.209 HD
ENDBRANCH  32  33
ENDBRANCH  31  32
ENDBRANCH  30  31
ENDBRANCH   7  30
TORSDOF 7
ENDMDL
MODEL 8
REMARK VINA RESULT:      -8.1      3.529      5.556
REMARK  7 active torsions:
REMARK  status: ('A' for Active; 'I' for Inactive)
REMARK    1  A    between atoms: C_7  and  C_8 
REMARK    2  A    between atoms: C_8  and  C_9 
REMARK    3  A    between atoms: C_9  and  C_10 
REMARK    4  A    between atoms: C_10  and  O_11 
REMARK    5  A    between atoms: C_13  and  C_14 
REMARK    6  A    between atoms: C_21  and  C_22 
REMARK       I    between atoms: C_22  and  N_23 
REMARK    7  A    between atoms: N_23  and  C_24 
ROOT
HETATM    1  C   UNL     1      21.060  45.715  46.061  1.00  0.00     0.070 C 
HETATM    2  C   UNL     1      21.370  46.790  47.075  1.00  0.00     0.037 C 
HETATM    3  N   UNL     1      20.801  48.040  46.817  1.00  0.00    -0.192 N 
HETATM    4  C   UNL     1      20.729  49.003  47.758  1.00  0.00     0.726 A 
HETATM    5  N   UNL     1      21.488  48.882  48.886  1.00  0.00    -0.083 N 
HETATM    6  N   UNL     1      21.218  49.856  49.778  1.00  0.00    -0.140 NA
HETATM    7  C   UNL     1      20.298  50.560  49.101  1.00  0.00     0.166 A 
HETATM    8  N   UNL     1      19.984  50.074  47.852  1.00  0.00    -0.046 NA
HETATM    9  C   UNL     1      22.408  47.772  49.132  1.00  0.00     0.202 C 
HETATM   10  C   UNL     1      22.126  46.604  48.190  1.00  0.00     0.062 C 
HETATM   11  H   UNL     1      20.122  48.078  46.059  1.00  0.00     0.184 HD
ENDROOT
BRANCH  10  12
HETATM   12  C   UNL     1      22.494  45.226  48.651  1.00  0.00     0.256 C 
HETATM   13  N   UNL     1      23.743  44.794  48.259  1.00  0.00    -0.323 N 
HETATM   14  H   UNL     1      24.263  45.357  47.600  1.00  0.00     0.169 HD
HETATM   15  O   UNL     1      21.721  44.612  49.380  1.00  0.00    -0.267 OA
BRANCH  13  16
HETATM   16  C   UNL     1      24.419  43.632  48.694  1.00  0.00     0.035 A 
HETATM   17  C   UNL     1      24.110  42.337  48.268  1.00  0.00     0.031 A 
HETATM   18  C   UNL     1      24.811  41.235  48.773  1.00  0.00     0.026 A 
HETATM   19  C   UNL     1      25.819  41.424  49.713  1.00  0.00     0.034 A 
HETATM   20 CL   UNL     1      26.669  40.069  50.344  1.00  0.00    -0.084 Cl
HETATM   21  C   UNL     1      26.141  42.707  50.145  1.00  0.00     0.026 A 
HETATM   22  C   UNL     1      25.447  43.807  49.632  1.00  0.00     0.031 A 
ENDBRANCH  13  16
ENDBRANCH  10  12
BRANCH   9  23
HETATM   23  C   UNL     1      23.844  48.299  49.043  1.00  0.00    -0.028 A 
HETATM   24  C   UNL     1      24.133  49.391  48.201  1.00  0.00     0.012 A 
HETATM   25  C   UNL     1      25.434  49.886  48.102  1.00  0.00     0.043 A 
HETATM   26  C   UNL     1      26.455  49.294  48.836  1.00  0.00     0.116 A 
HETATM   27  F   UNL     1      27.701  49.773  48.740  1.00  0.00    -0.206 F 
HETATM   28  C   UNL     1      26.200  48.207  49.663  1.00  0.00     0.043 A 
HETATM   29  C   UNL     1      24.900  47.705  49.762  1.00  0.00     0.012 A 
ENDBRANCH   9  23
BRANCH   7  30
HETATM   30  C   UNL     1      19.623  51.747  49.685  1.00  0.00     0.085 C 
BRANCH  30  31
HETATM   31  C   UNL     1      18.639  52.411  48.722  1.00  0.00     0.034 C 
BRANCH  31  32
HETATM   32  C   UNL     1      17.327  52.818  49.386  1.00  0.00     0.164 C 
BRANCH  32  33
HETATM   33  O   UNL     1      16.825  51.733  50.158  1.00  0.00    -0.401 OA
HETATM   34  H   UNL     1      16.696  50.979  49.557  1.00  0.00     0.209 HD
ENDBRANCH  32  33
ENDBRANCH  31  32
ENDBRANCH  30  31
ENDBRANCH   7  30
TORSDOF 7
ENDMDL
MODEL 9
REMARK VINA RESULT:      -8.0      4.589      8.320
REMARK  7 active torsions:
REMARK  status: ('A' for Active; 'I' for Inactive)
REMARK    1  A    between atoms: C_7  and  C_8 
REMARK    2  A    between atoms: C_8  and  C_9 
REMARK    3  A    between atoms: C_9  and  C_10 
REMARK    4  A    between atoms: C_10  and  O_11 
REMARK    5  A    between atoms: C_13  and  C_14 
REMARK    6  A    between atoms: C_21  and  C_22 
REMARK       I    between atoms: C_22  and  N_23 
REMARK    7  A    between atoms: N_23  and  C_24 
ROOT
HETATM    1  C   UNL     1      24.445  50.153  47.914  1.00  0.00     0.070 C 
HETATM    2  C   UNL     1      24.371  48.870  48.706  1.00  0.00     0.037 C 
HETATM    3  N   UNL     1      25.581  48.431  49.251  1.00  0.00    -0.192 N 
HETATM    4  C   UNL     1      25.633  47.490  50.215  1.00  0.00     0.726 A 
HETATM    5  N   UNL     1      24.525  46.730  50.458  1.00  0.00    -0.083 N 
HETATM    6  N   UNL     1      24.695  45.923  51.524  1.00  0.00    -0.140 NA
HETATM    7  C   UNL     1      25.957  46.226  51.862  1.00  0.00     0.166 A 
HETATM    8  N   UNL     1      26.569  47.173  51.072  1.00  0.00    -0.046 NA
HETATM    9  C   UNL     1      23.275  46.853  49.709  1.00  0.00     0.202 C 
HETATM   10  C   UNL     1      23.231  48.161  48.923  1.00  0.00     0.062 C 
HETATM   11  H   UNL     1      26.364  49.078  49.190  1.00  0.00     0.184 HD
ENDROOT
BRANCH  10  12
HETATM   12  C   UNL     1      21.888  48.752  48.617  1.00  0.00     0.256 C 
HETATM   13  N   UNL     1      21.401  49.618  49.573  1.00  0.00    -0.323 N 
HETATM   14  H   UNL     1      21.897  49.698  50.449  1.00  0.00     0.169 HD
HETATM   15  O   UNL     1      21.350  48.495  47.545  1.00  0.00    -0.267 OA
BRANCH  13  16
HETATM   16  C   UNL     1      20.263  50.451  49.469  1.00  0.00     0.035 A 
HETATM   17  C   UNL     1      20.220  51.632  48.725  1.00  0.00     0.031 A 
HETATM   18  C   UNL     1      19.059  52.416  48.700  1.00  0.00     0.026 A 
HETATM   19  C   UNL     1      17.940  52.023  49.427  1.00  0.00     0.034 A 
HETATM   20 CL   UNL     1      16.521  52.994  49.408  1.00  0.00    -0.084 Cl
HETATM   21  C   UNL     1      17.967  50.848  50.171  1.00  0.00     0.026 A 
HETATM   22  C   UNL     1      19.123  50.062  50.187  1.00  0.00     0.031 A 
ENDBRANCH  13  16
ENDBRANCH  10  12
BRANCH   9  23
HETATM   23  C   UNL     1      23.104  45.606  48.835  1.00  0.00    -0.028 A 
HETATM   24  C   UNL     1      21.828  45.278  48.336  1.00  0.00     0.012 A 
HETATM   25  C   UNL     1      21.648  44.145  47.540  1.00  0.00     0.043 A 
HETATM   26  C   UNL     1      22.734  43.332  47.243  1.00  0.00     0.116 A 
HETATM   27  F   UNL     1      22.558  42.247  46.478  1.00  0.00    -0.206 F 
HETATM   28  C   UNL     1      24.000  43.625  47.733  1.00  0.00     0.043 A 
HETATM   29  C   UNL     1      24.184  44.755  48.534  1.00  0.00     0.012 A 
ENDBRANCH   9  23
BRANCH   7  30
HETATM   30  C   UNL     1      26.626  45.624  53.043  1.00  0.00     0.085 C 
BRANCH  30  31
HETATM   31  C   UNL     1      25.735  45.593  54.285  1.00  0.00     0.034 C 
BRANCH  31  32
HETATM   32  C   UNL     1      25.043  44.249  54.497  1.00  0.00     0.164 C 
BRANCH  32  33
HETATM   33  O   UNL     1      25.976  43.305  55.011  1.00  0.00    -0.401 OA
HETATM   34  H   UNL     1      25.660  43.026  55.887  1.00  0.00     0.209 HD
ENDBRANCH  32  33
ENDBRANCH  31  32
ENDBRANCH  30  31
ENDBRANCH   7  30
TORSDOF 7
ENDMDL
MODEL 10
REMARK VINA RESULT:      -7.9      5.776      8.972
REMARK  7 active torsions:
REMARK  status: ('A' for Active; 'I' for Inactive)
REMARK    1  A    between atoms: C_7  and  C_8 
REMARK    2  A    between atoms: C_8  and  C_9 
REMARK    3  A    between atoms: C_9  and  C_10 
REMARK    4  A    between atoms: C_10  and  O_11 
REMARK    5  A    between atoms: C_13  and  C_14 
REMARK    6  A    between atoms: C_21  and  C_22 
REMARK       I    between atoms: C_22  and  N_23 
REMARK    7  A    between atoms: N_23  and  C_24 
ROOT
HETATM    1  C   UNL     1      18.324  48.278  51.134  1.00  0.00     0.070 C 
HETATM    2  C   UNL     1      19.198  48.052  49.923  1.00  0.00     0.037 C 
HETATM    3  N   UNL     1      19.528  46.719  49.662  1.00  0.00    -0.192 N 
HETATM    4  C   UNL     1      20.035  46.325  48.476  1.00  0.00     0.726 A 
HETATM    5  N   UNL     1      20.521  47.271  47.619  1.00  0.00    -0.083 N 
HETATM    6  N   UNL     1      20.880  46.736  46.436  1.00  0.00    -0.140 NA
HETATM    7  C   UNL     1      20.612  45.441  46.660  1.00  0.00     0.166 A 
HETATM    8  N   UNL     1      20.105  45.150  47.907  1.00  0.00    -0.046 NA
HETATM    9  C   UNL     1      20.555  48.702  47.921  1.00  0.00     0.202 C 
HETATM   10  C   UNL     1      19.643  49.037  49.099  1.00  0.00     0.062 C 
HETATM   11  H   UNL     1      19.041  46.017  50.216  1.00  0.00     0.184 HD
ENDROOT
BRANCH  10  12
HETATM   12  C   UNL     1      19.069  50.420  49.171  1.00  0.00     0.256 C 
HETATM   13  N   UNL     1      17.759  50.529  48.753  1.00  0.00    -0.323 N 
HETATM   14  H   UNL     1      17.324  49.729  48.317  1.00  0.00     0.169 HD
HETATM   15  O   UNL     1      19.747  51.326  49.643  1.00  0.00    -0.267 OA
BRANCH  13  16
HETATM   16  C   UNL     1      16.915  51.655  48.881  1.00  0.00     0.035 A 
HETATM   17  C   UNL     1      16.891  52.497  49.996  1.00  0.00     0.031 A 
HETATM   18  C   UNL     1      16.000  53.576  50.054  1.00  0.00     0.026 A 
HETATM   19  C   UNL     1      15.124  53.812  48.999  1.00  0.00     0.034 A 
HETATM   20 CL   UNL     1      14.020  55.128  49.078  1.00  0.00    -0.084 Cl
HETATM   21  C   UNL     1      15.137  52.984  47.881  1.00  0.00     0.026 A 
HETATM   22  C   UNL     1      16.034  51.913  47.820  1.00  0.00     0.031 A 
ENDBRANCH  13  16
ENDBRANCH  10  12
BRANCH   9  23
HETATM   23  C   UNL     1      22.012  49.123  48.133  1.00  0.00    -0.028 A 
HETATM   24  C   UNL     1      22.483  50.315  47.549  1.00  0.00     0.012 A 
HETATM   25  C   UNL     1      23.808  50.718  47.727  1.00  0.00     0.043 A 
HETATM   26  C   UNL     1      24.671  49.933  48.481  1.00  0.00     0.116 A 
HETATM   27  F   UNL     1      25.940  50.323  48.651  1.00  0.00    -0.206 F 
HETATM   28  C   UNL     1      24.236  48.746  49.057  1.00  0.00     0.043 A 
HETATM   29  C   UNL     1      22.912  48.337  48.878  1.00  0.00     0.012 A 
ENDBRANCH   9  23
BRANCH   7  30
HETATM   30  C   UNL     1      20.793  44.403  45.614  1.00  0.00     0.085 C 
BRANCH  30  31
HETATM   31  C   UNL     1      20.889  42.987  46.184  1.00  0.00     0.034 C 
BRANCH  31  32
HETATM   32  C   UNL     1      22.248  42.681  46.808  1.00  0.00     0.164 C 
BRANCH  32  33
HETATM   33  O   UNL     1      22.147  42.734  48.227  1.00  0.00    -0.401 OA
HETATM   34  H   UNL     1      21.208  42.857  48.451  1.00  0.00     0.209 HD
ENDBRANCH  32  33
ENDBRANCH  31  32
ENDBRANCH  30  31
ENDBRANCH   7  30
TORSDOF 7
ENDMDL
