MODEL 1
REMARK VINA RESULT:      -9.3      0.000      0.000
REMARK  4 active torsions:
REMARK  status: ('A' for Active; 'I' for Inactive)
REMARK    1  A    between atoms: C_9  and  C_10 
REMARK    2  A    between atoms: C_20  and  C_21 
REMARK       I    between atoms: C_21  and  N_22 
REMARK    3  A    between atoms: N_22  and  C_23 
REMARK    4  A    between atoms: C_26  and  O_27 
ROOT
HETATM    1  C   UNL     1      28.410  40.509  49.961  1.00  0.00     0.070 C 
HETATM    2  C   UNL     1      27.168  41.320  50.237  1.00  0.00     0.037 A 
HETATM    3  N   UNL     1      26.266  41.408  49.185  1.00  0.00    -0.192 N 
HETATM    4  C   UNL     1      25.075  42.026  49.277  1.00  0.00     0.725 A 
HETATM    5  N   UNL     1      24.697  42.593  50.466  1.00  0.00    -0.084 N 
HETATM    6  N   UNL     1      23.437  43.074  50.389  1.00  0.00    -0.149 NA
HETATM    7  C   UNL     1      23.153  42.833  49.106  1.00  0.00     0.275 A 
HETATM    8  N   UNL     1      24.125  42.183  48.392  1.00  0.00    -0.054 NA
HETATM    9  C   UNL     1      25.509  42.557  51.689  1.00  0.00     0.203 A 
HETATM   10  C   UNL     1      26.872  41.904  51.424  1.00  0.00     0.062 A 
HETATM   11  H   UNL     1      26.501  40.940  48.313  1.00  0.00     0.184 HD
ENDROOT
BRANCH  10  12
HETATM   12  C   UNL     1      27.801  41.927  52.589  1.00  0.00     0.256 C 
HETATM   13  N   UNL     1      28.401  43.161  52.752  1.00  0.00    -0.323 N 
HETATM   14  H   UNL     1      28.252  43.847  52.026  1.00  0.00     0.169 HD
HETATM   15  O   UNL     1      27.907  40.938  53.295  1.00  0.00    -0.267 OA
BRANCH  13  16
HETATM   16  C   UNL     1      29.160  43.607  53.850  1.00  0.00     0.035 A 
HETATM   17  C   UNL     1      30.258  42.924  54.366  1.00  0.00     0.032 A 
HETATM   18  C   UNL     1      30.914  43.410  55.504  1.00  0.00     0.039 A 
HETATM   19  C   UNL     1      30.495  44.587  56.129  1.00  0.00     0.068 A 
HETATM   20  C   UNL     1      29.408  45.281  55.604  1.00  0.00     0.039 A 
HETATM   21  C   UNL     1      28.740  44.788  54.476  1.00  0.00     0.032 A 
BRANCH  19  22
HETATM   22  O   UNL     1      31.218  44.942  57.234  1.00  0.00    -0.356 OA
HETATM   23  C   UNL     1      30.553  45.735  58.210  1.00  0.00     0.210 C 
ENDBRANCH  19  22
ENDBRANCH  13  16
ENDBRANCH  10  12
BRANCH   9  24
HETATM   24  C   UNL     1      25.571  43.952  52.327  1.00  0.00    -0.017 A 
HETATM   25  C   UNL     1      25.950  45.109  51.569  1.00  0.00    -0.017 A 
HETATM   26  C   UNL     1      25.907  46.379  52.201  1.00  0.00    -0.025 A 
HETATM   27  C   UNL     1      26.383  45.083  50.218  1.00  0.00     0.013 A 
HETATM   28  C   UNL     1      26.253  47.541  51.487  1.00  0.00     0.012 A 
HETATM   29  C   UNL     1      25.528  46.483  53.545  1.00  0.00     0.012 A 
HETATM   30  C   UNL     1      26.661  47.476  50.159  1.00  0.00     0.001 A 
HETATM   31  C   UNL     1      26.733  46.246  49.526  1.00  0.00     0.001 A 
HETATM   32  C   UNL     1      25.215  45.353  54.290  1.00  0.00     0.002 A 
HETATM   33  C   UNL     1      25.249  44.098  53.693  1.00  0.00     0.010 A 
ENDBRANCH   9  24
TORSDOF 4
ENDMDL
MODEL 2
REMARK VINA RESULT:      -8.5      9.893     12.860
REMARK  4 active torsions:
REMARK  status: ('A' for Active; 'I' for Inactive)
REMARK    1  A    between atoms: C_9  and  C_10 
REMARK    2  A    between atoms: C_20  and  C_21 
REMARK       I    between atoms: C_21  and  N_22 
REMARK    3  A    between atoms: N_22  and  C_23 
REMARK    4  A    between atoms: C_26  and  O_27 
ROOT
HETATM    1  C   UNL     1      14.705  48.191  45.796  1.00  0.00     0.070 C 
HETATM    2  C   UNL     1      16.056  47.806  46.347  1.00  0.00     0.037 A 
HETATM    3  N   UNL     1      16.337  46.446  46.342  1.00  0.00    -0.192 N 
HETATM    4  C   UNL     1      17.519  45.931  46.725  1.00  0.00     0.725 A 
HETATM    5  N   UNL     1      18.524  46.770  47.129  1.00  0.00    -0.084 N 
HETATM    6  N   UNL     1      19.658  46.078  47.377  1.00  0.00    -0.149 NA
HETATM    7  C   UNL     1      19.236  44.825  47.179  1.00  0.00     0.275 A 
HETATM    8  N   UNL     1      17.936  44.692  46.769  1.00  0.00    -0.054 NA
HETATM    9  C   UNL     1      18.412  48.235  47.155  1.00  0.00     0.203 A 
HETATM   10  C   UNL     1      16.994  48.683  46.781  1.00  0.00     0.062 A 
HETATM   11  H   UNL     1      15.626  45.812  45.988  1.00  0.00     0.184 HD
ENDROOT
BRANCH  10  12
HETATM   12  C   UNL     1      16.765  50.152  46.891  1.00  0.00     0.256 C 
HETATM   13  N   UNL     1      15.938  50.473  47.949  1.00  0.00    -0.323 N 
HETATM   14  H   UNL     1      15.494  49.707  48.438  1.00  0.00     0.169 HD
HETATM   15  O   UNL     1      17.336  50.910  46.123  1.00  0.00    -0.267 OA
BRANCH  13  16
HETATM   16  C   UNL     1      15.676  51.751  48.477  1.00  0.00     0.035 A 
HETATM   17  C   UNL     1      14.897  52.712  47.840  1.00  0.00     0.032 A 
HETATM   18  C   UNL     1      14.744  53.982  48.409  1.00  0.00     0.039 A 
HETATM   19  C   UNL     1      15.353  54.303  49.625  1.00  0.00     0.068 A 
HETATM   20  C   UNL     1      16.118  53.337  50.273  1.00  0.00     0.039 A 
HETATM   21  C   UNL     1      16.285  52.072  49.697  1.00  0.00     0.032 A 
BRANCH  19  22
HETATM   22  O   UNL     1      15.130  55.579  50.062  1.00  0.00    -0.356 OA
HETATM   23  C   UNL     1      15.056  55.774  51.469  1.00  0.00     0.210 C 
ENDBRANCH  19  22
ENDBRANCH  13  16
ENDBRANCH  10  12
BRANCH   9  24
HETATM   24  C   UNL     1      18.936  48.784  48.489  1.00  0.00    -0.017 A 
HETATM   25  C   UNL     1      20.156  49.534  48.566  1.00  0.00    -0.017 A 
HETATM   26  C   UNL     1      20.539  50.082  49.818  1.00  0.00    -0.025 A 
HETATM   27  C   UNL     1      21.031  49.767  47.474  1.00  0.00     0.013 A 
HETATM   28  C   UNL     1      21.719  50.840  49.932  1.00  0.00     0.012 A 
HETATM   29  C   UNL     1      19.749  49.863  50.953  1.00  0.00     0.012 A 
HETATM   30  C   UNL     1      22.545  51.057  48.834  1.00  0.00     0.001 A 
HETATM   31  C   UNL     1      22.205  50.515  47.606  1.00  0.00     0.001 A 
HETATM   32  C   UNL     1      18.597  49.089  50.884  1.00  0.00     0.002 A 
HETATM   33  C   UNL     1      18.200  48.542  49.669  1.00  0.00     0.010 A 
ENDBRANCH   9  24
TORSDOF 4
ENDMDL
MODEL 3
REMARK VINA RESULT:      -8.5      6.379      9.902
REMARK  4 active torsions:
REMARK  status: ('A' for Active; 'I' for Inactive)
REMARK    1  A    between atoms: C_9  and  C_10 
REMARK    2  A    between atoms: C_20  and  C_21 
REMARK       I    between atoms: C_21  and  N_22 
REMARK    3  A    between atoms: N_22  and  C_23 
REMARK    4  A    between atoms: C_26  and  O_27 
ROOT
HETATM    1  C   UNL     1      24.714  47.771  50.004  1.00  0.00     0.070 C 
HETATM    2  C   UNL     1      24.001  46.550  49.479  1.00  0.00     0.037 A 
HETATM    3  N   UNL     1      24.635  45.339  49.719  1.00  0.00    -0.192 N 
HETATM    4  C   UNL     1      24.108  44.146  49.390  1.00  0.00     0.725 A 
HETATM    5  N   UNL     1      22.872  44.091  48.801  1.00  0.00    -0.084 N 
HETATM    6  N   UNL     1      22.473  42.811  48.638  1.00  0.00    -0.149 NA
HETATM    7  C   UNL     1      23.551  42.154  49.076  1.00  0.00     0.275 A 
HETATM    8  N   UNL     1      24.571  42.933  49.555  1.00  0.00    -0.054 NA
HETATM    9  C   UNL     1      22.045  45.271  48.514  1.00  0.00     0.203 A 
HETATM   10  C   UNL     1      22.797  46.564  48.856  1.00  0.00     0.062 A 
HETATM   11  H   UNL     1      25.525  45.354  50.211  1.00  0.00     0.184 HD
ENDROOT
BRANCH  10  12
HETATM   12  C   UNL     1      22.069  47.812  48.491  1.00  0.00     0.256 C 
HETATM   13  N   UNL     1      21.001  48.057  49.331  1.00  0.00    -0.323 N 
HETATM   14  H   UNL     1      20.759  47.334  49.995  1.00  0.00     0.169 HD
HETATM   15  O   UNL     1      22.482  48.505  47.574  1.00  0.00    -0.267 OA
BRANCH  13  16
HETATM   16  C   UNL     1      20.229  49.231  49.418  1.00  0.00     0.035 A 
HETATM   17  C   UNL     1      20.746  50.480  49.750  1.00  0.00     0.032 A 
HETATM   18  C   UNL     1      19.892  51.581  49.878  1.00  0.00     0.039 A 
HETATM   19  C   UNL     1      18.517  51.455  49.662  1.00  0.00     0.068 A 
HETATM   20  C   UNL     1      18.000  50.210  49.312  1.00  0.00     0.039 A 
HETATM   21  C   UNL     1      18.851  49.104  49.201  1.00  0.00     0.032 A 
BRANCH  19  22
HETATM   22  O   UNL     1      17.798  52.606  49.828  1.00  0.00    -0.356 OA
HETATM   23  C   UNL     1      16.385  52.474  49.925  1.00  0.00     0.210 C 
ENDBRANCH  19  22
ENDBRANCH  13  16
ENDBRANCH  10  12
BRANCH   9  24
HETATM   24  C   UNL     1      21.496  45.199  47.082  1.00  0.00    -0.017 A 
HETATM   25  C   UNL     1      20.091  45.295  46.812  1.00  0.00    -0.017 A 
HETATM   26  C   UNL     1      19.658  45.303  45.460  1.00  0.00    -0.025 A 
HETATM   27  C   UNL     1      19.080  45.371  47.804  1.00  0.00     0.013 A 
HETATM   28  C   UNL     1      18.290  45.414  45.151  1.00  0.00     0.012 A 
HETATM   29  C   UNL     1      20.592  45.191  44.423  1.00  0.00     0.012 A 
HETATM   30  C   UNL     1      17.329  45.499  46.153  1.00  0.00     0.001 A 
HETATM   31  C   UNL     1      17.724  45.471  47.481  1.00  0.00     0.001 A 
HETATM   32  C   UNL     1      21.947  45.043  44.692  1.00  0.00     0.002 A 
HETATM   33  C   UNL     1      22.395  45.033  46.008  1.00  0.00     0.010 A 
ENDBRANCH   9  24
TORSDOF 4
ENDMDL
MODEL 4
REMARK VINA RESULT:      -8.5     16.031     18.241
REMARK  4 active torsions:
REMARK  status: ('A' for Active; 'I' for Inactive)
REMARK    1  A    between atoms: C_9  and  C_10 
REMARK    2  A    between atoms: C_20  and  C_21 
REMARK       I    between atoms: C_21  and  N_22 
REMARK    3  A    between atoms: N_22  and  C_23 
REMARK    4  A    between atoms: C_26  and  O_27 
ROOT
HETATM    1  C   UNL     1      39.241  42.535  62.741  1.00  0.00     0.070 C 
HETATM    2  C   UNL     1      39.777  43.773  63.417  1.00  0.00     0.037 A 
HETATM    3  N   UNL     1      41.149  43.958  63.323  1.00  0.00    -0.192 N 
HETATM    4  C   UNL     1      41.787  45.043  63.800  1.00  0.00     0.725 A 
HETATM    5  N   UNL     1      41.066  46.042  64.400  1.00  0.00    -0.084 N 
HETATM    6  N   UNL     1      41.864  47.084  64.721  1.00  0.00    -0.149 NA
HETATM    7  C   UNL     1      43.059  46.606  64.360  1.00  0.00     0.275 A 
HETATM    8  N   UNL     1      43.055  45.364  63.782  1.00  0.00    -0.054 NA
HETATM    9  C   UNL     1      39.605  46.029  64.545  1.00  0.00     0.203 A 
HETATM   10  C   UNL     1      39.015  44.705  64.042  1.00  0.00     0.062 A 
HETATM   11  H   UNL     1      41.694  43.257  62.827  1.00  0.00     0.184 HD
ENDROOT
BRANCH  10  12
HETATM   12  C   UNL     1      37.547  44.566  64.256  1.00  0.00     0.256 C 
HETATM   13  N   UNL     1      37.249  43.626  65.223  1.00  0.00    -0.323 N 
HETATM   14  H   UNL     1      38.013  43.068  65.577  1.00  0.00     0.169 HD
HETATM   15  O   UNL     1      36.777  45.286  63.642  1.00  0.00    -0.267 OA
BRANCH  13  16
HETATM   16  C   UNL     1      36.001  43.384  65.828  1.00  0.00     0.035 A 
HETATM   17  C   UNL     1      35.489  44.133  66.884  1.00  0.00     0.032 A 
HETATM   18  C   UNL     1      34.267  43.778  67.467  1.00  0.00     0.039 A 
HETATM   19  C   UNL     1      33.535  42.685  66.996  1.00  0.00     0.068 A 
HETATM   20  C   UNL     1      34.036  41.946  65.929  1.00  0.00     0.039 A 
HETATM   21  C   UNL     1      35.266  42.289  65.355  1.00  0.00     0.032 A 
BRANCH  19  22
HETATM   22  O   UNL     1      32.365  42.445  67.662  1.00  0.00    -0.356 OA
HETATM   23  C   UNL     1      32.157  43.157  68.876  1.00  0.00     0.210 C 
ENDBRANCH  19  22
ENDBRANCH  13  16
ENDBRANCH  10  12
BRANCH   9  24
HETATM   24  C   UNL     1      39.210  46.412  65.978  1.00  0.00    -0.017 A 
HETATM   25  C   UNL     1      38.611  47.679  66.279  1.00  0.00    -0.017 A 
HETATM   26  C   UNL     1      38.196  47.936  67.612  1.00  0.00    -0.025 A 
HETATM   27  C   UNL     1      38.408  48.721  65.338  1.00  0.00     0.013 A 
HETATM   28  C   UNL     1      37.587  49.159  67.945  1.00  0.00     0.012 A 
HETATM   29  C   UNL     1      38.398  46.973  68.609  1.00  0.00     0.012 A 
HETATM   30  C   UNL     1      37.394  50.152  66.990  1.00  0.00     0.001 A 
HETATM   31  C   UNL     1      37.810  49.936  65.687  1.00  0.00     0.001 A 
HETATM   32  C   UNL     1      39.029  45.768  68.323  1.00  0.00     0.002 A 
HETATM   33  C   UNL     1      39.444  45.494  67.025  1.00  0.00     0.010 A 
ENDBRANCH   9  24
TORSDOF 4
ENDMDL
MODEL 5
REMARK VINA RESULT:      -8.5     12.702     15.936
REMARK  4 active torsions:
REMARK  status: ('A' for Active; 'I' for Inactive)
REMARK    1  A    between atoms: C_9  and  C_10 
REMARK    2  A    between atoms: C_20  and  C_21 
REMARK       I    between atoms: C_21  and  N_22 
REMARK    3  A    between atoms: N_22  and  C_23 
REMARK    4  A    between atoms: C_26  and  O_27 
ROOT
HETATM    1  C   UNL     1      13.757  55.354  45.782  1.00  0.00     0.070 C 
HETATM    2  C   UNL     1      14.187  54.639  47.039  1.00  0.00     0.037 A 
HETATM    3  N   UNL     1      13.915  55.304  48.227  1.00  0.00    -0.192 N 
HETATM    4  C   UNL     1      14.160  54.783  49.443  1.00  0.00     0.725 A 
HETATM    5  N   UNL     1      14.690  53.524  49.546  1.00  0.00    -0.084 N 
HETATM    6  N   UNL     1      14.770  53.140  50.838  1.00  0.00    -0.149 NA
HETATM    7  C   UNL     1      14.348  54.248  51.456  1.00  0.00     0.275 A 
HETATM    8  N   UNL     1      13.955  55.274  50.638  1.00  0.00    -0.054 NA
HETATM    9  C   UNL     1      14.999  52.665  48.394  1.00  0.00     0.203 A 
HETATM   10  C   UNL     1      14.756  53.409  47.074  1.00  0.00     0.062 A 
HETATM   11  H   UNL     1      13.465  56.214  48.173  1.00  0.00     0.184 HD
ENDROOT
BRANCH  10  12
HETATM   12  C   UNL     1      15.151  52.644  45.858  1.00  0.00     0.256 C 
HETATM   13  N   UNL     1      16.395  53.019  45.388  1.00  0.00    -0.323 N 
HETATM   14  H   UNL     1      16.830  53.821  45.822  1.00  0.00     0.169 HD
HETATM   15  O   UNL     1      14.418  51.765  45.434  1.00  0.00    -0.267 OA
BRANCH  13  16
HETATM   16  C   UNL     1      17.168  52.378  44.402  1.00  0.00     0.035 A 
HETATM   17  C   UNL     1      17.201  52.764  43.065  1.00  0.00     0.032 A 
HETATM   18  C   UNL     1      17.950  52.027  42.140  1.00  0.00     0.039 A 
HETATM   19  C   UNL     1      18.684  50.907  42.539  1.00  0.00     0.068 A 
HETATM   20  C   UNL     1      18.667  50.530  43.878  1.00  0.00     0.039 A 
HETATM   21  C   UNL     1      17.906  51.256  44.802  1.00  0.00     0.032 A 
BRANCH  19  22
HETATM   22  O   UNL     1      19.362  50.275  41.534  1.00  0.00    -0.356 OA
HETATM   23  C   UNL     1      20.537  50.913  41.048  1.00  0.00     0.210 C 
ENDBRANCH  19  22
ENDBRANCH  13  16
ENDBRANCH  10  12
BRANCH   9  24
HETATM   24  C   UNL     1      16.399  52.054  48.548  1.00  0.00    -0.017 A 
HETATM   25  C   UNL     1      16.633  50.653  48.353  1.00  0.00    -0.017 A 
HETATM   26  C   UNL     1      17.965  50.169  48.430  1.00  0.00    -0.025 A 
HETATM   27  C   UNL     1      15.620  49.693  48.096  1.00  0.00     0.013 A 
HETATM   28  C   UNL     1      18.239  48.805  48.226  1.00  0.00     0.012 A 
HETATM   29  C   UNL     1      19.016  51.048  48.719  1.00  0.00     0.012 A 
HETATM   30  C   UNL     1      17.219  47.895  47.964  1.00  0.00     0.001 A 
HETATM   31  C   UNL     1      15.908  48.339  47.906  1.00  0.00     0.001 A 
HETATM   32  C   UNL     1      18.777  52.395  48.961  1.00  0.00     0.002 A 
HETATM   33  C   UNL     1      17.481  52.893  48.891  1.00  0.00     0.010 A 
ENDBRANCH   9  24
TORSDOF 4
ENDMDL
MODEL 6
REMARK VINA RESULT:      -8.3     15.893     18.450
REMARK  4 active torsions:
REMARK  status: ('A' for Active; 'I' for Inactive)
REMARK    1  A    between atoms: C_9  and  C_10 
REMARK    2  A    between atoms: C_20  and  C_21 
REMARK       I    between atoms: C_21  and  N_22 
REMARK    3  A    between atoms: N_22  and  C_23 
REMARK    4  A    between atoms: C_26  and  O_27 
ROOT
HETATM    1  C   UNL     1      37.011  46.922  64.222  1.00  0.00     0.070 C 
HETATM    2  C   UNL     1      36.928  45.454  64.558  1.00  0.00     0.037 A 
HETATM    3  N   UNL     1      35.717  45.030  65.088  1.00  0.00    -0.192 N 
HETATM    4  C   UNL     1      35.440  43.745  65.375  1.00  0.00     0.725 A 
HETATM    5  N   UNL     1      36.379  42.778  65.124  1.00  0.00    -0.084 N 
HETATM    6  N   UNL     1      35.883  41.549  65.383  1.00  0.00    -0.149 NA
HETATM    7  C   UNL     1      34.674  41.860  65.860  1.00  0.00     0.275 A 
HETATM    8  N   UNL     1      34.359  43.193  65.863  1.00  0.00    -0.054 NA
HETATM    9  C   UNL     1      37.694  43.045  64.528  1.00  0.00     0.203 A 
HETATM   10  C   UNL     1      37.914  44.551  64.333  1.00  0.00     0.062 A 
HETATM   11  H   UNL     1      34.985  45.723  65.223  1.00  0.00     0.184 HD
ENDROOT
BRANCH  10  12
HETATM   12  C   UNL     1      39.270  44.914  63.834  1.00  0.00     0.256 C 
HETATM   13  N   UNL     1      39.986  45.649  64.759  1.00  0.00    -0.323 N 
HETATM   14  H   UNL     1      39.493  45.957  65.585  1.00  0.00     0.169 HD
HETATM   15  O   UNL     1      39.639  44.510  62.743  1.00  0.00    -0.267 OA
BRANCH  13  16
HETATM   16  C   UNL     1      41.353  45.980  64.719  1.00  0.00     0.035 A 
HETATM   17  C   UNL     1      42.277  45.371  63.876  1.00  0.00     0.032 A 
HETATM   18  C   UNL     1      43.631  45.718  63.951  1.00  0.00     0.039 A 
HETATM   19  C   UNL     1      44.077  46.686  64.855  1.00  0.00     0.068 A 
HETATM   20  C   UNL     1      43.151  47.310  65.687  1.00  0.00     0.039 A 
HETATM   21  C   UNL     1      41.799  46.951  65.625  1.00  0.00     0.032 A 
BRANCH  19  22
HETATM   22  O   UNL     1      45.423  46.922  64.831  1.00  0.00    -0.356 OA
HETATM   23  C   UNL     1      46.120  46.804  66.065  1.00  0.00     0.210 C 
ENDBRANCH  19  22
ENDBRANCH  13  16
ENDBRANCH  10  12
BRANCH   9  24
HETATM   24  C   UNL     1      38.793  42.326  65.323  1.00  0.00    -0.017 A 
HETATM   25  C   UNL     1      39.424  41.137  64.828  1.00  0.00    -0.017 A 
HETATM   26  C   UNL     1      40.489  40.571  65.576  1.00  0.00    -0.025 A 
HETATM   27  C   UNL     1      39.054  40.463  63.636  1.00  0.00     0.013 A 
HETATM   28  C   UNL     1      41.146  39.415  65.116  1.00  0.00     0.012 A 
HETATM   29  C   UNL     1      40.887  41.155  66.785  1.00  0.00     0.012 A 
HETATM   30  C   UNL     1      40.762  38.789  63.934  1.00  0.00     0.001 A 
HETATM   31  C   UNL     1      39.710  39.310  63.197  1.00  0.00     0.001 A 
HETATM   32  C   UNL     1      40.237  42.276  67.288  1.00  0.00     0.002 A 
HETATM   33  C   UNL     1      39.191  42.848  66.573  1.00  0.00     0.010 A 
ENDBRANCH   9  24
TORSDOF 4
ENDMDL
MODEL 7
REMARK VINA RESULT:      -8.2     16.001     18.508
REMARK  4 active torsions:
REMARK  status: ('A' for Active; 'I' for Inactive)
REMARK    1  A    between atoms: C_9  and  C_10 
REMARK    2  A    between atoms: C_20  and  C_21 
REMARK       I    between atoms: C_21  and  N_22 
REMARK    3  A    between atoms: N_22  and  C_23 
REMARK    4  A    between atoms: C_26  and  O_27 
ROOT
HETATM    1  C   UNL     1      35.261  43.333  65.403  1.00  0.00     0.070 C 
HETATM    2  C   UNL     1      36.640  42.886  64.987  1.00  0.00     0.037 A 
HETATM    3  N   UNL     1      36.890  41.526  65.112  1.00  0.00    -0.192 N 
HETATM    4  C   UNL     1      38.037  40.943  64.718  1.00  0.00     0.725 A 
HETATM    5  N   UNL     1      39.022  41.704  64.145  1.00  0.00    -0.084 N 
HETATM    6  N   UNL     1      40.047  40.929  63.729  1.00  0.00    -0.149 NA
HETATM    7  C   UNL     1      39.645  39.728  64.158  1.00  0.00     0.275 A 
HETATM    8  N   UNL     1      38.415  39.691  64.759  1.00  0.00    -0.054 NA
HETATM    9  C   UNL     1      38.907  43.148  63.900  1.00  0.00     0.203 A 
HETATM   10  C   UNL     1      37.595  43.699  64.472  1.00  0.00     0.062 A 
HETATM   11  H   UNL     1      36.148  40.935  65.477  1.00  0.00     0.184 HD
ENDROOT
BRANCH  10  12
HETATM   12  C   UNL     1      37.451  45.178  64.363  1.00  0.00     0.256 C 
HETATM   13  N   UNL     1      37.939  45.833  65.477  1.00  0.00    -0.323 N 
HETATM   14  H   UNL     1      38.212  45.263  66.265  1.00  0.00     0.169 HD
HETATM   15  O   UNL     1      36.997  45.667  63.340  1.00  0.00    -0.267 OA
BRANCH  13  16
HETATM   16  C   UNL     1      38.159  47.215  65.633  1.00  0.00     0.035 A 
HETATM   17  C   UNL     1      37.228  48.094  66.177  1.00  0.00     0.032 A 
HETATM   18  C   UNL     1      37.507  49.465  66.233  1.00  0.00     0.039 A 
HETATM   19  C   UNL     1      38.721  49.972  65.763  1.00  0.00     0.068 A 
HETATM   20  C   UNL     1      39.661  49.091  65.235  1.00  0.00     0.039 A 
HETATM   21  C   UNL     1      39.377  47.722  65.162  1.00  0.00     0.032 A 
BRANCH  19  22
HETATM   22  O   UNL     1      38.860  51.328  65.869  1.00  0.00    -0.356 OA
HETATM   23  C   UNL     1      37.717  52.061  66.292  1.00  0.00     0.210 C 
ENDBRANCH  19  22
ENDBRANCH  13  16
ENDBRANCH  10  12
BRANCH   9  24
HETATM   24  C   UNL     1      40.176  43.869  64.375  1.00  0.00    -0.017 A 
HETATM   25  C   UNL     1      40.623  43.787  65.735  1.00  0.00    -0.017 A 
HETATM   26  C   UNL     1      41.848  44.412  66.087  1.00  0.00    -0.025 A 
HETATM   27  C   UNL     1      39.920  43.130  66.778  1.00  0.00     0.013 A 
HETATM   28  C   UNL     1      42.331  44.339  67.406  1.00  0.00     0.012 A 
HETATM   29  C   UNL     1      42.581  45.114  65.123  1.00  0.00     0.012 A 
HETATM   30  C   UNL     1      41.618  43.674  68.399  1.00  0.00     0.001 A 
HETATM   31  C   UNL     1      40.409  43.075  68.087  1.00  0.00     0.001 A 
HETATM   32  C   UNL     1      42.116  45.237  63.819  1.00  0.00     0.002 A 
HETATM   33  C   UNL     1      40.920  44.634  63.451  1.00  0.00     0.010 A 
ENDBRANCH   9  24
TORSDOF 4
ENDMDL
MODEL 8
REMARK VINA RESULT:      -8.1      7.456     10.510
REMARK  4 active torsions:
REMARK  status: ('A' for Active; 'I' for Inactive)
REMARK    1  A    between atoms: C_9  and  C_10 
REMARK    2  A    between atoms: C_20  and  C_21 
REMARK       I    between atoms: C_21  and  N_22 
REMARK    3  A    between atoms: N_22  and  C_23 
REMARK    4  A    between atoms: C_26  and  O_27 
ROOT
HETATM    1  C   UNL     1      19.359  52.369  48.640  1.00  0.00     0.070 C 
HETATM    2  C   UNL     1      18.836  51.315  47.695  1.00  0.00     0.037 A 
HETATM    3  N   UNL     1      17.760  51.699  46.908  1.00  0.00    -0.192 N 
HETATM    4  C   UNL     1      17.215  50.915  45.960  1.00  0.00     0.725 A 
HETATM    5  N   UNL     1      17.742  49.672  45.725  1.00  0.00    -0.084 N 
HETATM    6  N   UNL     1      17.129  49.081  44.676  1.00  0.00    -0.149 NA
HETATM    7  C   UNL     1      16.194  49.991  44.385  1.00  0.00     0.275 A 
HETATM    8  N   UNL     1      16.219  51.133  45.140  1.00  0.00    -0.054 NA
HETATM    9  C   UNL     1      18.905  49.124  46.435  1.00  0.00     0.203 A 
HETATM   10  C   UNL     1      19.371  50.078  47.543  1.00  0.00     0.062 A 
HETATM   11  H   UNL     1      17.394  52.640  47.024  1.00  0.00     0.184 HD
ENDROOT
BRANCH  10  12
HETATM   12  C   UNL     1      20.479  49.546  48.385  1.00  0.00     0.256 C 
HETATM   13  N   UNL     1      21.682  49.520  47.707  1.00  0.00    -0.323 N 
HETATM   14  H   UNL     1      21.661  49.734  46.720  1.00  0.00     0.169 HD
HETATM   15  O   UNL     1      20.263  49.249  49.549  1.00  0.00    -0.267 OA
BRANCH  13  16
HETATM   16  C   UNL     1      22.963  49.283  48.241  1.00  0.00     0.035 A 
HETATM   17  C   UNL     1      24.077  50.072  47.971  1.00  0.00     0.032 A 
HETATM   18  C   UNL     1      25.328  49.723  48.494  1.00  0.00     0.039 A 
HETATM   19  C   UNL     1      25.479  48.593  49.303  1.00  0.00     0.068 A 
HETATM   20  C   UNL     1      24.363  47.813  49.589  1.00  0.00     0.039 A 
HETATM   21  C   UNL     1      23.114  48.151  49.053  1.00  0.00     0.032 A 
BRANCH  19  22
HETATM   22  O   UNL     1      26.754  48.363  49.739  1.00  0.00    -0.356 OA
HETATM   23  C   UNL     1      27.784  49.160  49.167  1.00  0.00     0.210 C 
ENDBRANCH  19  22
ENDBRANCH  13  16
ENDBRANCH  10  12
BRANCH   9  24
HETATM   24  C   UNL     1      18.618  47.687  46.894  1.00  0.00    -0.017 A 
HETATM   25  C   UNL     1      19.414  46.582  46.445  1.00  0.00    -0.017 A 
HETATM   26  C   UNL     1      19.145  45.292  46.972  1.00  0.00    -0.025 A 
HETATM   27  C   UNL     1      20.459  46.675  45.490  1.00  0.00     0.013 A 
HETATM   28  C   UNL     1      19.915  44.185  46.572  1.00  0.00     0.012 A 
HETATM   29  C   UNL     1      18.103  45.112  47.890  1.00  0.00     0.012 A 
HETATM   30  C   UNL     1      20.941  44.318  45.642  1.00  0.00     0.001 A 
HETATM   31  C   UNL     1      21.209  45.563  45.095  1.00  0.00     0.001 A 
HETATM   32  C   UNL     1      17.300  46.176  48.281  1.00  0.00     0.002 A 
HETATM   33  C   UNL     1      17.544  47.449  47.778  1.00  0.00     0.010 A 
ENDBRANCH   9  24
TORSDOF 4
ENDMDL
MODEL 9
REMARK VINA RESULT:      -8.0      2.189      4.828
REMARK  4 active torsions:
REMARK  status: ('A' for Active; 'I' for Inactive)
REMARK    1  A    between atoms: C_9  and  C_10 
REMARK    2  A    between atoms: C_20  and  C_21 
REMARK       I    between atoms: C_21  and  N_22 
REMARK    3  A    between atoms: N_22  and  C_23 
REMARK    4  A    between atoms: C_26  and  O_27 
ROOT
HETATM    1  C   UNL     1      24.287  46.204  50.638  1.00  0.00     0.070 C 
HETATM    2  C   UNL     1      24.284  44.961  49.783  1.00  0.00     0.037 A 
HETATM    3  N   UNL     1      23.080  44.672  49.155  1.00  0.00    -0.192 N 
HETATM    4  C   UNL     1      22.917  43.647  48.299  1.00  0.00     0.725 A 
HETATM    5  N   UNL     1      23.983  42.840  47.998  1.00  0.00    -0.084 N 
HETATM    6  N   UNL     1      23.649  41.937  47.050  1.00  0.00    -0.149 NA
HETATM    7  C   UNL     1      22.349  42.208  46.891  1.00  0.00     0.275 A 
HETATM    8  N   UNL     1      21.864  43.255  47.628  1.00  0.00    -0.054 NA
HETATM    9  C   UNL     1      25.335  43.028  48.538  1.00  0.00     0.203 A 
HETATM   10  C   UNL     1      25.363  44.170  49.563  1.00  0.00     0.062 A 
HETATM   11  H   UNL     1      22.294  45.295  49.317  1.00  0.00     0.184 HD
ENDROOT
BRANCH  10  12
HETATM   12  C   UNL     1      26.676  44.354  50.242  1.00  0.00     0.256 C 
HETATM   13  N   UNL     1      26.652  43.917  51.552  1.00  0.00    -0.323 N 
HETATM   14  H   UNL     1      25.755  43.648  51.932  1.00  0.00     0.169 HD
HETATM   15  O   UNL     1      27.624  44.794  49.611  1.00  0.00    -0.267 OA
BRANCH  13  16
HETATM   16  C   UNL     1      27.747  43.742  52.419  1.00  0.00     0.035 A 
HETATM   17  C   UNL     1      28.778  42.834  52.198  1.00  0.00     0.032 A 
HETATM   18  C   UNL     1      29.794  42.681  53.149  1.00  0.00     0.039 A 
HETATM   19  C   UNL     1      29.802  43.442  54.321  1.00  0.00     0.068 A 
HETATM   20  C   UNL     1      28.782  44.364  54.535  1.00  0.00     0.039 A 
HETATM   21  C   UNL     1      27.756  44.506  53.593  1.00  0.00     0.032 A 
BRANCH  19  22
HETATM   22  O   UNL     1      30.846  43.186  55.166  1.00  0.00    -0.356 OA
HETATM   23  C   UNL     1      31.092  44.141  56.192  1.00  0.00     0.210 C 
ENDBRANCH  19  22
ENDBRANCH  13  16
ENDBRANCH  10  12
BRANCH   9  24
HETATM   24  C   UNL     1      25.897  41.691  49.041  1.00  0.00    -0.017 A 
HETATM   25  C   UNL     1      26.724  40.864  48.212  1.00  0.00    -0.017 A 
HETATM   26  C   UNL     1      27.276  39.680  48.767  1.00  0.00    -0.025 A 
HETATM   27  C   UNL     1      27.029  41.132  46.852  1.00  0.00     0.013 A 
HETATM   28  C   UNL     1      28.107  38.851  47.993  1.00  0.00     0.012 A 
HETATM   29  C   UNL     1      26.989  39.325  50.091  1.00  0.00     0.012 A 
HETATM   30  C   UNL     1      28.394  39.155  46.666  1.00  0.00     0.001 A 
HETATM   31  C   UNL     1      27.849  40.293  46.093  1.00  0.00     0.001 A 
HETATM   32  C   UNL     1      26.143  40.102  50.874  1.00  0.00     0.002 A 
HETATM   33  C   UNL     1      25.590  41.265  50.351  1.00  0.00     0.010 A 
ENDBRANCH   9  24
TORSDOF 4
ENDMDL
MODEL 10
REMARK VINA RESULT:      -8.0     15.963     18.464
REMARK  4 active torsions:
REMARK  status: ('A' for Active; 'I' for Inactive)
REMARK    1  A    between atoms: C_9  and  C_10 
REMARK    2  A    between atoms: C_20  and  C_21 
REMARK       I    between atoms: C_21  and  N_22 
REMARK    3  A    between atoms: N_22  and  C_23 
REMARK    4  A    between atoms: C_26  and  O_27 
ROOT
HETATM    1  C   UNL     1      39.249  41.710  63.404  1.00  0.00     0.070 C 
HETATM    2  C   UNL     1      38.391  42.632  64.235  1.00  0.00     0.037 A 
HETATM    3  N   UNL     1      37.144  42.133  64.587  1.00  0.00    -0.192 N 
HETATM    4  C   UNL     1      36.281  42.786  65.385  1.00  0.00     0.725 A 
HETATM    5  N   UNL     1      36.631  44.004  65.908  1.00  0.00    -0.084 N 
HETATM    6  N   UNL     1      35.682  44.452  66.759  1.00  0.00    -0.149 NA
HETATM    7  C   UNL     1      34.759  43.494  66.633  1.00  0.00     0.275 A 
HETATM    8  N   UNL     1      35.090  42.450  65.810  1.00  0.00    -0.054 NA
HETATM    9  C   UNL     1      37.925  44.658  65.674  1.00  0.00     0.203 A 
HETATM   10  C   UNL     1      38.775  43.853  64.682  1.00  0.00     0.062 A 
HETATM   11  H   UNL     1      36.891  41.205  64.259  1.00  0.00     0.184 HD
ENDROOT
BRANCH  10  12
HETATM   12  C   UNL     1      40.061  44.506  64.305  1.00  0.00     0.256 C 
HETATM   13  N   UNL     1      40.926  44.611  65.376  1.00  0.00    -0.323 N 
HETATM   14  H   UNL     1      40.566  44.363  66.287  1.00  0.00     0.169 HD
HETATM   15  O   UNL     1      40.258  44.822  63.143  1.00  0.00    -0.267 OA
BRANCH  13  16
HETATM   16  C   UNL     1      42.286  44.975  65.349  1.00  0.00     0.035 A 
HETATM   17  C   UNL     1      43.335  44.072  65.490  1.00  0.00     0.032 A 
HETATM   18  C   UNL     1      44.657  44.532  65.517  1.00  0.00     0.039 A 
HETATM   19  C   UNL     1      44.948  45.893  65.388  1.00  0.00     0.068 A 
HETATM   20  C   UNL     1      43.900  46.795  65.229  1.00  0.00     0.039 A 
HETATM   21  C   UNL     1      42.577  46.339  65.219  1.00  0.00     0.032 A 
BRANCH  19  22
HETATM   22  O   UNL     1      46.278  46.205  65.440  1.00  0.00    -0.356 OA
HETATM   23  C   UNL     1      46.662  47.474  64.923  1.00  0.00     0.210 C 
ENDBRANCH  19  22
ENDBRANCH  13  16
ENDBRANCH  10  12
BRANCH   9  24
HETATM   24  C   UNL     1      37.716  46.132  65.302  1.00  0.00    -0.017 A 
HETATM   25  C   UNL     1      38.426  47.184  65.969  1.00  0.00    -0.017 A 
HETATM   26  C   UNL     1      38.245  48.518  65.520  1.00  0.00    -0.025 A 
HETATM   27  C   UNL     1      39.302  46.996  67.070  1.00  0.00     0.013 A 
HETATM   28  C   UNL     1      38.938  49.576  66.136  1.00  0.00     0.012 A 
HETATM   29  C   UNL     1      37.367  48.791  64.465  1.00  0.00     0.012 A 
HETATM   30  C   UNL     1      39.798  49.350  67.205  1.00  0.00     0.001 A 
HETATM   31  C   UNL     1      39.975  48.059  67.677  1.00  0.00     0.001 A 
HETATM   32  C   UNL     1      36.639  47.775  63.857  1.00  0.00     0.002 A 
HETATM   33  C   UNL     1      36.800  46.460  64.280  1.00  0.00     0.010 A 
ENDBRANCH   9  24
TORSDOF 4
ENDMDL
