MODEL 1
REMARK VINA RESULT:      -8.2      0.000      0.000
REMARK  4 active torsions:
REMARK  status: ('A' for Active; 'I' for Inactive)
REMARK    1  A    between atoms: C_2  and  O_3 
REMARK    2  A    between atoms: O_3  and  C_4 
REMARK    3  A    between atoms: C_10  and  N_11 
REMARK       I    between atoms: N_11  and  C_12 
REMARK    4  A    between atoms: C_12  and  C_13 
ROOT
HETATM    1  N   UNL     1      27.984  45.931  54.936  1.00  0.00    -0.320 N 
HETATM    2  C   UNL     1      26.896  45.171  54.557  1.00  0.00     0.257 C 
HETATM    3  O   UNL     1      26.439  44.206  55.156  1.00  0.00    -0.267 OA
HETATM    4  H   UNL     1      28.185  46.786  54.429  1.00  0.00     0.169 HD
ENDROOT
BRANCH   2   5
HETATM    5  C   UNL     1      26.205  45.613  53.318  1.00  0.00     0.052 A 
HETATM    6  C   UNL     1      26.377  46.937  52.909  1.00  0.00     0.136 A 
HETATM    7  N   UNL     1      25.821  47.509  51.814  1.00  0.00    -0.238 NA
HETATM    8  C   UNL     1      25.014  46.687  51.107  1.00  0.00     0.177 A 
HETATM    9  C   UNL     1      24.775  45.365  51.461  1.00  0.00     0.083 A 
HETATM   10  N   UNL     1      24.329  47.031  49.978  1.00  0.00    -0.214 NA
HETATM   11  N   UNL     1      23.897  44.920  50.506  1.00  0.00    -0.342 N 
HETATM   12  C   UNL     1      25.362  44.773  52.580  1.00  0.00     0.052 A 
HETATM   13  H   UNL     1      23.489  43.997  50.451  1.00  0.00     0.167 HD
HETATM   14  C   UNL     1      23.657  45.952  49.631  1.00  0.00     0.103 A 
HETATM   15  C   UNL     1      22.739  45.821  48.475  1.00  0.00     0.091 C 
ENDBRANCH   2   5
BRANCH   1  16
HETATM   16  C   UNL     1      28.862  45.695  56.021  1.00  0.00     0.070 A 
HETATM   17  C   UNL     1      29.930  44.803  55.811  1.00  0.00     0.117 A 
HETATM   18  C   UNL     1      30.787  44.458  56.868  1.00  0.00     0.069 A 
HETATM   19 CL   UNL     1      32.053  43.301  56.672  1.00  0.00    -0.081 Cl
HETATM   20  C   UNL     1      30.619  45.047  58.121  1.00  0.00     0.027 A 
HETATM   21  C   UNL     1      29.585  45.960  58.323  1.00  0.00     0.004 A 
HETATM   22  C   UNL     1      28.707  46.277  57.282  1.00  0.00     0.032 A 
BRANCH  17  23
HETATM   23  O   UNL     1      30.071  44.233  54.565  1.00  0.00    -0.347 OA
BRANCH  23  24
HETATM   24  C   UNL     1      29.649  42.860  54.587  1.00  0.00     0.171 C 
HETATM   25  C   UNL     1      29.533  42.380  53.152  1.00  0.00     0.034 C 
ENDBRANCH  23  24
ENDBRANCH  17  23
ENDBRANCH   1  16
TORSDOF 4
ENDMDL
MODEL 2
REMARK VINA RESULT:      -8.1      2.520      4.150
REMARK  4 active torsions:
REMARK  status: ('A' for Active; 'I' for Inactive)
REMARK    1  A    between atoms: C_2  and  O_3 
REMARK    2  A    between atoms: O_3  and  C_4 
REMARK    3  A    between atoms: C_10  and  N_11 
REMARK       I    between atoms: N_11  and  C_12 
REMARK    4  A    between atoms: C_12  and  C_13 
ROOT
HETATM    1  N   UNL     1      26.643  44.619  51.749  1.00  0.00    -0.320 N 
HETATM    2  C   UNL     1      26.673  44.995  50.421  1.00  0.00     0.257 C 
HETATM    3  O   UNL     1      27.239  44.402  49.510  1.00  0.00    -0.267 OA
HETATM    4  H   UNL     1      26.031  45.118  52.385  1.00  0.00     0.169 HD
ENDROOT
BRANCH   2   5
HETATM    5  C   UNL     1      25.903  46.220  50.082  1.00  0.00     0.052 A 
HETATM    6  C   UNL     1      26.612  47.408  49.894  1.00  0.00     0.136 A 
HETATM    7  N   UNL     1      26.075  48.614  49.587  1.00  0.00    -0.238 NA
HETATM    8  C   UNL     1      24.728  48.614  49.496  1.00  0.00     0.177 A 
HETATM    9  C   UNL     1      23.950  47.479  49.691  1.00  0.00     0.083 A 
HETATM   10  N   UNL     1      23.954  49.703  49.215  1.00  0.00    -0.214 NA
HETATM   11  N   UNL     1      22.664  47.928  49.535  1.00  0.00    -0.342 N 
HETATM   12  C   UNL     1      24.506  46.235  49.991  1.00  0.00     0.052 A 
HETATM   13  H   UNL     1      21.822  47.375  49.620  1.00  0.00     0.167 HD
HETATM   14  C   UNL     1      22.711  49.271  49.246  1.00  0.00     0.103 A 
HETATM   15  C   UNL     1      21.491  50.082  49.026  1.00  0.00     0.091 C 
ENDBRANCH   2   5
BRANCH   1  16
HETATM   16  C   UNL     1      27.341  43.548  52.355  1.00  0.00     0.070 A 
HETATM   17  C   UNL     1      28.245  43.862  53.387  1.00  0.00     0.117 A 
HETATM   18  C   UNL     1      29.033  42.859  53.972  1.00  0.00     0.069 A 
HETATM   19 CL   UNL     1      30.216  43.218  55.177  1.00  0.00    -0.081 Cl
HETATM   20  C   UNL     1      28.877  41.531  53.575  1.00  0.00     0.027 A 
HETATM   21  C   UNL     1      27.955  41.210  52.580  1.00  0.00     0.004 A 
HETATM   22  C   UNL     1      27.197  42.214  51.969  1.00  0.00     0.032 A 
BRANCH  17  23
HETATM   23  O   UNL     1      28.382  45.182  53.758  1.00  0.00    -0.347 OA
BRANCH  23  24
HETATM   24  C   UNL     1      27.605  45.460  54.934  1.00  0.00     0.171 C 
HETATM   25  C   UNL     1      28.432  46.347  55.846  1.00  0.00     0.034 C 
ENDBRANCH  23  24
ENDBRANCH  17  23
ENDBRANCH   1  16
TORSDOF 4
ENDMDL
MODEL 3
REMARK VINA RESULT:      -8.0      1.579      2.860
REMARK  4 active torsions:
REMARK  status: ('A' for Active; 'I' for Inactive)
REMARK    1  A    between atoms: C_2  and  O_3 
REMARK    2  A    between atoms: O_3  and  C_4 
REMARK    3  A    between atoms: C_10  and  N_11 
REMARK       I    between atoms: N_11  and  C_12 
REMARK    4  A    between atoms: C_12  and  C_13 
ROOT
HETATM    1  N   UNL     1      27.936  44.745  53.750  1.00  0.00    -0.320 N 
HETATM    2  C   UNL     1      26.652  44.238  53.753  1.00  0.00     0.257 C 
HETATM    3  O   UNL     1      26.153  43.527  54.618  1.00  0.00    -0.267 OA
HETATM    4  H   UNL     1      28.190  45.430  53.047  1.00  0.00     0.169 HD
ENDROOT
BRANCH   2   5
HETATM    5  C   UNL     1      25.799  44.642  52.606  1.00  0.00     0.052 A 
HETATM    6  C   UNL     1      25.296  43.636  51.777  1.00  0.00     0.136 A 
HETATM    7  N   UNL     1      24.511  43.822  50.689  1.00  0.00    -0.238 NA
HETATM    8  C   UNL     1      24.246  45.116  50.410  1.00  0.00     0.177 A 
HETATM    9  C   UNL     1      24.726  46.175  51.172  1.00  0.00     0.083 A 
HETATM   10  N   UNL     1      23.494  45.561  49.361  1.00  0.00    -0.214 NA
HETATM   11  N   UNL     1      24.249  47.289  50.531  1.00  0.00    -0.342 N 
HETATM   12  C   UNL     1      25.521  45.980  52.303  1.00  0.00     0.052 A 
HETATM   13  H   UNL     1      24.411  48.249  50.799  1.00  0.00     0.167 HD
HETATM   14  C   UNL     1      23.510  46.876  49.449  1.00  0.00     0.103 A 
HETATM   15  C   UNL     1      22.852  47.827  48.522  1.00  0.00     0.091 C 
ENDBRANCH   2   5
BRANCH   1  16
HETATM   16  C   UNL     1      28.973  44.466  54.671  1.00  0.00     0.070 A 
HETATM   17  C   UNL     1      29.057  45.274  55.821  1.00  0.00     0.117 A 
HETATM   18  C   UNL     1      30.111  45.108  56.732  1.00  0.00     0.069 A 
HETATM   19 CL   UNL     1      30.297  46.137  58.106  1.00  0.00    -0.081 Cl
HETATM   20  C   UNL     1      31.050  44.096  56.532  1.00  0.00     0.027 A 
HETATM   21  C   UNL     1      30.950  43.269  55.415  1.00  0.00     0.004 A 
HETATM   22  C   UNL     1      29.921  43.457  54.486  1.00  0.00     0.032 A 
BRANCH  17  23
HETATM   23  O   UNL     1      28.118  46.268  55.991  1.00  0.00    -0.347 OA
BRANCH  23  24
HETATM   24  C   UNL     1      28.349  47.345  55.068  1.00  0.00     0.171 C 
HETATM   25  C   UNL     1      27.071  48.156  54.962  1.00  0.00     0.034 C 
ENDBRANCH  23  24
ENDBRANCH  17  23
ENDBRANCH   1  16
TORSDOF 4
ENDMDL
MODEL 4
REMARK VINA RESULT:      -7.9      2.156      3.773
REMARK  4 active torsions:
REMARK  status: ('A' for Active; 'I' for Inactive)
REMARK    1  A    between atoms: C_2  and  O_3 
REMARK    2  A    between atoms: O_3  and  C_4 
REMARK    3  A    between atoms: C_10  and  N_11 
REMARK       I    between atoms: N_11  and  C_12 
REMARK    4  A    between atoms: C_12  and  C_13 
ROOT
HETATM    1  N   UNL     1      26.811  44.882  52.190  1.00  0.00    -0.320 N 
HETATM    2  C   UNL     1      25.431  44.853  52.202  1.00  0.00     0.257 C 
HETATM    3  O   UNL     1      24.724  44.260  53.008  1.00  0.00    -0.267 OA
HETATM    4  H   UNL     1      27.282  45.516  51.554  1.00  0.00     0.169 HD
ENDROOT
BRANCH   2   5
HETATM    5  C   UNL     1      24.763  45.660  51.149  1.00  0.00     0.052 A 
HETATM    6  C   UNL     1      23.981  44.989  50.207  1.00  0.00     0.136 A 
HETATM    7  N   UNL     1      23.307  45.562  49.181  1.00  0.00    -0.238 NA
HETATM    8  C   UNL     1      23.465  46.900  49.091  1.00  0.00     0.177 A 
HETATM    9  C   UNL     1      24.242  47.637  49.976  1.00  0.00     0.083 A 
HETATM   10  N   UNL     1      22.904  47.701  48.139  1.00  0.00    -0.214 NA
HETATM   11  N   UNL     1      24.147  48.923  49.510  1.00  0.00    -0.342 N 
HETATM   12  C   UNL     1      24.922  47.047  51.043  1.00  0.00     0.052 A 
HETATM   13  H   UNL     1      24.599  49.737  49.903  1.00  0.00     0.167 HD
HETATM   14  C   UNL     1      23.329  48.918  48.406  1.00  0.00     0.103 A 
HETATM   15  C   UNL     1      23.015  50.148  47.641  1.00  0.00     0.091 C 
ENDBRANCH   2   5
BRANCH   1  16
HETATM   16  C   UNL     1      27.694  44.155  53.023  1.00  0.00     0.070 A 
HETATM   17  C   UNL     1      28.361  44.862  54.041  1.00  0.00     0.117 A 
HETATM   18  C   UNL     1      29.314  44.221  54.846  1.00  0.00     0.069 A 
HETATM   19 CL   UNL     1      30.216  45.077  56.045  1.00  0.00    -0.081 Cl
HETATM   20  C   UNL     1      29.561  42.859  54.682  1.00  0.00     0.027 A 
HETATM   21  C   UNL     1      28.876  42.145  53.700  1.00  0.00     0.004 A 
HETATM   22  C   UNL     1      27.953  42.790  52.871  1.00  0.00     0.032 A 
BRANCH  17  23
HETATM   23  O   UNL     1      28.101  46.208  54.179  1.00  0.00    -0.347 OA
BRANCH  23  24
HETATM   24  C   UNL     1      27.043  46.424  55.128  1.00  0.00     0.171 C 
HETATM   25  C   UNL     1      26.284  47.670  54.712  1.00  0.00     0.034 C 
ENDBRANCH  23  24
ENDBRANCH  17  23
ENDBRANCH   1  16
TORSDOF 4
ENDMDL
MODEL 5
REMARK VINA RESULT:      -7.7      2.146      3.701
REMARK  4 active torsions:
REMARK  status: ('A' for Active; 'I' for Inactive)
REMARK    1  A    between atoms: C_2  and  O_3 
REMARK    2  A    between atoms: O_3  and  C_4 
REMARK    3  A    between atoms: C_10  and  N_11 
REMARK       I    between atoms: N_11  and  C_12 
REMARK    4  A    between atoms: C_12  and  C_13 
ROOT
HETATM    1  N   UNL     1      26.936  43.842  52.850  1.00  0.00    -0.320 N 
HETATM    2  C   UNL     1      26.842  44.246  51.533  1.00  0.00     0.257 C 
HETATM    3  O   UNL     1      27.771  44.572  50.805  1.00  0.00    -0.267 OA
HETATM    4  H   UNL     1      26.112  43.470  53.309  1.00  0.00     0.169 HD
ENDROOT
BRANCH   2   5
HETATM    5  C   UNL     1      25.473  44.237  50.956  1.00  0.00     0.052 A 
HETATM    6  C   UNL     1      24.713  43.074  51.090  1.00  0.00     0.136 A 
HETATM    7  N   UNL     1      23.455  42.888  50.623  1.00  0.00    -0.238 NA
HETATM    8  C   UNL     1      22.951  43.945  49.950  1.00  0.00     0.177 A 
HETATM    9  C   UNL     1      23.651  45.129  49.755  1.00  0.00     0.083 A 
HETATM   10  N   UNL     1      21.716  43.999  49.372  1.00  0.00    -0.214 NA
HETATM   11  N   UNL     1      22.795  45.903  49.015  1.00  0.00    -0.342 N 
HETATM   12  C   UNL     1      24.941  45.324  50.251  1.00  0.00     0.052 A 
HETATM   13  H   UNL     1      22.976  46.837  48.672  1.00  0.00     0.167 HD
HETATM   14  C   UNL     1      21.641  45.187  48.809  1.00  0.00     0.103 A 
HETATM   15  C   UNL     1      20.498  45.722  48.032  1.00  0.00     0.091 C 
ENDBRANCH   2   5
BRANCH   1  16
HETATM   16  C   UNL     1      28.094  43.826  53.664  1.00  0.00     0.070 A 
HETATM   17  C   UNL     1      28.151  44.740  54.732  1.00  0.00     0.117 A 
HETATM   18  C   UNL     1      29.305  44.836  55.525  1.00  0.00     0.069 A 
HETATM   19 CL   UNL     1      29.447  46.006  56.787  1.00  0.00    -0.081 Cl
HETATM   20  C   UNL     1      30.381  43.979  55.295  1.00  0.00     0.027 A 
HETATM   21  C   UNL     1      30.314  43.046  54.262  1.00  0.00     0.004 A 
HETATM   22  C   UNL     1      29.180  42.974  53.447  1.00  0.00     0.032 A 
BRANCH  17  23
HETATM   23  O   UNL     1      27.076  45.577  54.935  1.00  0.00    -0.347 OA
BRANCH  23  24
HETATM   24  C   UNL     1      27.281  46.834  54.270  1.00  0.00     0.171 C 
HETATM   25  C   UNL     1      25.951  47.290  53.702  1.00  0.00     0.034 C 
ENDBRANCH  23  24
ENDBRANCH  17  23
ENDBRANCH   1  16
TORSDOF 4
ENDMDL
MODEL 6
REMARK VINA RESULT:      -7.7      4.415      5.959
REMARK  4 active torsions:
REMARK  status: ('A' for Active; 'I' for Inactive)
REMARK    1  A    between atoms: C_2  and  O_3 
REMARK    2  A    between atoms: O_3  and  C_4 
REMARK    3  A    between atoms: C_10  and  N_11 
REMARK       I    between atoms: N_11  and  C_12 
REMARK    4  A    between atoms: C_12  and  C_13 
ROOT
HETATM    1  N   UNL     1      29.084  42.699  52.618  1.00  0.00    -0.320 N 
HETATM    2  C   UNL     1      28.405  41.499  52.549  1.00  0.00     0.257 C 
HETATM    3  O   UNL     1      27.856  40.921  53.479  1.00  0.00    -0.267 OA
HETATM    4  H   UNL     1      29.381  43.144  51.757  1.00  0.00     0.169 HD
ENDROOT
BRANCH   2   5
HETATM    5  C   UNL     1      28.310  40.892  51.197  1.00  0.00     0.052 A 
HETATM    6  C   UNL     1      27.608  41.591  50.213  1.00  0.00     0.136 A 
HETATM    7  N   UNL     1      27.419  41.187  48.934  1.00  0.00    -0.238 NA
HETATM    8  C   UNL     1      27.952  39.979  48.648  1.00  0.00     0.177 A 
HETATM    9  C   UNL     1      28.645  39.213  49.577  1.00  0.00     0.083 A 
HETATM   10  N   UNL     1      27.883  39.350  47.439  1.00  0.00    -0.214 NA
HETATM   11  N   UNL     1      28.981  38.077  48.886  1.00  0.00    -0.342 N 
HETATM   12  C   UNL     1      28.854  39.639  50.890  1.00  0.00     0.052 A 
HETATM   13  H   UNL     1      29.485  37.281  49.251  1.00  0.00     0.167 HD
HETATM   14  C   UNL     1      28.506  38.201  47.603  1.00  0.00     0.103 A 
HETATM   15  C   UNL     1      28.684  37.143  46.581  1.00  0.00     0.091 C 
ENDBRANCH   2   5
BRANCH   1  16
HETATM   16  C   UNL     1      29.386  43.451  53.778  1.00  0.00     0.070 A 
HETATM   17  C   UNL     1      28.587  44.577  54.050  1.00  0.00     0.117 A 
HETATM   18  C   UNL     1      28.884  45.416  55.135  1.00  0.00     0.069 A 
HETATM   19 CL   UNL     1      27.981  46.854  55.448  1.00  0.00    -0.081 Cl
HETATM   20  C   UNL     1      29.941  45.101  55.989  1.00  0.00     0.027 A 
HETATM   21  C   UNL     1      30.712  43.966  55.746  1.00  0.00     0.004 A 
HETATM   22  C   UNL     1      30.441  43.149  54.643  1.00  0.00     0.032 A 
BRANCH  17  23
HETATM   23  O   UNL     1      27.551  44.868  53.189  1.00  0.00    -0.347 OA
BRANCH  23  24
HETATM   24  C   UNL     1      26.312  44.344  53.693  1.00  0.00     0.171 C 
HETATM   25  C   UNL     1      25.473  43.897  52.511  1.00  0.00     0.034 C 
ENDBRANCH  23  24
ENDBRANCH  17  23
ENDBRANCH   1  16
TORSDOF 4
ENDMDL
MODEL 7
REMARK VINA RESULT:      -7.5      6.549      9.169
REMARK  4 active torsions:
REMARK  status: ('A' for Active; 'I' for Inactive)
REMARK    1  A    between atoms: C_2  and  O_3 
REMARK    2  A    between atoms: O_3  and  C_4 
REMARK    3  A    between atoms: C_10  and  N_11 
REMARK       I    between atoms: N_11  and  C_12 
REMARK    4  A    between atoms: C_12  and  C_13 
ROOT
HETATM    1  N   UNL     1      23.107  49.624  48.450  1.00  0.00    -0.320 N 
HETATM    2  C   UNL     1      22.284  50.386  49.255  1.00  0.00     0.257 C 
HETATM    3  O   UNL     1      22.619  51.006  50.256  1.00  0.00    -0.267 OA
HETATM    4  H   UNL     1      22.742  49.267  47.574  1.00  0.00     0.169 HD
ENDROOT
BRANCH   2   5
HETATM    5  C   UNL     1      20.867  50.478  48.819  1.00  0.00     0.052 A 
HETATM    6  C   UNL     1      20.133  49.295  48.723  1.00  0.00     0.136 A 
HETATM    7  N   UNL     1      18.837  49.192  48.339  1.00  0.00    -0.238 NA
HETATM    8  C   UNL     1      18.263  50.367  48.002  1.00  0.00     0.177 A 
HETATM    9  C   UNL     1      18.933  51.584  48.050  1.00  0.00     0.083 A 
HETATM   10  N   UNL     1      16.978  50.525  47.570  1.00  0.00    -0.214 NA
HETATM   11  N   UNL     1      18.004  52.492  47.610  1.00  0.00    -0.342 N 
HETATM   12  C   UNL     1      20.262  51.690  48.462  1.00  0.00     0.052 A 
HETATM   13  H   UNL     1      18.144  53.486  47.499  1.00  0.00     0.167 HD
HETATM   14  C   UNL     1      16.841  51.814  47.335  1.00  0.00     0.103 A 
HETATM   15  C   UNL     1      15.625  52.490  46.824  1.00  0.00     0.091 C 
ENDBRANCH   2   5
BRANCH   1  16
HETATM   16  C   UNL     1      24.470  49.308  48.667  1.00  0.00     0.070 A 
HETATM   17  C   UNL     1      24.758  48.162  49.432  1.00  0.00     0.117 A 
HETATM   18  C   UNL     1      26.084  47.839  49.758  1.00  0.00     0.069 A 
HETATM   19 CL   UNL     1      26.471  46.493  50.767  1.00  0.00    -0.081 Cl
HETATM   20  C   UNL     1      27.131  48.622  49.271  1.00  0.00     0.027 A 
HETATM   21  C   UNL     1      26.852  49.736  48.482  1.00  0.00     0.004 A 
HETATM   22  C   UNL     1      25.529  50.082  48.187  1.00  0.00     0.032 A 
BRANCH  17  23
HETATM   23  O   UNL     1      23.705  47.408  49.903  1.00  0.00    -0.347 OA
BRANCH  23  24
HETATM   24  C   UNL     1      23.582  46.189  49.154  1.00  0.00     0.171 C 
HETATM   25  C   UNL     1      22.244  46.208  48.438  1.00  0.00     0.034 C 
ENDBRANCH  23  24
ENDBRANCH  17  23
ENDBRANCH   1  16
TORSDOF 4
ENDMDL
MODEL 8
REMARK VINA RESULT:      -7.3      6.827      9.855
REMARK  4 active torsions:
REMARK  status: ('A' for Active; 'I' for Inactive)
REMARK    1  A    between atoms: C_2  and  O_3 
REMARK    2  A    between atoms: O_3  and  C_4 
REMARK    3  A    between atoms: C_10  and  N_11 
REMARK       I    between atoms: N_11  and  C_12 
REMARK    4  A    between atoms: C_12  and  C_13 
ROOT
HETATM    1  N   UNL     1      22.139  48.688  49.498  1.00  0.00    -0.320 N 
HETATM    2  C   UNL     1      23.462  49.063  49.374  1.00  0.00     0.257 C 
HETATM    3  O   UNL     1      23.883  50.203  49.215  1.00  0.00    -0.267 OA
HETATM    4  H   UNL     1      21.924  47.732  49.760  1.00  0.00     0.169 HD
ENDROOT
BRANCH   2   5
HETATM    5  C   UNL     1      24.455  47.964  49.490  1.00  0.00     0.052 A 
HETATM    6  C   UNL     1      25.809  48.293  49.405  1.00  0.00     0.136 A 
HETATM    7  N   UNL     1      26.845  47.422  49.485  1.00  0.00    -0.238 NA
HETATM    8  C   UNL     1      26.475  46.132  49.629  1.00  0.00     0.177 A 
HETATM    9  C   UNL     1      25.149  45.721  49.700  1.00  0.00     0.083 A 
HETATM   10  N   UNL     1      27.328  45.069  49.717  1.00  0.00    -0.214 NA
HETATM   11  N   UNL     1      25.230  44.357  49.816  1.00  0.00    -0.342 N 
HETATM   12  C   UNL     1      24.084  46.621  49.635  1.00  0.00     0.052 A 
HETATM   13  H   UNL     1      24.452  43.715  49.879  1.00  0.00     0.167 HD
HETATM   14  C   UNL     1      26.558  44.006  49.826  1.00  0.00     0.103 A 
HETATM   15  C   UNL     1      27.011  42.599  49.928  1.00  0.00     0.091 C 
ENDBRANCH   2   5
BRANCH   1  16
HETATM   16  C   UNL     1      20.996  49.509  49.356  1.00  0.00     0.070 A 
HETATM   17  C   UNL     1      20.011  49.100  48.438  1.00  0.00     0.117 A 
HETATM   18  C   UNL     1      18.893  49.910  48.186  1.00  0.00     0.069 A 
HETATM   19 CL   UNL     1      17.710  49.486  47.002  1.00  0.00    -0.081 Cl
HETATM   20  C   UNL     1      18.723  51.101  48.892  1.00  0.00     0.027 A 
HETATM   21  C   UNL     1      19.676  51.492  49.830  1.00  0.00     0.004 A 
HETATM   22  C   UNL     1      20.810  50.704  50.056  1.00  0.00     0.032 A 
BRANCH  17  23
HETATM   23  O   UNL     1      20.205  47.922  47.751  1.00  0.00    -0.347 OA
BRANCH  23  24
HETATM   24  C   UNL     1      19.447  46.857  48.348  1.00  0.00     0.171 C 
HETATM   25  C   UNL     1      20.379  45.680  48.567  1.00  0.00     0.034 C 
ENDBRANCH  23  24
ENDBRANCH  17  23
ENDBRANCH   1  16
TORSDOF 4
ENDMDL
MODEL 9
REMARK VINA RESULT:      -7.2      2.855      4.544
REMARK  4 active torsions:
REMARK  status: ('A' for Active; 'I' for Inactive)
REMARK    1  A    between atoms: C_2  and  O_3 
REMARK    2  A    between atoms: O_3  and  C_4 
REMARK    3  A    between atoms: C_10  and  N_11 
REMARK       I    between atoms: N_11  and  C_12 
REMARK    4  A    between atoms: C_12  and  C_13 
ROOT
HETATM    1  N   UNL     1      25.240  46.566  51.961  1.00  0.00    -0.320 N 
HETATM    2  C   UNL     1      25.396  47.153  50.721  1.00  0.00     0.257 C 
HETATM    3  O   UNL     1      26.446  47.553  50.234  1.00  0.00    -0.267 OA
HETATM    4  H   UNL     1      24.344  46.154  52.199  1.00  0.00     0.169 HD
ENDROOT
BRANCH   2   5
HETATM    5  C   UNL     1      24.161  47.259  49.901  1.00  0.00     0.052 A 
HETATM    6  C   UNL     1      23.652  46.092  49.330  1.00  0.00     0.136 A 
HETATM    7  N   UNL     1      22.545  46.005  48.553  1.00  0.00    -0.238 NA
HETATM    8  C   UNL     1      21.936  47.187  48.320  1.00  0.00     0.177 A 
HETATM    9  C   UNL     1      22.393  48.395  48.835  1.00  0.00     0.083 A 
HETATM   10  N   UNL     1      20.817  47.364  47.559  1.00  0.00    -0.214 NA
HETATM   11  N   UNL     1      21.513  49.321  48.337  1.00  0.00    -0.342 N 
HETATM   12  C   UNL     1      23.524  48.480  49.648  1.00  0.00     0.052 A 
HETATM   13  H   UNL     1      21.542  50.319  48.494  1.00  0.00     0.167 HD
HETATM   14  C   UNL     1      20.579  48.659  47.578  1.00  0.00     0.103 A 
HETATM   15  C   UNL     1      19.477  49.362  46.877  1.00  0.00     0.091 C 
ENDBRANCH   2   5
BRANCH   1  16
HETATM   16  C   UNL     1      26.222  46.406  52.967  1.00  0.00     0.070 A 
HETATM   17  C   UNL     1      26.860  45.155  53.061  1.00  0.00     0.117 A 
HETATM   18  C   UNL     1      27.782  44.902  54.088  1.00  0.00     0.069 A 
HETATM   19 CL   UNL     1      28.517  43.353  54.289  1.00  0.00    -0.081 Cl
HETATM   20  C   UNL     1      28.116  45.913  54.989  1.00  0.00     0.027 A 
HETATM   21  C   UNL     1      27.515  47.165  54.877  1.00  0.00     0.004 A 
HETATM   22  C   UNL     1      26.568  47.409  53.876  1.00  0.00     0.032 A 
BRANCH  17  23
HETATM   23  O   UNL     1      26.509  44.173  52.161  1.00  0.00    -0.347 OA
BRANCH  23  24
HETATM   24  C   UNL     1      27.481  44.083  51.106  1.00  0.00     0.171 C 
HETATM   25  C   UNL     1      26.742  43.839  49.804  1.00  0.00     0.034 C 
ENDBRANCH  23  24
ENDBRANCH  17  23
ENDBRANCH   1  16
TORSDOF 4
ENDMDL
MODEL 10
REMARK VINA RESULT:      -7.1      1.867      2.836
REMARK  4 active torsions:
REMARK  status: ('A' for Active; 'I' for Inactive)
REMARK    1  A    between atoms: C_2  and  O_3 
REMARK    2  A    between atoms: O_3  and  C_4 
REMARK    3  A    between atoms: C_10  and  N_11 
REMARK       I    between atoms: N_11  and  C_12 
REMARK    4  A    between atoms: C_12  and  C_13 
ROOT
HETATM    1  N   UNL     1      26.764  44.775  53.276  1.00  0.00    -0.320 N 
HETATM    2  C   UNL     1      26.790  44.714  51.897  1.00  0.00     0.257 C 
HETATM    3  O   UNL     1      27.782  44.807  51.184  1.00  0.00    -0.267 OA
HETATM    4  H   UNL     1      25.901  44.551  53.759  1.00  0.00     0.169 HD
ENDROOT
BRANCH   2   5
HETATM    5  C   UNL     1      25.480  44.470  51.239  1.00  0.00     0.052 A 
HETATM    6  C   UNL     1      24.917  43.198  51.353  1.00  0.00     0.136 A 
HETATM    7  N   UNL     1      23.738  42.800  50.817  1.00  0.00    -0.238 NA
HETATM    8  C   UNL     1      23.109  43.751  50.093  1.00  0.00     0.177 A 
HETATM    9  C   UNL     1      23.614  45.033  49.915  1.00  0.00     0.083 A 
HETATM   10  N   UNL     1      21.919  43.591  49.443  1.00  0.00    -0.214 NA
HETATM   11  N   UNL     1      22.688  45.645  49.109  1.00  0.00    -0.342 N 
HETATM   12  C   UNL     1      24.820  45.446  50.482  1.00  0.00     0.052 A 
HETATM   13  H   UNL     1      22.732  46.592  48.759  1.00  0.00     0.167 HD
HETATM   14  C   UNL     1      21.683  44.744  48.852  1.00  0.00     0.103 A 
HETATM   15  C   UNL     1      20.517  45.073  47.998  1.00  0.00     0.091 C 
ENDBRANCH   2   5
BRANCH   1  16
HETATM   16  C   UNL     1      27.842  45.066  54.144  1.00  0.00     0.070 A 
HETATM   17  C   UNL     1      28.676  43.999  54.528  1.00  0.00     0.117 A 
HETATM   18  C   UNL     1      29.710  44.201  55.454  1.00  0.00     0.069 A 
HETATM   19 CL   UNL     1      30.696  42.900  56.015  1.00  0.00    -0.081 Cl
HETATM   20  C   UNL     1      29.957  45.480  55.954  1.00  0.00     0.027 A 
HETATM   21  C   UNL     1      29.158  46.547  55.548  1.00  0.00     0.004 A 
HETATM   22  C   UNL     1      28.102  46.341  54.654  1.00  0.00     0.032 A 
BRANCH  17  23
HETATM   23  O   UNL     1      28.408  42.746  54.022  1.00  0.00    -0.347 OA
BRANCH  23  24
HETATM   24  C   UNL     1      29.371  42.390  53.016  1.00  0.00     0.171 C 
HETATM   25  C   UNL     1      28.726  41.384  52.082  1.00  0.00     0.034 C 
ENDBRANCH  23  24
ENDBRANCH  17  23
ENDBRANCH   1  16
TORSDOF 4
ENDMDL
