MODEL 1
REMARK VINA RESULT:      -9.6      0.000      0.000
REMARK  3 active torsions:
REMARK  status: ('A' for Active; 'I' for Inactive)
REMARK    1  A    between atoms: C_4  and  N_5 
REMARK       I    between atoms: N_5  and  C_6 
REMARK       I    between atoms: C_6  and  N_7 
REMARK    2  A    between atoms: C_10  and  C_11 
REMARK    3  A    between atoms: C_24  and  O_25 
ROOT
HETATM    1  N   UNL     1      27.190  40.314  50.218  1.00  0.00    -0.306 N 
HETATM    2  C   UNL     1      27.311  41.669  50.036  1.00  0.00     0.323 C 
HETATM    3  N   UNL     1      27.533  42.382  51.222  1.00  0.00    -0.330 N 
HETATM    4  C   UNL     1      27.639  43.826  51.042  1.00  0.00     0.155 C 
HETATM    5  C   UNL     1      27.944  44.558  52.312  1.00  0.00     0.001 C 
HETATM    6  C   UNL     1      28.174  43.974  53.499  1.00  0.00    -0.046 C 
HETATM    7  C   UNL     1      28.124  42.479  53.641  1.00  0.00     0.059 C 
HETATM    8  C   UNL     1      28.342  41.792  52.295  1.00  0.00     0.132 C 
HETATM    9  O   UNL     1      27.229  42.230  48.945  1.00  0.00    -0.247 OA
HETATM   10  H   UNL     1      26.692  40.022  51.049  1.00  0.00     0.171 HD
ENDROOT
BRANCH   1  11
HETATM   11  C   UNL     1      27.332  39.315  49.232  1.00  0.00     0.070 A 
HETATM   12  C   UNL     1      26.346  39.077  48.268  1.00  0.00     0.039 A 
HETATM   13  C   UNL     1      26.553  38.134  47.254  1.00  0.00    -0.060 A 
HETATM   14  C   UNL     1      25.517  37.911  46.194  1.00  0.00     0.048 C 
HETATM   15  C   UNL     1      27.761  37.429  47.216  1.00  0.00     0.009 A 
HETATM   16  C   UNL     1      28.749  37.656  48.179  1.00  0.00     0.039 A 
HETATM   17  C   UNL     1      28.540  38.595  49.192  1.00  0.00     0.095 A 
BRANCH  17  18
HETATM   18  O   UNL     1      29.457  38.899  50.173  1.00  0.00    -0.354 OA
HETATM   19  C   UNL     1      29.943  37.797  50.931  1.00  0.00     0.210 C 
ENDBRANCH  17  18
ENDBRANCH   1  11
BRANCH   6  20
HETATM   20  C   UNL     1      28.572  44.685  54.669  1.00  0.00    -0.002 A 
HETATM   21  C   UNL     1      29.644  44.355  55.555  1.00  0.00     0.003 A 
HETATM   22  C   UNL     1      29.647  45.318  56.566  1.00  0.00     0.043 A 
HETATM   23  C   UNL     1      30.603  43.321  55.608  1.00  0.00     0.014 A 
HETATM   24  C   UNL     1      30.565  45.301  57.623  1.00  0.00     0.030 A 
HETATM   25  N   UNL     1      28.621  46.195  56.293  1.00  0.00    -0.364 N 
HETATM   26  C   UNL     1      31.506  44.266  57.650  1.00  0.00     0.002 A 
HETATM   27  C   UNL     1      31.527  43.289  56.657  1.00  0.00     0.001 A 
HETATM   28  H   UNL     1      28.390  46.998  56.861  1.00  0.00     0.165 HD
HETATM   29  C   UNL     1      27.957  45.816  55.155  1.00  0.00     0.101 A 
ENDBRANCH   6  20
TORSDOF 3
ENDMDL
MODEL 2
REMARK VINA RESULT:      -9.5      6.574      9.132
REMARK  3 active torsions:
REMARK  status: ('A' for Active; 'I' for Inactive)
REMARK    1  A    between atoms: C_4  and  N_5 
REMARK       I    between atoms: N_5  and  C_6 
REMARK       I    between atoms: C_6  and  N_7 
REMARK    2  A    between atoms: C_10  and  C_11 
REMARK    3  A    between atoms: C_24  and  O_25 
ROOT
HETATM    1  N   UNL     1      22.194  48.321  49.538  1.00  0.00    -0.306 N 
HETATM    2  C   UNL     1      23.547  48.553  49.495  1.00  0.00     0.323 C 
HETATM    3  N   UNL     1      24.318  47.504  50.012  1.00  0.00    -0.330 N 
HETATM    4  C   UNL     1      25.757  47.752  49.992  1.00  0.00     0.155 C 
HETATM    5  C   UNL     1      26.562  46.591  50.485  1.00  0.00     0.001 C 
HETATM    6  C   UNL     1      26.054  45.402  50.848  1.00  0.00    -0.046 C 
HETATM    7  C   UNL     1      24.573  45.152  50.795  1.00  0.00     0.059 C 
HETATM    8  C   UNL     1      23.889  46.113  49.826  1.00  0.00     0.132 C 
HETATM    9  O   UNL     1      24.057  49.582  49.055  1.00  0.00    -0.247 OA
HETATM   10  H   UNL     1      21.854  47.841  50.361  1.00  0.00     0.171 HD
ENDROOT
BRANCH   1  11
HETATM   11  C   UNL     1      21.201  48.982  48.787  1.00  0.00     0.070 A 
HETATM   12  C   UNL     1      20.766  50.274  49.104  1.00  0.00     0.039 A 
HETATM   13  C   UNL     1      19.837  50.934  48.291  1.00  0.00    -0.060 A 
HETATM   14  C   UNL     1      19.406  52.336  48.604  1.00  0.00     0.048 C 
HETATM   15  C   UNL     1      19.346  50.285  47.154  1.00  0.00     0.009 A 
HETATM   16  C   UNL     1      19.770  48.992  46.833  1.00  0.00     0.039 A 
HETATM   17  C   UNL     1      20.694  48.333  47.647  1.00  0.00     0.095 A 
BRANCH  17  18
HETATM   18  O   UNL     1      21.183  47.069  47.405  1.00  0.00    -0.354 OA
HETATM   19  C   UNL     1      20.826  46.495  46.152  1.00  0.00     0.210 C 
ENDBRANCH  17  18
ENDBRANCH   1  11
BRANCH   6  20
HETATM   20  C   UNL     1      26.849  44.274  51.208  1.00  0.00    -0.002 A 
HETATM   21  C   UNL     1      27.579  44.086  52.421  1.00  0.00     0.003 A 
HETATM   22  C   UNL     1      28.220  42.849  52.323  1.00  0.00     0.043 A 
HETATM   23  C   UNL     1      27.773  44.852  53.591  1.00  0.00     0.014 A 
HETATM   24  C   UNL     1      29.040  42.340  53.337  1.00  0.00     0.030 A 
HETATM   25  N   UNL     1      27.882  42.314  51.099  1.00  0.00    -0.364 N 
HETATM   26  C   UNL     1      29.214  43.120  54.485  1.00  0.00     0.002 A 
HETATM   27  C   UNL     1      28.590  44.359  54.613  1.00  0.00     0.001 A 
HETATM   28  H   UNL     1      28.204  41.419  50.760  1.00  0.00     0.165 HD
HETATM   29  C   UNL     1      27.064  43.172  50.411  1.00  0.00     0.101 A 
ENDBRANCH   6  20
TORSDOF 3
ENDMDL
MODEL 3
REMARK VINA RESULT:      -9.4      5.220      6.987
REMARK  3 active torsions:
REMARK  status: ('A' for Active; 'I' for Inactive)
REMARK    1  A    between atoms: C_4  and  N_5 
REMARK       I    between atoms: N_5  and  C_6 
REMARK       I    between atoms: C_6  and  N_7 
REMARK    2  A    between atoms: C_10  and  C_11 
REMARK    3  A    between atoms: C_24  and  O_25 
ROOT
HETATM    1  N   UNL     1      24.902  47.088  50.256  1.00  0.00    -0.306 N 
HETATM    2  C   UNL     1      24.871  45.926  50.987  1.00  0.00     0.323 C 
HETATM    3  N   UNL     1      25.791  45.898  52.045  1.00  0.00    -0.330 N 
HETATM    4  C   UNL     1      25.782  44.657  52.813  1.00  0.00     0.155 C 
HETATM    5  C   UNL     1      26.722  44.677  53.977  1.00  0.00     0.001 C 
HETATM    6  C   UNL     1      27.460  45.736  54.351  1.00  0.00    -0.046 C 
HETATM    7  C   UNL     1      27.399  47.024  53.580  1.00  0.00     0.059 C 
HETATM    8  C   UNL     1      26.099  47.127  52.785  1.00  0.00     0.132 C 
HETATM    9  O   UNL     1      24.122  44.980  50.751  1.00  0.00    -0.247 OA
HETATM   10  H   UNL     1      25.818  47.489  50.102  1.00  0.00     0.171 HD
ENDROOT
BRANCH   1  11
HETATM   11  C   UNL     1      23.893  47.571  49.398  1.00  0.00     0.070 A 
HETATM   12  C   UNL     1      22.753  46.818  49.094  1.00  0.00     0.039 A 
HETATM   13  C   UNL     1      21.731  47.358  48.304  1.00  0.00    -0.060 A 
HETATM   14  C   UNL     1      20.488  46.569  48.017  1.00  0.00     0.048 C 
HETATM   15  C   UNL     1      21.863  48.663  47.819  1.00  0.00     0.009 A 
HETATM   16  C   UNL     1      23.002  49.420  48.112  1.00  0.00     0.039 A 
HETATM   17  C   UNL     1      24.022  48.879  48.898  1.00  0.00     0.095 A 
BRANCH  17  18
HETATM   18  O   UNL     1      25.170  49.550  49.253  1.00  0.00    -0.354 OA
HETATM   19  C   UNL     1      26.098  49.793  48.201  1.00  0.00     0.210 C 
ENDBRANCH  17  18
ENDBRANCH   1  11
BRANCH   6  20
HETATM   20  C   UNL     1      28.264  45.768  55.528  1.00  0.00    -0.002 A 
HETATM   21  C   UNL     1      29.386  44.937  55.829  1.00  0.00     0.003 A 
HETATM   22  C   UNL     1      29.843  45.314  57.094  1.00  0.00     0.043 A 
HETATM   23  C   UNL     1      30.050  43.887  55.159  1.00  0.00     0.014 A 
HETATM   24  C   UNL     1      30.934  44.697  57.717  1.00  0.00     0.030 A 
HETATM   25  N   UNL     1      29.030  46.337  57.530  1.00  0.00    -0.364 N 
HETATM   26  C   UNL     1      31.575  43.660  57.030  1.00  0.00     0.002 A 
HETATM   27  C   UNL     1      31.141  43.259  55.768  1.00  0.00     0.001 A 
HETATM   28  H   UNL     1      29.133  46.807  58.418  1.00  0.00     0.165 HD
HETATM   29  C   UNL     1      28.064  46.612  56.598  1.00  0.00     0.101 A 
ENDBRANCH   6  20
TORSDOF 3
ENDMDL
MODEL 4
REMARK VINA RESULT:      -9.3      3.682      5.154
REMARK  3 active torsions:
REMARK  status: ('A' for Active; 'I' for Inactive)
REMARK    1  A    between atoms: C_4  and  N_5 
REMARK       I    between atoms: N_5  and  C_6 
REMARK       I    between atoms: C_6  and  N_7 
REMARK    2  A    between atoms: C_10  and  C_11 
REMARK    3  A    between atoms: C_24  and  O_25 
ROOT
HETATM    1  N   UNL     1      24.454  45.263  51.298  1.00  0.00    -0.306 N 
HETATM    2  C   UNL     1      25.099  46.407  51.697  1.00  0.00     0.323 C 
HETATM    3  N   UNL     1      25.863  46.251  52.862  1.00  0.00    -0.330 N 
HETATM    4  C   UNL     1      26.533  47.468  53.307  1.00  0.00     0.155 C 
HETATM    5  C   UNL     1      27.397  47.260  54.511  1.00  0.00     0.001 C 
HETATM    6  C   UNL     1      27.613  46.075  55.105  1.00  0.00    -0.046 C 
HETATM    7  C   UNL     1      26.963  44.825  54.585  1.00  0.00     0.059 C 
HETATM    8  C   UNL     1      26.560  44.985  53.120  1.00  0.00     0.132 C 
HETATM    9  O   UNL     1      25.023  47.484  51.108  1.00  0.00    -0.247 OA
HETATM   10  H   UNL     1      24.079  44.686  52.039  1.00  0.00     0.171 HD
ENDROOT
BRANCH   1  11
HETATM   11  C   UNL     1      23.932  44.992  50.017  1.00  0.00     0.070 A 
HETATM   12  C   UNL     1      23.054  45.870  49.372  1.00  0.00     0.039 A 
HETATM   13  C   UNL     1      22.618  45.612  48.066  1.00  0.00    -0.060 A 
HETATM   14  C   UNL     1      21.714  46.576  47.358  1.00  0.00     0.048 C 
HETATM   15  C   UNL     1      23.070  44.461  47.412  1.00  0.00     0.009 A 
HETATM   16  C   UNL     1      23.943  43.576  48.052  1.00  0.00     0.039 A 
HETATM   17  C   UNL     1      24.375  43.833  49.355  1.00  0.00     0.095 A 
BRANCH  17  18
HETATM   18  O   UNL     1      25.243  43.030  50.060  1.00  0.00    -0.354 OA
HETATM   19  C   UNL     1      26.576  42.972  49.563  1.00  0.00     0.210 C 
ENDBRANCH  17  18
ENDBRANCH   1  11
BRANCH   6  20
HETATM   20  C   UNL     1      28.528  45.882  56.183  1.00  0.00    -0.002 A 
HETATM   21  C   UNL     1      29.626  44.971  56.228  1.00  0.00     0.003 A 
HETATM   22  C   UNL     1      30.224  45.116  57.482  1.00  0.00     0.043 A 
HETATM   23  C   UNL     1      30.164  44.021  55.333  1.00  0.00     0.014 A 
HETATM   24  C   UNL     1      31.335  44.364  57.882  1.00  0.00     0.030 A 
HETATM   25  N   UNL     1      29.515  46.084  58.159  1.00  0.00    -0.364 N 
HETATM   26  C   UNL     1      31.848  43.430  56.974  1.00  0.00     0.002 A 
HETATM   27  C   UNL     1      31.272  43.260  55.717  1.00  0.00     0.001 A 
HETATM   28  H   UNL     1      29.728  46.397  59.095  1.00  0.00     0.165 HD
HETATM   29  C   UNL     1      28.479  46.545  57.388  1.00  0.00     0.101 A 
ENDBRANCH   6  20
TORSDOF 3
ENDMDL
MODEL 5
REMARK VINA RESULT:      -9.2      1.839      2.666
REMARK  3 active torsions:
REMARK  status: ('A' for Active; 'I' for Inactive)
REMARK    1  A    between atoms: C_4  and  N_5 
REMARK       I    between atoms: N_5  and  C_6 
REMARK       I    between atoms: C_6  and  N_7 
REMARK    2  A    between atoms: C_10  and  C_11 
REMARK    3  A    between atoms: C_24  and  O_25 
ROOT
HETATM    1  N   UNL     1      26.883  41.738  49.238  1.00  0.00    -0.306 N 
HETATM    2  C   UNL     1      27.464  41.109  50.311  1.00  0.00     0.323 C 
HETATM    3  N   UNL     1      27.902  41.987  51.312  1.00  0.00    -0.330 N 
HETATM    4  C   UNL     1      28.543  41.330  52.447  1.00  0.00     0.155 C 
HETATM    5  C   UNL     1      28.940  42.280  53.533  1.00  0.00     0.001 C 
HETATM    6  C   UNL     1      28.685  43.598  53.531  1.00  0.00    -0.046 C 
HETATM    7  C   UNL     1      27.963  44.239  52.379  1.00  0.00     0.059 C 
HETATM    8  C   UNL     1      27.144  43.208  51.604  1.00  0.00     0.132 C 
HETATM    9  O   UNL     1      27.606  39.892  50.405  1.00  0.00    -0.247 OA
HETATM   10  H   UNL     1      27.308  42.611  48.954  1.00  0.00     0.171 HD
ENDROOT
BRANCH   1  11
HETATM   11  C   UNL     1      26.035  41.152  48.276  1.00  0.00     0.070 A 
HETATM   12  C   UNL     1      24.651  41.064  48.460  1.00  0.00     0.039 A 
HETATM   13  C   UNL     1      23.828  40.550  47.450  1.00  0.00    -0.060 A 
HETATM   14  C   UNL     1      22.340  40.499  47.628  1.00  0.00     0.048 C 
HETATM   15  C   UNL     1      24.407  40.123  46.251  1.00  0.00     0.009 A 
HETATM   16  C   UNL     1      25.791  40.201  46.061  1.00  0.00     0.039 A 
HETATM   17  C   UNL     1      26.611  40.711  47.070  1.00  0.00     0.095 A 
BRANCH  17  18
HETATM   18  O   UNL     1      27.978  40.842  46.971  1.00  0.00    -0.354 OA
HETATM   19  C   UNL     1      28.491  41.004  45.653  1.00  0.00     0.210 C 
ENDBRANCH  17  18
ENDBRANCH   1  11
BRANCH   6  20
HETATM   20  C   UNL     1      28.973  44.465  54.626  1.00  0.00    -0.002 A 
HETATM   21  C   UNL     1      29.934  44.255  55.661  1.00  0.00     0.003 A 
HETATM   22  C   UNL     1      29.853  45.353  56.521  1.00  0.00     0.043 A 
HETATM   23  C   UNL     1      30.857  43.231  55.964  1.00  0.00     0.014 A 
HETATM   24  C   UNL     1      30.651  45.479  57.663  1.00  0.00     0.030 A 
HETATM   25  N   UNL     1      28.884  46.192  56.015  1.00  0.00    -0.364 N 
HETATM   26  C   UNL     1      31.559  44.450  57.939  1.00  0.00     0.002 A 
HETATM   27  C   UNL     1      31.662  43.341  57.103  1.00  0.00     0.001 A 
HETATM   28  H   UNL     1      28.614  47.069  56.436  1.00  0.00     0.165 HD
HETATM   29  C   UNL     1      28.336  45.659  54.877  1.00  0.00     0.101 A 
ENDBRANCH   6  20
TORSDOF 3
ENDMDL
MODEL 6
REMARK VINA RESULT:      -9.0      4.351      9.302
REMARK  3 active torsions:
REMARK  status: ('A' for Active; 'I' for Inactive)
REMARK    1  A    between atoms: C_4  and  N_5 
REMARK       I    between atoms: N_5  and  C_6 
REMARK       I    between atoms: C_6  and  N_7 
REMARK    2  A    between atoms: C_10  and  C_11 
REMARK    3  A    between atoms: C_24  and  O_25 
ROOT
HETATM    1  N   UNL     1      27.854  44.318  54.132  1.00  0.00    -0.306 N 
HETATM    2  C   UNL     1      28.139  44.117  52.804  1.00  0.00     0.323 C 
HETATM    3  N   UNL     1      27.044  44.316  51.953  1.00  0.00    -0.330 N 
HETATM    4  C   UNL     1      27.331  44.082  50.542  1.00  0.00     0.155 C 
HETATM    5  C   UNL     1      26.166  44.366  49.647  1.00  0.00     0.001 C 
HETATM    6  C   UNL     1      24.985  44.857  50.057  1.00  0.00    -0.046 C 
HETATM    7  C   UNL     1      24.738  45.153  51.509  1.00  0.00     0.059 C 
HETATM    8  C   UNL     1      26.054  45.355  52.258  1.00  0.00     0.132 C 
HETATM    9  O   UNL     1      29.244  43.786  52.377  1.00  0.00    -0.247 OA
HETATM   10  H   UNL     1      26.946  43.998  54.442  1.00  0.00     0.171 HD
ENDROOT
BRANCH   1  11
HETATM   11  C   UNL     1      28.781  44.558  55.167  1.00  0.00     0.070 A 
HETATM   12  C   UNL     1      29.847  43.689  55.426  1.00  0.00     0.039 A 
HETATM   13  C   UNL     1      30.797  43.998  56.407  1.00  0.00    -0.060 A 
HETATM   14  C   UNL     1      31.966  43.090  56.652  1.00  0.00     0.048 C 
HETATM   15  C   UNL     1      30.668  45.189  57.129  1.00  0.00     0.009 A 
HETATM   16  C   UNL     1      29.602  46.060  56.881  1.00  0.00     0.039 A 
HETATM   17  C   UNL     1      28.654  45.749  55.904  1.00  0.00     0.095 A 
BRANCH  17  18
HETATM   18  O   UNL     1      27.581  46.549  55.578  1.00  0.00    -0.354 OA
HETATM   19  C   UNL     1      27.886  47.721  54.830  1.00  0.00     0.210 C 
ENDBRANCH  17  18
ENDBRANCH   1  11
BRANCH   6  20
HETATM   20  C   UNL     1      23.928  45.226  49.173  1.00  0.00    -0.002 A 
HETATM   21  C   UNL     1      23.391  46.533  48.969  1.00  0.00     0.003 A 
HETATM   22  C   UNL     1      22.364  46.410  48.031  1.00  0.00     0.043 A 
HETATM   23  C   UNL     1      23.665  47.811  49.503  1.00  0.00     0.014 A 
HETATM   24  C   UNL     1      21.603  47.502  47.596  1.00  0.00     0.030 A 
HETATM   25  N   UNL     1      22.294  45.080  47.680  1.00  0.00    -0.364 N 
HETATM   26  C   UNL     1      21.896  48.757  48.141  1.00  0.00     0.002 A 
HETATM   27  C   UNL     1      22.912  48.912  49.081  1.00  0.00     0.001 A 
HETATM   28  H   UNL     1      21.638  44.701  47.012  1.00  0.00     0.165 HD
HETATM   29  C   UNL     1      23.226  44.352  48.373  1.00  0.00     0.101 A 
ENDBRANCH   6  20
TORSDOF 3
ENDMDL
MODEL 7
REMARK VINA RESULT:      -8.8      5.536      8.209
REMARK  3 active torsions:
REMARK  status: ('A' for Active; 'I' for Inactive)
REMARK    1  A    between atoms: C_4  and  N_5 
REMARK       I    between atoms: N_5  and  C_6 
REMARK       I    between atoms: C_6  and  N_7 
REMARK    2  A    between atoms: C_10  and  C_11 
REMARK    3  A    between atoms: C_24  and  O_25 
ROOT
HETATM    1  N   UNL     1      23.843  47.290  48.613  1.00  0.00    -0.306 N 
HETATM    2  C   UNL     1      23.466  46.096  49.177  1.00  0.00     0.323 C 
HETATM    3  N   UNL     1      24.535  45.352  49.692  1.00  0.00    -0.330 N 
HETATM    4  C   UNL     1      24.148  44.070  50.273  1.00  0.00     0.155 C 
HETATM    5  C   UNL     1      25.296  43.325  50.878  1.00  0.00     0.001 C 
HETATM    6  C   UNL     1      26.554  43.788  50.961  1.00  0.00    -0.046 C 
HETATM    7  C   UNL     1      26.912  45.141  50.414  1.00  0.00     0.059 C 
HETATM    8  C   UNL     1      25.678  46.034  50.311  1.00  0.00     0.132 C 
HETATM    9  O   UNL     1      22.306  45.693  49.230  1.00  0.00    -0.247 OA
HETATM   10  H   UNL     1      24.710  47.279  48.092  1.00  0.00     0.171 HD
ENDROOT
BRANCH   1  11
HETATM   11  C   UNL     1      23.011  48.399  48.352  1.00  0.00     0.070 A 
HETATM   12  C   UNL     1      21.687  48.251  47.925  1.00  0.00     0.039 A 
HETATM   13  C   UNL     1      20.863  49.370  47.754  1.00  0.00    -0.060 A 
HETATM   14  C   UNL     1      19.431  49.209  47.340  1.00  0.00     0.048 C 
HETATM   15  C   UNL     1      21.381  50.643  48.015  1.00  0.00     0.009 A 
HETATM   16  C   UNL     1      22.705  50.800  48.437  1.00  0.00     0.039 A 
HETATM   17  C   UNL     1      23.527  49.683  48.604  1.00  0.00     0.095 A 
BRANCH  17  18
HETATM   18  O   UNL     1      24.835  49.736  49.029  1.00  0.00    -0.354 OA
HETATM   19  C   UNL     1      25.802  50.026  48.026  1.00  0.00     0.210 C 
ENDBRANCH  17  18
ENDBRANCH   1  11
BRANCH   6  20
HETATM   20  C   UNL     1      27.608  43.108  51.641  1.00  0.00    -0.002 A 
HETATM   21  C   UNL     1      28.255  43.511  52.849  1.00  0.00     0.003 A 
HETATM   22  C   UNL     1      29.231  42.552  53.126  1.00  0.00     0.043 A 
HETATM   23  C   UNL     1      28.120  44.607  53.727  1.00  0.00     0.014 A 
HETATM   24  C   UNL     1      30.074  42.633  54.241  1.00  0.00     0.030 A 
HETATM   25  N   UNL     1      29.166  41.607  52.127  1.00  0.00    -0.364 N 
HETATM   26  C   UNL     1      29.917  43.729  55.096  1.00  0.00     0.002 A 
HETATM   27  C   UNL     1      28.954  44.704  54.845  1.00  0.00     0.001 A 
HETATM   28  H   UNL     1      29.760  40.792  52.074  1.00  0.00     0.165 HD
HETATM   29  C   UNL     1      28.197  41.939  51.216  1.00  0.00     0.101 A 
ENDBRANCH   6  20
TORSDOF 3
ENDMDL
MODEL 8
REMARK VINA RESULT:      -8.7      6.558      8.594
REMARK  3 active torsions:
REMARK  status: ('A' for Active; 'I' for Inactive)
REMARK    1  A    between atoms: C_4  and  N_5 
REMARK       I    between atoms: N_5  and  C_6 
REMARK       I    between atoms: C_6  and  N_7 
REMARK    2  A    between atoms: C_10  and  C_11 
REMARK    3  A    between atoms: C_24  and  O_25 
ROOT
HETATM    1  N   UNL     1      21.878  47.496  49.187  1.00  0.00    -0.306 N 
HETATM    2  C   UNL     1      23.168  47.966  49.164  1.00  0.00     0.323 C 
HETATM    3  N   UNL     1      24.057  47.217  49.947  1.00  0.00    -0.330 N 
HETATM    4  C   UNL     1      25.426  47.723  49.947  1.00  0.00     0.155 C 
HETATM    5  C   UNL     1      26.371  46.869  50.733  1.00  0.00     0.001 C 
HETATM    6  C   UNL     1      26.044  45.711  51.330  1.00  0.00    -0.046 C 
HETATM    7  C   UNL     1      24.641  45.179  51.258  1.00  0.00     0.059 C 
HETATM    8  C   UNL     1      23.894  45.763  50.060  1.00  0.00     0.132 C 
HETATM    9  O   UNL     1      23.532  48.954  48.529  1.00  0.00    -0.247 OA
HETATM   10  H   UNL     1      21.551  47.148  50.079  1.00  0.00     0.171 HD
ENDROOT
BRANCH   1  11
HETATM   11  C   UNL     1      20.860  47.781  48.254  1.00  0.00     0.070 A 
HETATM   12  C   UNL     1      20.734  47.074  47.053  1.00  0.00     0.039 A 
HETATM   13  C   UNL     1      19.664  47.326  46.186  1.00  0.00    -0.060 A 
HETATM   14  C   UNL     1      19.503  46.536  44.921  1.00  0.00     0.048 C 
HETATM   15  C   UNL     1      18.719  48.297  46.534  1.00  0.00     0.009 A 
HETATM   16  C   UNL     1      18.841  49.012  47.729  1.00  0.00     0.039 A 
HETATM   17  C   UNL     1      19.910  48.762  48.592  1.00  0.00     0.095 A 
BRANCH  17  18
HETATM   18  O   UNL     1      20.106  49.402  49.795  1.00  0.00    -0.354 OA
HETATM   19  C   UNL     1      19.014  49.356  50.708  1.00  0.00     0.210 C 
ENDBRANCH  17  18
ENDBRANCH   1  11
BRANCH   6  20
HETATM   20  C   UNL     1      26.985  44.858  51.979  1.00  0.00    -0.002 A 
HETATM   21  C   UNL     1      27.606  45.067  53.248  1.00  0.00     0.003 A 
HETATM   22  C   UNL     1      28.463  43.987  53.465  1.00  0.00     0.043 A 
HETATM   23  C   UNL     1      27.537  46.078  54.231  1.00  0.00     0.014 A 
HETATM   24  C   UNL     1      29.250  43.865  54.616  1.00  0.00     0.030 A 
HETATM   25  N   UNL     1      28.355  43.158  52.369  1.00  0.00    -0.364 N 
HETATM   26  C   UNL     1      29.161  44.881  55.575  1.00  0.00     0.002 A 
HETATM   27  C   UNL     1      28.317  45.973  55.387  1.00  0.00     0.001 A 
HETATM   28  H   UNL     1      28.865  42.294  52.256  1.00  0.00     0.165 HD
HETATM   29  C   UNL     1      27.474  43.681  51.459  1.00  0.00     0.101 A 
ENDBRANCH   6  20
TORSDOF 3
ENDMDL
MODEL 9
REMARK VINA RESULT:      -8.7      1.963      2.567
REMARK  3 active torsions:
REMARK  status: ('A' for Active; 'I' for Inactive)
REMARK    1  A    between atoms: C_4  and  N_5 
REMARK       I    between atoms: N_5  and  C_6 
REMARK       I    between atoms: C_6  and  N_7 
REMARK    2  A    between atoms: C_10  and  C_11 
REMARK    3  A    between atoms: C_24  and  O_25 
ROOT
HETATM    1  N   UNL     1      25.360  42.339  50.659  1.00  0.00    -0.306 N 
HETATM    2  C   UNL     1      25.563  43.690  50.798  1.00  0.00     0.323 C 
HETATM    3  N   UNL     1      26.174  44.048  52.007  1.00  0.00    -0.330 N 
HETATM    4  C   UNL     1      26.373  45.485  52.174  1.00  0.00     0.155 C 
HETATM    5  C   UNL     1      27.089  45.838  53.440  1.00  0.00     0.001 C 
HETATM    6  C   UNL     1      27.578  44.948  54.320  1.00  0.00    -0.046 C 
HETATM    7  C   UNL     1      27.418  43.472  54.088  1.00  0.00     0.059 C 
HETATM    8  C   UNL     1      27.185  43.171  52.609  1.00  0.00     0.132 C 
HETATM    9  O   UNL     1      25.239  44.527  49.958  1.00  0.00    -0.247 OA
HETATM   10  H   UNL     1      25.084  41.844  51.497  1.00  0.00     0.171 HD
ENDROOT
BRANCH   1  11
HETATM   11  C   UNL     1      25.122  41.642  49.456  1.00  0.00     0.070 A 
HETATM   12  C   UNL     1      23.836  41.497  48.923  1.00  0.00     0.039 A 
HETATM   13  C   UNL     1      23.643  40.870  47.686  1.00  0.00    -0.060 A 
HETATM   14  C   UNL     1      22.271  40.756  47.092  1.00  0.00     0.048 C 
HETATM   15  C   UNL     1      24.754  40.386  46.987  1.00  0.00     0.009 A 
HETATM   16  C   UNL     1      26.042  40.522  47.516  1.00  0.00     0.039 A 
HETATM   17  C   UNL     1      26.233  41.145  48.751  1.00  0.00     0.095 A 
BRANCH  17  18
HETATM   18  O   UNL     1      27.460  41.338  49.344  1.00  0.00    -0.354 OA
HETATM   19  C   UNL     1      28.199  40.157  49.639  1.00  0.00     0.210 C 
ENDBRANCH  17  18
ENDBRANCH   1  11
BRANCH   6  20
HETATM   20  C   UNL     1      28.355  45.305  55.461  1.00  0.00    -0.002 A 
HETATM   21  C   UNL     1      29.534  44.656  55.938  1.00  0.00     0.003 A 
HETATM   22  C   UNL     1      29.937  45.338  57.089  1.00  0.00     0.043 A 
HETATM   23  C   UNL     1      30.293  43.543  55.516  1.00  0.00     0.014 A 
HETATM   24  C   UNL     1      31.063  44.965  57.833  1.00  0.00     0.030 A 
HETATM   25  N   UNL     1      29.037  46.361  57.289  1.00  0.00    -0.364 N 
HETATM   26  C   UNL     1      31.797  43.859  57.391  1.00  0.00     0.002 A 
HETATM   27  C   UNL     1      31.420  43.156  56.249  1.00  0.00     0.001 A 
HETATM   28  H   UNL     1      29.085  47.021  58.051  1.00  0.00     0.165 HD
HETATM   29  C   UNL     1      28.069  46.344  56.318  1.00  0.00     0.101 A 
ENDBRANCH   6  20
TORSDOF 3
ENDMDL
MODEL 10
REMARK VINA RESULT:      -8.6      4.459      5.840
REMARK  3 active torsions:
REMARK  status: ('A' for Active; 'I' for Inactive)
REMARK    1  A    between atoms: C_4  and  N_5 
REMARK       I    between atoms: N_5  and  C_6 
REMARK       I    between atoms: C_6  and  N_7 
REMARK    2  A    between atoms: C_10  and  C_11 
REMARK    3  A    between atoms: C_24  and  O_25 
ROOT
HETATM    1  N   UNL     1      23.265  44.652  49.467  1.00  0.00    -0.306 N 
HETATM    2  C   UNL     1      23.866  45.852  49.759  1.00  0.00     0.323 C 
HETATM    3  N   UNL     1      24.664  45.820  50.910  1.00  0.00    -0.330 N 
HETATM    4  C   UNL     1      25.288  47.097  51.242  1.00  0.00     0.155 C 
HETATM    5  C   UNL     1      26.189  47.022  52.434  1.00  0.00     0.001 C 
HETATM    6  C   UNL     1      26.475  45.898  53.111  1.00  0.00    -0.046 C 
HETATM    7  C   UNL     1      25.870  44.583  52.706  1.00  0.00     0.059 C 
HETATM    8  C   UNL     1      25.425  44.611  51.246  1.00  0.00     0.132 C 
HETATM    9  O   UNL     1      23.725  46.875  49.091  1.00  0.00    -0.247 OA
HETATM   10  H   UNL     1      22.935  44.118  50.260  1.00  0.00     0.171 HD
ENDROOT
BRANCH   1  11
HETATM   11  C   UNL     1      22.725  44.260  48.225  1.00  0.00     0.070 A 
HETATM   12  C   UNL     1      23.485  43.584  47.264  1.00  0.00     0.039 A 
HETATM   13  C   UNL     1      22.897  43.137  46.074  1.00  0.00    -0.060 A 
HETATM   14  C   UNL     1      23.700  42.371  45.065  1.00  0.00     0.048 C 
HETATM   15  C   UNL     1      21.536  43.375  45.856  1.00  0.00     0.009 A 
HETATM   16  C   UNL     1      20.770  44.054  46.809  1.00  0.00     0.039 A 
HETATM   17  C   UNL     1      21.359  44.503  47.993  1.00  0.00     0.095 A 
BRANCH  17  18
HETATM   18  O   UNL     1      20.686  45.166  48.995  1.00  0.00    -0.354 OA
HETATM   19  C   UNL     1      19.892  46.273  48.581  1.00  0.00     0.210 C 
ENDBRANCH  17  18
ENDBRANCH   1  11
BRANCH   6  20
HETATM   20  C   UNL     1      27.423  45.830  54.174  1.00  0.00    -0.002 A 
HETATM   21  C   UNL     1      28.490  44.892  54.319  1.00  0.00     0.003 A 
HETATM   22  C   UNL     1      29.141  45.198  55.516  1.00  0.00     0.043 A 
HETATM   23  C   UNL     1      28.959  43.799  53.559  1.00  0.00     0.014 A 
HETATM   24  C   UNL     1      30.240  44.469  55.986  1.00  0.00     0.030 A 
HETATM   25  N   UNL     1      28.493  46.283  56.064  1.00  0.00    -0.364 N 
HETATM   26  C   UNL     1      30.685  43.391  55.212  1.00  0.00     0.002 A 
HETATM   27  C   UNL     1      30.055  43.059  54.015  1.00  0.00     0.001 A 
HETATM   28  H   UNL     1      28.753  46.722  56.935  1.00  0.00     0.165 HD
HETATM   29  C   UNL     1      27.445  46.666  55.267  1.00  0.00     0.101 A 
ENDBRANCH   6  20
TORSDOF 3
ENDMDL
