MODEL 1
REMARK VINA RESULT:      -9.8      0.000      0.000
REMARK  7 active torsions:
REMARK  status: ('A' for Active; 'I' for Inactive)
REMARK    1  A    between atoms: C_2  and  C_3 
REMARK    2  A    between atoms: C_6  and  C_7 
REMARK    3  A    between atoms: C_10  and  C_11 
REMARK       I    between atoms: C_11  and  N_12 
REMARK    4  A    between atoms: N_12  and  C_13 
REMARK    5  A    between atoms: C_25  and  C_26 
REMARK       I    between atoms: C_26  and  N_27 
REMARK    6  A    between atoms: N_27  and  C_28 
REMARK    7  A    between atoms: C_31  and  O_32 
ROOT
HETATM    1  C   UNL     1      22.381  45.500  49.012  1.00  0.00     0.185 C 
HETATM    2  N   UNL     1      23.416  44.864  49.838  1.00  0.00    -0.239 N 
HETATM    3  C   UNL     1      24.674  45.384  50.032  1.00  0.00     0.142 A 
HETATM    4  C   UNL     1      25.356  44.440  50.777  1.00  0.00     0.097 A 
HETATM    5  C   UNL     1      24.368  43.463  51.074  1.00  0.00     0.160 A 
HETATM    6  N   UNL     1      23.181  43.725  50.523  1.00  0.00    -0.181 NA
HETATM    7  N   UNL     1      24.949  46.621  49.535  1.00  0.00    -0.343 N 
HETATM    8  C   UNL     1      23.943  47.451  49.015  1.00  0.00     0.021 C 
HETATM    9  C   UNL     1      24.353  48.886  48.776  1.00  0.00     0.069 C 
HETATM   10  C   UNL     1      22.696  46.969  48.771  1.00  0.00     0.061 C 
HETATM   11  H   UNL     1      25.735  47.150  49.917  1.00  0.00     0.167 HD
ENDROOT
BRANCH  10  12
HETATM   12  C   UNL     1      21.545  47.891  48.497  1.00  0.00     0.256 C 
HETATM   13  N   UNL     1      21.150  48.666  49.568  1.00  0.00    -0.323 N 
HETATM   14  H   UNL     1      21.560  48.483  50.474  1.00  0.00     0.169 HD
HETATM   15  O   UNL     1      21.077  47.946  47.364  1.00  0.00    -0.267 OA
BRANCH  13  16
HETATM   16  C   UNL     1      20.235  49.743  49.554  1.00  0.00     0.035 A 
HETATM   17  C   UNL     1      18.963  49.704  50.123  1.00  0.00     0.032 A 
HETATM   18  C   UNL     1      18.109  50.810  50.023  1.00  0.00     0.039 A 
HETATM   19  C   UNL     1      18.504  51.963  49.345  1.00  0.00     0.068 A 
HETATM   20  C   UNL     1      19.778  52.014  48.785  1.00  0.00     0.039 A 
HETATM   21  C   UNL     1      20.638  50.912  48.894  1.00  0.00     0.032 A 
BRANCH  19  22
HETATM   22  O   UNL     1      17.566  52.957  49.308  1.00  0.00    -0.356 OA
HETATM   23  C   UNL     1      16.368  52.737  50.042  1.00  0.00     0.210 C 
ENDBRANCH  19  22
ENDBRANCH  13  16
ENDBRANCH  10  12
BRANCH   1  24
HETATM   24  C   UNL     1      22.204  44.673  47.734  1.00  0.00    -0.029 A 
HETATM   25  C   UNL     1      20.907  44.385  47.277  1.00  0.00     0.010 A 
HETATM   26  C   UNL     1      20.705  43.606  46.137  1.00  0.00     0.007 A 
HETATM   27  C   UNL     1      21.793  43.098  45.419  1.00  0.00    -0.059 A 
HETATM   28  C   UNL     1      23.087  43.381  45.866  1.00  0.00     0.007 A 
HETATM   29  C   UNL     1      23.293  44.148  47.017  1.00  0.00     0.010 A 
BRANCH  27  30
HETATM   30  C   UNL     1      21.572  42.235  44.202  1.00  0.00     0.034 C 
HETATM   31  C   UNL     1      20.174  41.637  44.161  1.00  0.00     0.010 C 
ENDBRANCH  27  30
ENDBRANCH   1  24
BRANCH   4  32
HETATM   32  C   UNL     1      26.735  44.389  51.235  1.00  0.00     0.261 C 
HETATM   33  N   UNL     1      26.898  43.832  52.490  1.00  0.00    -0.323 N 
HETATM   34  H   UNL     1      26.050  43.564  52.971  1.00  0.00     0.169 HD
HETATM   35  O   UNL     1      27.629  44.851  50.533  1.00  0.00    -0.267 OA
BRANCH  33  36
HETATM   36  C   UNL     1      28.103  43.677  53.209  1.00  0.00     0.035 A 
HETATM   37  C   UNL     1      28.392  44.346  54.401  1.00  0.00     0.029 A 
HETATM   38  C   UNL     1      29.604  44.129  55.065  1.00  0.00     0.002 A 
HETATM   39  C   UNL     1      30.543  43.248  54.536  1.00  0.00     0.000 A 
HETATM   40  C   UNL     1      30.269  42.580  53.347  1.00  0.00     0.002 A 
HETATM   41  C   UNL     1      29.052  42.789  52.689  1.00  0.00     0.029 A 
ENDBRANCH  33  36
ENDBRANCH   4  32
TORSDOF 7
ENDMDL
MODEL 2
REMARK VINA RESULT:      -9.7      5.003     10.201
REMARK  7 active torsions:
REMARK  status: ('A' for Active; 'I' for Inactive)
REMARK    1  A    between atoms: C_2  and  C_3 
REMARK    2  A    between atoms: C_6  and  C_7 
REMARK    3  A    between atoms: C_10  and  C_11 
REMARK       I    between atoms: C_11  and  N_12 
REMARK    4  A    between atoms: N_12  and  C_13 
REMARK    5  A    between atoms: C_25  and  C_26 
REMARK       I    between atoms: C_26  and  N_27 
REMARK    6  A    between atoms: N_27  and  C_28 
REMARK    7  A    between atoms: C_31  and  O_32 
ROOT
HETATM    1  C   UNL     1      25.585  43.157  51.299  1.00  0.00     0.185 C 
HETATM    2  N   UNL     1      24.584  42.596  50.380  1.00  0.00    -0.239 N 
HETATM    3  C   UNL     1      24.859  41.641  49.432  1.00  0.00     0.142 A 
HETATM    4  C   UNL     1      23.684  41.468  48.724  1.00  0.00     0.097 A 
HETATM    5  C   UNL     1      22.747  42.277  49.422  1.00  0.00     0.160 A 
HETATM    6  N   UNL     1      23.283  42.950  50.442  1.00  0.00    -0.181 NA
HETATM    7  N   UNL     1      26.101  41.083  49.412  1.00  0.00    -0.343 N 
HETATM    8  C   UNL     1      27.029  41.306  50.443  1.00  0.00     0.021 C 
HETATM    9  C   UNL     1      28.237  40.398  50.428  1.00  0.00     0.069 C 
HETATM   10  C   UNL     1      26.815  42.267  51.379  1.00  0.00     0.061 C 
HETATM   11  H   UNL     1      26.239  40.183  48.950  1.00  0.00     0.167 HD
ENDROOT
BRANCH  10  12
HETATM   12  C   UNL     1      27.635  42.325  52.636  1.00  0.00     0.256 C 
HETATM   13  N   UNL     1      28.406  43.460  52.778  1.00  0.00    -0.323 N 
HETATM   14  H   UNL     1      28.469  44.101  51.998  1.00  0.00     0.169 HD
HETATM   15  O   UNL     1      27.529  41.425  53.462  1.00  0.00    -0.267 OA
BRANCH  13  16
HETATM   16  C   UNL     1      29.121  43.872  53.925  1.00  0.00     0.035 A 
HETATM   17  C   UNL     1      30.219  43.196  54.454  1.00  0.00     0.032 A 
HETATM   18  C   UNL     1      30.839  43.659  55.622  1.00  0.00     0.039 A 
HETATM   19  C   UNL     1      30.367  44.792  56.285  1.00  0.00     0.068 A 
HETATM   20  C   UNL     1      29.278  45.479  55.755  1.00  0.00     0.039 A 
HETATM   21  C   UNL     1      28.664  45.024  54.579  1.00  0.00     0.032 A 
BRANCH  19  22
HETATM   22  O   UNL     1      31.053  45.120  57.421  1.00  0.00    -0.356 OA
HETATM   23  C   UNL     1      30.306  45.720  58.471  1.00  0.00     0.210 C 
ENDBRANCH  19  22
ENDBRANCH  13  16
ENDBRANCH  10  12
BRANCH   1  24
HETATM   24  C   UNL     1      25.875  44.602  50.877  1.00  0.00    -0.029 A 
HETATM   25  C   UNL     1      25.173  45.651  51.494  1.00  0.00     0.010 A 
HETATM   26  C   UNL     1      25.385  46.977  51.113  1.00  0.00     0.007 A 
HETATM   27  C   UNL     1      26.306  47.291  50.107  1.00  0.00    -0.059 A 
HETATM   28  C   UNL     1      27.009  46.253  49.488  1.00  0.00     0.007 A 
HETATM   29  C   UNL     1      26.788  44.921  49.858  1.00  0.00     0.010 A 
BRANCH  27  30
HETATM   30  C   UNL     1      26.514  48.722  49.679  1.00  0.00     0.034 C 
HETATM   31  C   UNL     1      27.897  48.958  49.093  1.00  0.00     0.010 C 
ENDBRANCH  27  30
ENDBRANCH   1  24
BRANCH   4  32
HETATM   32  C   UNL     1      23.370  40.647  47.567  1.00  0.00     0.261 C 
HETATM   33  N   UNL     1      22.104  40.091  47.589  1.00  0.00    -0.323 N 
HETATM   34  H   UNL     1      21.555  40.271  48.418  1.00  0.00     0.169 HD
HETATM   35  O   UNL     1      24.214  40.475  46.694  1.00  0.00    -0.267 OA
BRANCH  33  36
HETATM   36  C   UNL     1      21.529  39.228  46.630  1.00  0.00     0.035 A 
HETATM   37  C   UNL     1      21.662  37.838  46.651  1.00  0.00     0.029 A 
HETATM   38  C   UNL     1      21.049  37.049  45.672  1.00  0.00     0.002 A 
HETATM   39  C   UNL     1      20.307  37.644  44.657  1.00  0.00     0.000 A 
HETATM   40  C   UNL     1      20.172  39.029  44.622  1.00  0.00     0.002 A 
HETATM   41  C   UNL     1      20.775  39.817  45.608  1.00  0.00     0.029 A 
ENDBRANCH  33  36
ENDBRANCH   4  32
TORSDOF 7
ENDMDL
MODEL 3
REMARK VINA RESULT:      -9.6      2.815      3.671
REMARK  7 active torsions:
REMARK  status: ('A' for Active; 'I' for Inactive)
REMARK    1  A    between atoms: C_2  and  C_3 
REMARK    2  A    between atoms: C_6  and  C_7 
REMARK    3  A    between atoms: C_10  and  C_11 
REMARK       I    between atoms: C_11  and  N_12 
REMARK    4  A    between atoms: N_12  and  C_13 
REMARK    5  A    between atoms: C_25  and  C_26 
REMARK       I    between atoms: C_26  and  N_27 
REMARK    6  A    between atoms: N_27  and  C_28 
REMARK    7  A    between atoms: C_31  and  O_32 
ROOT
HETATM    1  C   UNL     1      24.246  45.117  50.961  1.00  0.00     0.185 C 
HETATM    2  N   UNL     1      24.998  45.068  52.223  1.00  0.00    -0.239 N 
HETATM    3  C   UNL     1      26.111  45.830  52.486  1.00  0.00     0.142 A 
HETATM    4  C   UNL     1      26.566  45.412  53.723  1.00  0.00     0.097 A 
HETATM    5  C   UNL     1      25.574  44.490  54.154  1.00  0.00     0.160 A 
HETATM    6  N   UNL     1      24.607  44.292  53.255  1.00  0.00    -0.181 NA
HETATM    7  N   UNL     1      26.478  46.779  51.581  1.00  0.00    -0.343 N 
HETATM    8  C   UNL     1      25.651  47.133  50.502  1.00  0.00     0.021 C 
HETATM    9  C   UNL     1      26.057  48.388  49.766  1.00  0.00     0.069 C 
HETATM   10  C   UNL     1      24.562  46.385  50.183  1.00  0.00     0.061 C 
HETATM   11  H   UNL     1      27.084  47.546  51.878  1.00  0.00     0.167 HD
ENDROOT
BRANCH  10  12
HETATM   12  C   UNL     1      23.517  46.898  49.235  1.00  0.00     0.256 C 
HETATM   13  N   UNL     1      22.747  47.935  49.721  1.00  0.00    -0.323 N 
HETATM   14  H   UNL     1      22.844  48.193  50.694  1.00  0.00     0.169 HD
HETATM   15  O   UNL     1      23.449  46.425  48.105  1.00  0.00    -0.267 OA
BRANCH  13  16
HETATM   16  C   UNL     1      21.830  48.731  48.999  1.00  0.00     0.035 A 
HETATM   17  C   UNL     1      22.077  50.039  48.585  1.00  0.00     0.032 A 
HETATM   18  C   UNL     1      21.088  50.765  47.908  1.00  0.00     0.039 A 
HETATM   19  C   UNL     1      19.838  50.204  47.646  1.00  0.00     0.068 A 
HETATM   20  C   UNL     1      19.589  48.894  48.046  1.00  0.00     0.039 A 
HETATM   21  C   UNL     1      20.582  48.162  48.713  1.00  0.00     0.032 A 
BRANCH  19  22
HETATM   22  O   UNL     1      18.963  51.030  46.997  1.00  0.00    -0.356 OA
HETATM   23  C   UNL     1      18.414  52.103  47.750  1.00  0.00     0.210 C 
ENDBRANCH  19  22
ENDBRANCH  13  16
ENDBRANCH  10  12
BRANCH   1  24
HETATM   24  C   UNL     1      24.509  43.819  50.190  1.00  0.00    -0.029 A 
HETATM   25  C   UNL     1      25.833  43.446  49.905  1.00  0.00     0.010 A 
HETATM   26  C   UNL     1      26.111  42.289  49.175  1.00  0.00     0.007 A 
HETATM   27  C   UNL     1      25.073  41.471  48.713  1.00  0.00    -0.059 A 
HETATM   28  C   UNL     1      23.752  41.835  48.992  1.00  0.00     0.007 A 
HETATM   29  C   UNL     1      23.470  43.002  49.711  1.00  0.00     0.010 A 
BRANCH  27  30
HETATM   30  C   UNL     1      25.375  40.236  47.902  1.00  0.00     0.034 C 
HETATM   31  C   UNL     1      26.768  40.268  47.292  1.00  0.00     0.010 C 
ENDBRANCH  27  30
ENDBRANCH   1  24
BRANCH   4  32
HETATM   32  C   UNL     1      27.734  45.794  54.498  1.00  0.00     0.261 C 
HETATM   33  N   UNL     1      28.251  44.783  55.287  1.00  0.00    -0.323 N 
HETATM   34  H   UNL     1      27.742  43.909  55.278  1.00  0.00     0.169 HD
HETATM   35  O   UNL     1      28.156  46.944  54.439  1.00  0.00    -0.267 OA
BRANCH  33  36
HETATM   36  C   UNL     1      29.352  44.860  56.168  1.00  0.00     0.035 A 
HETATM   37  C   UNL     1      29.442  45.764  57.228  1.00  0.00     0.029 A 
HETATM   38  C   UNL     1      30.560  45.769  58.068  1.00  0.00     0.002 A 
HETATM   39  C   UNL     1      31.605  44.876  57.848  1.00  0.00     0.000 A 
HETATM   40  C   UNL     1      31.529  43.974  56.792  1.00  0.00     0.002 A 
HETATM   41  C   UNL     1      30.405  43.961  55.959  1.00  0.00     0.029 A 
ENDBRANCH  33  36
ENDBRANCH   4  32
TORSDOF 7
ENDMDL
MODEL 4
REMARK VINA RESULT:      -9.3      3.260      6.231
REMARK  7 active torsions:
REMARK  status: ('A' for Active; 'I' for Inactive)
REMARK    1  A    between atoms: C_2  and  C_3 
REMARK    2  A    between atoms: C_6  and  C_7 
REMARK    3  A    between atoms: C_10  and  C_11 
REMARK       I    between atoms: C_11  and  N_12 
REMARK    4  A    between atoms: N_12  and  C_13 
REMARK    5  A    between atoms: C_25  and  C_26 
REMARK       I    between atoms: C_26  and  N_27 
REMARK    6  A    between atoms: N_27  and  C_28 
REMARK    7  A    between atoms: C_31  and  O_32 
ROOT
HETATM    1  C   UNL     1      21.629  48.584  47.449  1.00  0.00     0.185 C 
HETATM    2  N   UNL     1      22.961  48.720  48.057  1.00  0.00    -0.239 N 
HETATM    3  C   UNL     1      23.512  47.799  48.915  1.00  0.00     0.142 A 
HETATM    4  C   UNL     1      24.712  48.348  49.330  1.00  0.00     0.097 A 
HETATM    5  C   UNL     1      24.827  49.534  48.557  1.00  0.00     0.160 A 
HETATM    6  N   UNL     1      23.774  49.756  47.766  1.00  0.00    -0.181 NA
HETATM    7  N   UNL     1      22.849  46.629  49.128  1.00  0.00    -0.343 N 
HETATM    8  C   UNL     1      21.737  46.257  48.354  1.00  0.00     0.021 C 
HETATM    9  C   UNL     1      21.296  44.820  48.511  1.00  0.00     0.069 C 
HETATM   10  C   UNL     1      21.137  47.147  47.521  1.00  0.00     0.061 C 
HETATM   11  H   UNL     1      23.359  45.823  49.493  1.00  0.00     0.167 HD
ENDROOT
BRANCH  10  12
HETATM   12  C   UNL     1      20.149  46.698  46.484  1.00  0.00     0.256 C 
HETATM   13  N   UNL     1      18.825  46.788  46.863  1.00  0.00    -0.323 N 
HETATM   14  H   UNL     1      18.612  47.020  47.823  1.00  0.00     0.169 HD
HETATM   15  O   UNL     1      20.555  46.349  45.381  1.00  0.00    -0.267 OA
BRANCH  13  16
HETATM   16  C   UNL     1      17.686  46.619  46.042  1.00  0.00     0.035 A 
HETATM   17  C   UNL     1      17.298  45.408  45.472  1.00  0.00     0.032 A 
HETATM   18  C   UNL     1      16.175  45.347  44.637  1.00  0.00     0.039 A 
HETATM   19  C   UNL     1      15.432  46.491  44.348  1.00  0.00     0.068 A 
HETATM   20  C   UNL     1      15.807  47.702  44.924  1.00  0.00     0.039 A 
HETATM   21  C   UNL     1      16.924  47.763  45.770  1.00  0.00     0.032 A 
BRANCH  19  22
HETATM   22  O   UNL     1      14.374  46.291  43.505  1.00  0.00    -0.356 OA
HETATM   23  C   UNL     1      13.752  45.013  43.549  1.00  0.00     0.210 C 
ENDBRANCH  19  22
ENDBRANCH  13  16
ENDBRANCH  10  12
BRANCH   1  24
HETATM   24  C   UNL     1      20.692  49.608  48.100  1.00  0.00    -0.029 A 
HETATM   25  C   UNL     1      20.219  49.373  49.402  1.00  0.00     0.010 A 
HETATM   26  C   UNL     1      19.337  50.264  50.016  1.00  0.00     0.007 A 
HETATM   27  C   UNL     1      18.908  51.416  49.347  1.00  0.00    -0.059 A 
HETATM   28  C   UNL     1      19.375  51.658  48.051  1.00  0.00     0.007 A 
HETATM   29  C   UNL     1      20.247  50.759  47.428  1.00  0.00     0.010 A 
BRANCH  27  30
HETATM   30  C   UNL     1      17.935  52.364  50.002  1.00  0.00     0.034 C 
HETATM   31  C   UNL     1      16.487  52.009  49.701  1.00  0.00     0.010 C 
ENDBRANCH  27  30
ENDBRANCH   1  24
BRANCH   4  32
HETATM   32  C   UNL     1      25.705  47.881  50.283  1.00  0.00     0.261 C 
HETATM   33  N   UNL     1      25.182  47.181  51.355  1.00  0.00    -0.323 N 
HETATM   34  H   UNL     1      24.174  47.110  51.389  1.00  0.00     0.169 HD
HETATM   35  O   UNL     1      26.890  48.147  50.110  1.00  0.00    -0.267 OA
BRANCH  33  36
HETATM   36  C   UNL     1      25.887  46.637  52.450  1.00  0.00     0.035 A 
HETATM   37  C   UNL     1      26.102  47.312  53.654  1.00  0.00     0.029 A 
HETATM   38  C   UNL     1      26.800  46.698  54.700  1.00  0.00     0.002 A 
HETATM   39  C   UNL     1      27.298  45.408  54.548  1.00  0.00     0.000 A 
HETATM   40  C   UNL     1      27.095  44.728  53.351  1.00  0.00     0.002 A 
HETATM   41  C   UNL     1      26.387  45.337  52.309  1.00  0.00     0.029 A 
ENDBRANCH  33  36
ENDBRANCH   4  32
TORSDOF 7
ENDMDL
MODEL 5
REMARK VINA RESULT:      -9.1      2.829      5.945
REMARK  7 active torsions:
REMARK  status: ('A' for Active; 'I' for Inactive)
REMARK    1  A    between atoms: C_2  and  C_3 
REMARK    2  A    between atoms: C_6  and  C_7 
REMARK    3  A    between atoms: C_10  and  C_11 
REMARK       I    between atoms: C_11  and  N_12 
REMARK    4  A    between atoms: N_12  and  C_13 
REMARK    5  A    between atoms: C_25  and  C_26 
REMARK       I    between atoms: C_26  and  N_27 
REMARK    6  A    between atoms: N_27  and  C_28 
REMARK    7  A    between atoms: C_31  and  O_32 
ROOT
HETATM    1  C   UNL     1      22.462  48.021  47.841  1.00  0.00     0.185 C 
HETATM    2  N   UNL     1      23.647  48.023  48.710  1.00  0.00    -0.239 N 
HETATM    3  C   UNL     1      23.966  47.008  49.580  1.00  0.00     0.142 A 
HETATM    4  C   UNL     1      25.082  47.445  50.269  1.00  0.00     0.097 A 
HETATM    5  C   UNL     1      25.411  48.675  49.638  1.00  0.00     0.160 A 
HETATM    6  N   UNL     1      24.553  49.022  48.675  1.00  0.00    -0.181 NA
HETATM    7  N   UNL     1      23.216  45.872  49.556  1.00  0.00    -0.343 N 
HETATM    8  C   UNL     1      22.268  45.631  48.548  1.00  0.00     0.021 C 
HETATM    9  C   UNL     1      21.733  44.219  48.492  1.00  0.00     0.069 C 
HETATM   10  C   UNL     1      21.894  46.618  47.692  1.00  0.00     0.061 C 
HETATM   11  H   UNL     1      23.601  45.010  49.945  1.00  0.00     0.167 HD
ENDROOT
BRANCH  10  12
HETATM   12  C   UNL     1      21.115  46.312  46.445  1.00  0.00     0.256 C 
HETATM   13  N   UNL     1      19.744  46.383  46.581  1.00  0.00    -0.323 N 
HETATM   14  H   UNL     1      19.357  46.506  47.507  1.00  0.00     0.169 HD
HETATM   15  O   UNL     1      21.720  46.086  45.402  1.00  0.00    -0.267 OA
BRANCH  13  16
HETATM   16  C   UNL     1      18.778  46.333  45.551  1.00  0.00     0.035 A 
HETATM   17  C   UNL     1      18.387  47.428  44.784  1.00  0.00     0.032 A 
HETATM   18  C   UNL     1      17.389  47.289  43.810  1.00  0.00     0.039 A 
HETATM   19  C   UNL     1      16.759  46.063  43.597  1.00  0.00     0.068 A 
HETATM   20  C   UNL     1      17.154  44.962  44.352  1.00  0.00     0.039 A 
HETATM   21  C   UNL     1      18.161  45.096  45.318  1.00  0.00     0.032 A 
BRANCH  19  22
HETATM   22  O   UNL     1      15.792  46.075  42.631  1.00  0.00    -0.356 OA
HETATM   23  C   UNL     1      14.934  44.942  42.568  1.00  0.00     0.210 C 
ENDBRANCH  19  22
ENDBRANCH  13  16
ENDBRANCH  10  12
BRANCH   1  24
HETATM   24  C   UNL     1      21.464  49.053  48.378  1.00  0.00    -0.029 A 
HETATM   25  C   UNL     1      21.539  50.381  47.925  1.00  0.00     0.010 A 
HETATM   26  C   UNL     1      20.671  51.357  48.416  1.00  0.00     0.007 A 
HETATM   27  C   UNL     1      19.701  51.032  49.371  1.00  0.00    -0.059 A 
HETATM   28  C   UNL     1      19.619  49.713  49.828  1.00  0.00     0.007 A 
HETATM   29  C   UNL     1      20.498  48.736  49.348  1.00  0.00     0.010 A 
BRANCH  27  30
HETATM   30  C   UNL     1      18.781  52.094  49.919  1.00  0.00     0.034 C 
HETATM   31  C   UNL     1      17.656  52.442  48.957  1.00  0.00     0.010 C 
ENDBRANCH  27  30
ENDBRANCH   1  24
BRANCH   4  32
HETATM   32  C   UNL     1      25.837  46.845  51.357  1.00  0.00     0.261 C 
HETATM   33  N   UNL     1      26.044  45.484  51.224  1.00  0.00    -0.323 N 
HETATM   34  H   UNL     1      25.615  45.046  50.421  1.00  0.00     0.169 HD
HETATM   35  O   UNL     1      26.202  47.537  52.301  1.00  0.00    -0.267 OA
BRANCH  33  36
HETATM   36  C   UNL     1      26.707  44.625  52.127  1.00  0.00     0.035 A 
HETATM   37  C   UNL     1      26.236  44.323  53.407  1.00  0.00     0.029 A 
HETATM   38  C   UNL     1      26.943  43.450  54.240  1.00  0.00     0.002 A 
HETATM   39  C   UNL     1      28.136  42.879  53.804  1.00  0.00     0.000 A 
HETATM   40  C   UNL     1      28.619  43.177  52.533  1.00  0.00     0.002 A 
HETATM   41  C   UNL     1      27.905  44.041  51.696  1.00  0.00     0.029 A 
ENDBRANCH  33  36
ENDBRANCH   4  32
TORSDOF 7
ENDMDL
MODEL 6
REMARK VINA RESULT:      -9.0      2.655      6.910
REMARK  7 active torsions:
REMARK  status: ('A' for Active; 'I' for Inactive)
REMARK    1  A    between atoms: C_2  and  C_3 
REMARK    2  A    between atoms: C_6  and  C_7 
REMARK    3  A    between atoms: C_10  and  C_11 
REMARK       I    between atoms: C_11  and  N_12 
REMARK    4  A    between atoms: N_12  and  C_13 
REMARK    5  A    between atoms: C_25  and  C_26 
REMARK       I    between atoms: C_26  and  N_27 
REMARK    6  A    between atoms: N_27  and  C_28 
REMARK    7  A    between atoms: C_31  and  O_32 
ROOT
HETATM    1  C   UNL     1      21.473  48.416  47.552  1.00  0.00     0.185 C 
HETATM    2  N   UNL     1      22.821  48.589  48.112  1.00  0.00    -0.239 N 
HETATM    3  C   UNL     1      23.413  47.705  48.980  1.00  0.00     0.142 A 
HETATM    4  C   UNL     1      24.617  48.283  49.338  1.00  0.00     0.097 A 
HETATM    5  C   UNL     1      24.689  49.446  48.524  1.00  0.00     0.160 A 
HETATM    6  N   UNL     1      23.609  49.627  47.761  1.00  0.00    -0.181 NA
HETATM    7  N   UNL     1      22.774  46.534  49.252  1.00  0.00    -0.343 N 
HETATM    8  C   UNL     1      21.644  46.121  48.527  1.00  0.00     0.021 C 
HETATM    9  C   UNL     1      21.230  44.684  48.745  1.00  0.00     0.069 C 
HETATM   10  C   UNL     1      21.004  46.975  47.686  1.00  0.00     0.061 C 
HETATM   11  H   UNL     1      23.308  45.747  49.625  1.00  0.00     0.167 HD
ENDROOT
BRANCH  10  12
HETATM   12  C   UNL     1      19.990  46.479  46.697  1.00  0.00     0.256 C 
HETATM   13  N   UNL     1      20.517  45.870  45.577  1.00  0.00    -0.323 N 
HETATM   14  H   UNL     1      21.517  45.906  45.433  1.00  0.00     0.169 HD
HETATM   15  O   UNL     1      18.796  46.585  46.959  1.00  0.00    -0.267 OA
BRANCH  13  16
HETATM   16  C   UNL     1      19.814  45.150  44.583  1.00  0.00     0.035 A 
HETATM   17  C   UNL     1      19.354  45.700  43.389  1.00  0.00     0.032 A 
HETATM   18  C   UNL     1      18.629  44.916  42.482  1.00  0.00     0.039 A 
HETATM   19  C   UNL     1      18.343  43.579  42.757  1.00  0.00     0.068 A 
HETATM   20  C   UNL     1      18.812  43.019  43.943  1.00  0.00     0.039 A 
HETATM   21  C   UNL     1      19.547  43.800  44.847  1.00  0.00     0.032 A 
BRANCH  19  22
HETATM   22  O   UNL     1      17.614  42.938  41.795  1.00  0.00    -0.356 OA
HETATM   23  C   UNL     1      16.227  42.759  42.055  1.00  0.00     0.210 C 
ENDBRANCH  19  22
ENDBRANCH  13  16
ENDBRANCH  10  12
BRANCH   1  24
HETATM   24  C   UNL     1      20.542  49.447  48.201  1.00  0.00    -0.029 A 
HETATM   25  C   UNL     1      20.212  50.614  47.492  1.00  0.00     0.010 A 
HETATM   26  C   UNL     1      19.395  51.592  48.063  1.00  0.00     0.007 A 
HETATM   27  C   UNL     1      18.883  51.428  49.355  1.00  0.00    -0.059 A 
HETATM   28  C   UNL     1      19.207  50.269  50.066  1.00  0.00     0.007 A 
HETATM   29  C   UNL     1      20.037  49.294  49.503  1.00  0.00     0.010 A 
BRANCH  27  30
HETATM   30  C   UNL     1      18.023  52.498  49.978  1.00  0.00     0.034 C 
HETATM   31  C   UNL     1      16.537  52.195  49.855  1.00  0.00     0.010 C 
ENDBRANCH  27  30
ENDBRANCH   1  24
BRANCH   4  32
HETATM   32  C   UNL     1      25.648  47.861  50.272  1.00  0.00     0.261 C 
HETATM   33  N   UNL     1      25.175  47.147  51.358  1.00  0.00    -0.323 N 
HETATM   34  H   UNL     1      24.172  47.035  51.413  1.00  0.00     0.169 HD
HETATM   35  O   UNL     1      26.817  48.174  50.074  1.00  0.00    -0.267 OA
BRANCH  33  36
HETATM   36  C   UNL     1      25.924  46.637  52.440  1.00  0.00     0.035 A 
HETATM   37  C   UNL     1      26.144  47.330  53.633  1.00  0.00     0.029 A 
HETATM   38  C   UNL     1      26.886  46.750  54.668  1.00  0.00     0.002 A 
HETATM   39  C   UNL     1      27.423  45.475  54.515  1.00  0.00     0.000 A 
HETATM   40  C   UNL     1      27.215  44.777  53.329  1.00  0.00     0.002 A 
HETATM   41  C   UNL     1      26.463  45.353  52.299  1.00  0.00     0.029 A 
ENDBRANCH  33  36
ENDBRANCH   4  32
TORSDOF 7
ENDMDL
MODEL 7
REMARK VINA RESULT:      -8.6      3.967     11.037
REMARK  7 active torsions:
REMARK  status: ('A' for Active; 'I' for Inactive)
REMARK    1  A    between atoms: C_2  and  C_3 
REMARK    2  A    between atoms: C_6  and  C_7 
REMARK    3  A    between atoms: C_10  and  C_11 
REMARK       I    between atoms: C_11  and  N_12 
REMARK    4  A    between atoms: N_12  and  C_13 
REMARK    5  A    between atoms: C_25  and  C_26 
REMARK       I    between atoms: C_26  and  N_27 
REMARK    6  A    between atoms: N_27  and  C_28 
REMARK    7  A    between atoms: C_31  and  O_32 
ROOT
HETATM    1  C   UNL     1      20.343  47.788  49.016  1.00  0.00     0.185 C 
HETATM    2  N   UNL     1      19.358  48.837  49.316  1.00  0.00    -0.239 N 
HETATM    3  C   UNL     1      18.348  49.210  48.462  1.00  0.00     0.142 A 
HETATM    4  C   UNL     1      17.721  50.281  49.073  1.00  0.00     0.097 A 
HETATM    5  C   UNL     1      18.362  50.372  50.338  1.00  0.00     0.160 A 
HETATM    6  N   UNL     1      19.344  49.483  50.500  1.00  0.00    -0.181 NA
HETATM    7  N   UNL     1      18.162  48.492  47.321  1.00  0.00    -0.343 N 
HETATM    8  C   UNL     1      18.831  47.278  47.092  1.00  0.00     0.021 C 
HETATM    9  C   UNL     1      18.308  46.464  45.932  1.00  0.00     0.069 C 
HETATM   10  C   UNL     1      19.862  46.889  47.888  1.00  0.00     0.061 C 
HETATM   11  H   UNL     1      17.262  48.539  46.841  1.00  0.00     0.167 HD
ENDROOT
BRANCH  10  12
HETATM   12  C   UNL     1      20.391  45.485  47.845  1.00  0.00     0.256 C 
HETATM   13  N   UNL     1      21.573  45.328  47.150  1.00  0.00    -0.323 N 
HETATM   14  H   UNL     1      21.932  46.114  46.625  1.00  0.00     0.169 HD
HETATM   15  O   UNL     1      19.798  44.601  48.456  1.00  0.00    -0.267 OA
BRANCH  13  16
HETATM   16  C   UNL     1      22.391  44.176  47.102  1.00  0.00     0.035 A 
HETATM   17  C   UNL     1      22.246  43.144  46.178  1.00  0.00     0.032 A 
HETATM   18  C   UNL     1      23.080  42.021  46.235  1.00  0.00     0.039 A 
HETATM   19  C   UNL     1      24.062  41.904  47.219  1.00  0.00     0.068 A 
HETATM   20  C   UNL     1      24.221  42.938  48.138  1.00  0.00     0.039 A 
HETATM   21  C   UNL     1      23.394  44.069  48.075  1.00  0.00     0.032 A 
BRANCH  19  22
HETATM   22  O   UNL     1      24.791  40.749  47.169  1.00  0.00    -0.356 OA
HETATM   23  C   UNL     1      25.621  40.466  48.288  1.00  0.00     0.210 C 
ENDBRANCH  19  22
ENDBRANCH  13  16
ENDBRANCH  10  12
BRANCH   1  24
HETATM   24  C   UNL     1      21.699  48.455  48.759  1.00  0.00    -0.029 A 
HETATM   25  C   UNL     1      21.754  49.609  47.960  1.00  0.00     0.010 A 
HETATM   26  C   UNL     1      22.974  50.226  47.674  1.00  0.00     0.007 A 
HETATM   27  C   UNL     1      24.170  49.708  48.183  1.00  0.00    -0.059 A 
HETATM   28  C   UNL     1      24.124  48.561  48.980  1.00  0.00     0.007 A 
HETATM   29  C   UNL     1      22.905  47.932  49.256  1.00  0.00     0.010 A 
BRANCH  27  30
HETATM   30  C   UNL     1      25.489  50.361  47.852  1.00  0.00     0.034 C 
HETATM   31  C   UNL     1      26.665  49.669  48.525  1.00  0.00     0.010 C 
ENDBRANCH  27  30
ENDBRANCH   1  24
BRANCH   4  32
HETATM   32  C   UNL     1      16.634  51.139  48.631  1.00  0.00     0.261 C 
HETATM   33  N   UNL     1      16.116  51.956  49.619  1.00  0.00    -0.323 N 
HETATM   34  H   UNL     1      16.509  51.841  50.542  1.00  0.00     0.169 HD
HETATM   35  O   UNL     1      16.233  51.069  47.474  1.00  0.00    -0.267 OA
BRANCH  33  36
HETATM   36  C   UNL     1      15.042  52.866  49.503  1.00  0.00     0.035 A 
HETATM   37  C   UNL     1      14.124  53.124  50.523  1.00  0.00     0.029 A 
HETATM   38  C   UNL     1      13.094  54.052  50.338  1.00  0.00     0.002 A 
HETATM   39  C   UNL     1      12.967  54.723  49.125  1.00  0.00     0.000 A 
HETATM   40  C   UNL     1      13.872  54.471  48.099  1.00  0.00     0.002 A 
HETATM   41  C   UNL     1      14.909  53.551  48.289  1.00  0.00     0.029 A 
ENDBRANCH  33  36
ENDBRANCH   4  32
TORSDOF 7
ENDMDL
MODEL 8
REMARK VINA RESULT:      -8.5      2.506      6.740
REMARK  7 active torsions:
REMARK  status: ('A' for Active; 'I' for Inactive)
REMARK    1  A    between atoms: C_2  and  C_3 
REMARK    2  A    between atoms: C_6  and  C_7 
REMARK    3  A    between atoms: C_10  and  C_11 
REMARK       I    between atoms: C_11  and  N_12 
REMARK    4  A    between atoms: N_12  and  C_13 
REMARK    5  A    between atoms: C_25  and  C_26 
REMARK       I    between atoms: C_26  and  N_27 
REMARK    6  A    between atoms: N_27  and  C_28 
REMARK    7  A    between atoms: C_31  and  O_32 
ROOT
HETATM    1  C   UNL     1      22.268  48.036  47.776  1.00  0.00     0.185 C 
HETATM    2  N   UNL     1      23.473  48.045  48.618  1.00  0.00    -0.239 N 
HETATM    3  C   UNL     1      23.810  47.037  49.490  1.00  0.00     0.142 A 
HETATM    4  C   UNL     1      24.943  47.479  50.149  1.00  0.00     0.097 A 
HETATM    5  C   UNL     1      25.259  48.702  49.498  1.00  0.00     0.160 A 
HETATM    6  N   UNL     1      24.380  49.041  48.552  1.00  0.00    -0.181 NA
HETATM    7  N   UNL     1      23.057  45.903  49.495  1.00  0.00    -0.343 N 
HETATM    8  C   UNL     1      22.086  45.654  48.512  1.00  0.00     0.021 C 
HETATM    9  C   UNL     1      21.548  44.242  48.483  1.00  0.00     0.069 C 
HETATM   10  C   UNL     1      21.695  46.632  47.654  1.00  0.00     0.061 C 
HETATM   11  H   UNL     1      23.450  45.044  49.884  1.00  0.00     0.167 HD
ENDROOT
BRANCH  10  12
HETATM   12  C   UNL     1      20.887  46.315  46.428  1.00  0.00     0.256 C 
HETATM   13  N   UNL     1      21.603  45.765  45.385  1.00  0.00    -0.323 N 
HETATM   14  H   UNL     1      22.610  45.727  45.458  1.00  0.00     0.169 HD
HETATM   15  O   UNL     1      19.675  46.500  46.445  1.00  0.00    -0.267 OA
BRANCH  13  16
HETATM   16  C   UNL     1      21.086  45.199  44.197  1.00  0.00     0.035 A 
HETATM   17  C   UNL     1      20.516  43.930  44.111  1.00  0.00     0.032 A 
HETATM   18  C   UNL     1      20.067  43.438  42.879  1.00  0.00     0.039 A 
HETATM   19  C   UNL     1      20.191  44.197  41.715  1.00  0.00     0.068 A 
HETATM   20  C   UNL     1      20.747  45.471  41.795  1.00  0.00     0.039 A 
HETATM   21  C   UNL     1      21.186  45.969  43.031  1.00  0.00     0.032 A 
BRANCH  19  22
HETATM   22  O   UNL     1      19.730  43.588  40.581  1.00  0.00    -0.356 OA
HETATM   23  C   UNL     1      20.474  42.474  40.103  1.00  0.00     0.210 C 
ENDBRANCH  19  22
ENDBRANCH  13  16
ENDBRANCH  10  12
BRANCH   1  24
HETATM   24  C   UNL     1      21.285  49.075  48.325  1.00  0.00    -0.029 A 
HETATM   25  C   UNL     1      21.271  50.366  47.771  1.00  0.00     0.010 A 
HETATM   26  C   UNL     1      20.415  51.350  48.266  1.00  0.00     0.007 A 
HETATM   27  C   UNL     1      19.546  51.070  49.327  1.00  0.00    -0.059 A 
HETATM   28  C   UNL     1      19.553  49.788  49.884  1.00  0.00     0.007 A 
HETATM   29  C   UNL     1      20.421  48.804  49.399  1.00  0.00     0.010 A 
BRANCH  27  30
HETATM   30  C   UNL     1      18.640  52.143  49.878  1.00  0.00     0.034 C 
HETATM   31  C   UNL     1      17.170  51.761  49.795  1.00  0.00     0.010 C 
ENDBRANCH  27  30
ENDBRANCH   1  24
BRANCH   4  32
HETATM   32  C   UNL     1      25.721  46.888  51.225  1.00  0.00     0.261 C 
HETATM   33  N   UNL     1      25.925  45.526  51.100  1.00  0.00    -0.323 N 
HETATM   34  H   UNL     1      25.479  45.081  50.310  1.00  0.00     0.169 HD
HETATM   35  O   UNL     1      26.106  47.589  52.156  1.00  0.00    -0.267 OA
BRANCH  33  36
HETATM   36  C   UNL     1      26.608  44.676  51.996  1.00  0.00     0.035 A 
HETATM   37  C   UNL     1      26.188  44.420  53.304  1.00  0.00     0.029 A 
HETATM   38  C   UNL     1      26.912  43.552  54.128  1.00  0.00     0.002 A 
HETATM   39  C   UNL     1      28.069  42.940  53.655  1.00  0.00     0.000 A 
HETATM   40  C   UNL     1      28.501  43.192  52.357  1.00  0.00     0.002 A 
HETATM   41  C   UNL     1      27.770  44.051  51.528  1.00  0.00     0.029 A 
ENDBRANCH  33  36
ENDBRANCH   4  32
TORSDOF 7
ENDMDL
MODEL 9
REMARK VINA RESULT:      -8.5      4.160      5.737
REMARK  7 active torsions:
REMARK  status: ('A' for Active; 'I' for Inactive)
REMARK    1  A    between atoms: C_2  and  C_3 
REMARK    2  A    between atoms: C_6  and  C_7 
REMARK    3  A    between atoms: C_10  and  C_11 
REMARK       I    between atoms: C_11  and  N_12 
REMARK    4  A    between atoms: N_12  and  C_13 
REMARK    5  A    between atoms: C_25  and  C_26 
REMARK       I    between atoms: C_26  and  N_27 
REMARK    6  A    between atoms: N_27  and  C_28 
REMARK    7  A    between atoms: C_31  and  O_32 
ROOT
HETATM    1  C   UNL     1      25.680  42.124  49.625  1.00  0.00     0.185 C 
HETATM    2  N   UNL     1      26.641  41.973  50.727  1.00  0.00    -0.239 N 
HETATM    3  C   UNL     1      27.391  43.003  51.240  1.00  0.00     0.142 A 
HETATM    4  C   UNL     1      28.226  42.425  52.178  1.00  0.00     0.097 A 
HETATM    5  C   UNL     1      27.795  41.072  52.227  1.00  0.00     0.160 A 
HETATM    6  N   UNL     1      26.817  40.795  51.361  1.00  0.00    -0.181 NA
HETATM    7  N   UNL     1      27.153  44.267  50.794  1.00  0.00    -0.343 N 
HETATM    8  C   UNL     1      26.044  44.570  49.987  1.00  0.00     0.021 C 
HETATM    9  C   UNL     1      25.755  46.044  49.818  1.00  0.00     0.069 C 
HETATM   10  C   UNL     1      25.297  43.583  49.427  1.00  0.00     0.061 C 
HETATM   11  H   UNL     1      27.455  45.063  51.358  1.00  0.00     0.167 HD
ENDROOT
BRANCH  10  12
HETATM   12  C   UNL     1      23.958  43.873  48.812  1.00  0.00     0.256 C 
HETATM   13  N   UNL     1      23.972  44.060  47.445  1.00  0.00    -0.323 N 
HETATM   14  H   UNL     1      24.866  44.115  46.975  1.00  0.00     0.169 HD
HETATM   15  O   UNL     1      22.959  43.867  49.523  1.00  0.00    -0.267 OA
BRANCH  13  16
HETATM   16  C   UNL     1      22.856  44.158  46.583  1.00  0.00     0.035 A 
HETATM   17  C   UNL     1      22.302  43.086  45.887  1.00  0.00     0.032 A 
HETATM   18  C   UNL     1      21.219  43.289  45.022  1.00  0.00     0.039 A 
HETATM   19  C   UNL     1      20.682  44.562  44.829  1.00  0.00     0.068 A 
HETATM   20  C   UNL     1      21.224  45.636  45.532  1.00  0.00     0.039 A 
HETATM   21  C   UNL     1      22.300  45.432  46.407  1.00  0.00     0.032 A 
BRANCH  19  22
HETATM   22  O   UNL     1      19.642  44.619  43.944  1.00  0.00    -0.356 OA
HETATM   23  C   UNL     1      18.773  45.740  44.047  1.00  0.00     0.210 C 
ENDBRANCH  19  22
ENDBRANCH  13  16
ENDBRANCH  10  12
BRANCH   1  24
HETATM   24  C   UNL     1      26.262  41.448  48.378  1.00  0.00    -0.029 A 
HETATM   25  C   UNL     1      25.394  40.821  47.469  1.00  0.00     0.010 A 
HETATM   26  C   UNL     1      25.888  40.166  46.341  1.00  0.00     0.007 A 
HETATM   27  C   UNL     1      27.264  40.122  46.087  1.00  0.00    -0.059 A 
HETATM   28  C   UNL     1      28.135  40.744  46.987  1.00  0.00     0.007 A 
HETATM   29  C   UNL     1      27.644  41.389  48.127  1.00  0.00     0.010 A 
BRANCH  27  30
HETATM   30  C   UNL     1      27.797  39.390  44.882  1.00  0.00     0.034 C 
HETATM   31  C   UNL     1      28.647  40.283  43.990  1.00  0.00     0.010 C 
ENDBRANCH  27  30
ENDBRANCH   1  24
BRANCH   4  32
HETATM   32  C   UNL     1      29.285  42.986  53.000  1.00  0.00     0.261 C 
HETATM   33  N   UNL     1      28.918  43.237  54.310  1.00  0.00    -0.323 N 
HETATM   34  H   UNL     1      27.953  43.052  54.543  1.00  0.00     0.169 HD
HETATM   35  O   UNL     1      30.381  43.225  52.504  1.00  0.00    -0.267 OA
BRANCH  33  36
HETATM   36  C   UNL     1      29.712  43.807  55.329  1.00  0.00     0.035 A 
HETATM   37  C   UNL     1      30.757  43.138  55.971  1.00  0.00     0.029 A 
HETATM   38  C   UNL     1      31.509  43.775  56.963  1.00  0.00     0.002 A 
HETATM   39  C   UNL     1      31.217  45.086  57.329  1.00  0.00     0.000 A 
HETATM   40  C   UNL     1      30.175  45.761  56.700  1.00  0.00     0.002 A 
HETATM   41  C   UNL     1      29.430  45.127  55.700  1.00  0.00     0.029 A 
ENDBRANCH  33  36
ENDBRANCH   4  32
TORSDOF 7
ENDMDL
MODEL 10
REMARK VINA RESULT:      -8.5      3.095      4.769
REMARK  7 active torsions:
REMARK  status: ('A' for Active; 'I' for Inactive)
REMARK    1  A    between atoms: C_2  and  C_3 
REMARK    2  A    between atoms: C_6  and  C_7 
REMARK    3  A    between atoms: C_10  and  C_11 
REMARK       I    between atoms: C_11  and  N_12 
REMARK    4  A    between atoms: N_12  and  C_13 
REMARK    5  A    between atoms: C_25  and  C_26 
REMARK       I    between atoms: C_26  and  N_27 
REMARK    6  A    between atoms: N_27  and  C_28 
REMARK    7  A    between atoms: C_31  and  O_32 
ROOT
HETATM    1  C   UNL     1      25.712  42.227  49.532  1.00  0.00     0.185 C 
HETATM    2  N   UNL     1      26.615  42.061  50.680  1.00  0.00    -0.239 N 
HETATM    3  C   UNL     1      27.431  43.053  51.168  1.00  0.00     0.142 A 
HETATM    4  C   UNL     1      28.178  42.462  52.170  1.00  0.00     0.097 A 
HETATM    5  C   UNL     1      27.631  41.154  52.274  1.00  0.00     0.160 A 
HETATM    6  N   UNL     1      26.666  40.911  51.384  1.00  0.00    -0.181 NA
HETATM    7  N   UNL     1      27.317  44.304  50.644  1.00  0.00    -0.343 N 
HETATM    8  C   UNL     1      26.269  44.652  49.776  1.00  0.00     0.021 C 
HETATM    9  C   UNL     1      26.113  46.132  49.516  1.00  0.00     0.069 C 
HETATM   10  C   UNL     1      25.462  43.699  49.240  1.00  0.00     0.061 C 
HETATM   11  H   UNL     1      27.665  45.103  51.177  1.00  0.00     0.167 HD
ENDROOT
BRANCH  10  12
HETATM   12  C   UNL     1      24.177  44.063  48.555  1.00  0.00     0.256 C 
HETATM   13  N   UNL     1      23.350  44.901  49.274  1.00  0.00    -0.323 N 
HETATM   14  H   UNL     1      23.590  45.110  50.233  1.00  0.00     0.169 HD
HETATM   15  O   UNL     1      23.970  43.659  47.415  1.00  0.00    -0.267 OA
BRANCH  13  16
HETATM   16  C   UNL     1      22.183  45.553  48.814  1.00  0.00     0.035 A 
HETATM   17  C   UNL     1      20.916  44.974  48.786  1.00  0.00     0.032 A 
HETATM   18  C   UNL     1      19.824  45.686  48.273  1.00  0.00     0.039 A 
HETATM   19  C   UNL     1      19.981  46.977  47.770  1.00  0.00     0.068 A 
HETATM   20  C   UNL     1      21.242  47.567  47.807  1.00  0.00     0.039 A 
HETATM   21  C   UNL     1      22.334  46.860  48.330  1.00  0.00     0.032 A 
BRANCH  19  22
HETATM   22  O   UNL     1      18.837  47.547  47.284  1.00  0.00    -0.356 OA
HETATM   23  C   UNL     1      18.124  48.406  48.165  1.00  0.00     0.210 C 
ENDBRANCH  19  22
ENDBRANCH  13  16
ENDBRANCH  10  12
BRANCH   1  24
HETATM   24  C   UNL     1      26.280  41.435  48.350  1.00  0.00    -0.029 A 
HETATM   25  C   UNL     1      25.452  40.524  47.673  1.00  0.00     0.010 A 
HETATM   26  C   UNL     1      25.942  39.759  46.613  1.00  0.00     0.007 A 
HETATM   27  C   UNL     1      27.273  39.886  46.199  1.00  0.00    -0.059 A 
HETATM   28  C   UNL     1      28.104  40.791  46.866  1.00  0.00     0.007 A 
HETATM   29  C   UNL     1      27.619  41.548  47.938  1.00  0.00     0.010 A 
BRANCH  27  30
HETATM   30  C   UNL     1      27.807  39.039  45.071  1.00  0.00     0.034 C 
HETATM   31  C   UNL     1      28.639  39.844  44.084  1.00  0.00     0.010 C 
ENDBRANCH  27  30
ENDBRANCH   1  24
BRANCH   4  32
HETATM   32  C   UNL     1      29.249  42.980  53.004  1.00  0.00     0.261 C 
HETATM   33  N   UNL     1      28.863  43.308  54.291  1.00  0.00    -0.323 N 
HETATM   34  H   UNL     1      27.880  43.200  54.500  1.00  0.00     0.169 HD
HETATM   35  O   UNL     1      30.374  43.122  52.535  1.00  0.00    -0.267 OA
BRANCH  33  36
HETATM   36  C   UNL     1      29.665  43.861  55.313  1.00  0.00     0.035 A 
HETATM   37  C   UNL     1      29.514  45.157  55.810  1.00  0.00     0.029 A 
HETATM   38  C   UNL     1      30.340  45.628  56.836  1.00  0.00     0.002 A 
HETATM   39  C   UNL     1      31.332  44.810  57.367  1.00  0.00     0.000 A 
HETATM   40  C   UNL     1      31.496  43.518  56.876  1.00  0.00     0.002 A 
HETATM   41  C   UNL     1      30.662  43.043  55.858  1.00  0.00     0.029 A 
ENDBRANCH  33  36
ENDBRANCH   4  32
TORSDOF 7
ENDMDL
