MODEL 1
REMARK VINA RESULT:      -9.3      0.000      0.000
REMARK  2 active torsions:
REMARK  status: ('A' for Active; 'I' for Inactive)
REMARK    1  A    between atoms: C_5  and  C_6 
REMARK    2  A    between atoms: C_17  and  O_18 
ROOT
HETATM    1  C   UNL     1      26.802  44.586  53.033  1.00  0.00     0.200 C 
HETATM    2  N   UNL     1      26.098  43.516  52.375  1.00  0.00    -0.336 N 
HETATM    3  C   UNL     1      24.955  43.788  51.664  1.00  0.00     0.255 C 
HETATM    4  O   UNL     1      24.079  42.945  51.524  1.00  0.00    -0.268 OA
HETATM    5  C   UNL     1      24.890  45.118  51.033  1.00  0.00     0.053 A 
HETATM    6  C   UNL     1      25.962  45.992  51.244  1.00  0.00     0.026 A 
HETATM    7  N   UNL     1      27.034  45.665  52.088  1.00  0.00    -0.267 NA
HETATM    8  C   UNL     1      23.831  45.452  50.184  1.00  0.00     0.019 A 
HETATM    9  C   UNL     1      23.851  46.675  49.514  1.00  0.00     0.001 A 
HETATM   10  C   UNL     1      24.928  47.545  49.689  1.00  0.00     0.002 A 
HETATM   11  C   UNL     1      25.981  47.201  50.544  1.00  0.00     0.024 A 
HETATM   12  H   UNL     1      26.011  42.654  52.901  1.00  0.00     0.164 HD
HETATM   13  H   UNL     1      27.892  45.539  51.553  1.00  0.00     0.130 HD
ENDROOT
BRANCH   1  14
HETATM   14  C   UNL     1      28.131  44.102  53.586  1.00  0.00     0.023 A 
HETATM   15  C   UNL     1      28.694  44.646  54.786  1.00  0.00    -0.014 A 
HETATM   16  C   UNL     1      29.948  44.150  55.240  1.00  0.00    -0.025 A 
HETATM   17  C   UNL     1      28.094  45.663  55.574  1.00  0.00     0.013 A 
HETATM   18  C   UNL     1      30.525  44.639  56.423  1.00  0.00     0.012 A 
HETATM   19  C   UNL     1      30.628  43.169  54.507  1.00  0.00     0.015 A 
HETATM   20  C   UNL     1      29.895  45.623  57.177  1.00  0.00     0.001 A 
HETATM   21  C   UNL     1      28.682  46.139  56.750  1.00  0.00     0.001 A 
HETATM   22  C   UNL     1      30.095  42.663  53.330  1.00  0.00     0.038 A 
HETATM   23  C   UNL     1      28.863  43.119  52.883  1.00  0.00     0.076 A 
BRANCH  23  24
HETATM   24  O   UNL     1      28.419  42.556  51.716  1.00  0.00    -0.360 OA
HETATM   25  H   UNL     1      27.823  43.186  51.263  1.00  0.00     0.217 HD
ENDBRANCH  23  24
ENDBRANCH   1  14
TORSDOF 2
ENDMDL
MODEL 2
REMARK VINA RESULT:      -8.9      3.216      5.132
REMARK  2 active torsions:
REMARK  status: ('A' for Active; 'I' for Inactive)
REMARK    1  A    between atoms: C_5  and  C_6 
REMARK    2  A    between atoms: C_17  and  O_18 
ROOT
HETATM    1  C   UNL     1      25.741  46.802  50.234  1.00  0.00     0.200 C 
HETATM    2  N   UNL     1      26.603  47.953  50.151  1.00  0.00    -0.336 N 
HETATM    3  C   UNL     1      26.363  48.918  49.205  1.00  0.00     0.255 C 
HETATM    4  O   UNL     1      27.269  49.606  48.756  1.00  0.00    -0.268 OA
HETATM    5  C   UNL     1      24.952  49.111  48.825  1.00  0.00     0.053 A 
HETATM    6  C   UNL     1      23.998  48.279  49.422  1.00  0.00     0.026 A 
HETATM    7  N   UNL     1      24.357  47.238  50.291  1.00  0.00    -0.267 NA
HETATM    8  C   UNL     1      24.581  50.149  47.966  1.00  0.00     0.019 A 
HETATM    9  C   UNL     1      23.229  50.376  47.711  1.00  0.00     0.001 A 
HETATM   10  C   UNL     1      22.264  49.576  48.322  1.00  0.00     0.002 A 
HETATM   11  C   UNL     1      22.646  48.538  49.178  1.00  0.00     0.024 A 
HETATM   12  H   UNL     1      27.595  47.772  50.253  1.00  0.00     0.164 HD
HETATM   13  H   UNL     1      24.048  47.436  51.241  1.00  0.00     0.130 HD
ENDROOT
BRANCH   1  14
HETATM   14  C   UNL     1      26.062  45.971  51.465  1.00  0.00     0.023 A 
HETATM   15  C   UNL     1      26.544  44.626  51.364  1.00  0.00    -0.014 A 
HETATM   16  C   UNL     1      26.816  43.905  52.561  1.00  0.00    -0.025 A 
HETATM   17  C   UNL     1      26.775  43.937  50.145  1.00  0.00     0.013 A 
HETATM   18  C   UNL     1      27.311  42.592  52.508  1.00  0.00     0.012 A 
HETATM   19  C   UNL     1      26.585  44.495  53.810  1.00  0.00     0.015 A 
HETATM   20  C   UNL     1      27.541  41.958  51.291  1.00  0.00     0.001 A 
HETATM   21  C   UNL     1      27.268  42.629  50.110  1.00  0.00     0.001 A 
HETATM   22  C   UNL     1      26.091  45.788  53.906  1.00  0.00     0.038 A 
HETATM   23  C   UNL     1      25.842  46.515  52.750  1.00  0.00     0.076 A 
BRANCH  23  24
HETATM   24  O   UNL     1      25.362  47.782  52.949  1.00  0.00    -0.360 OA
HETATM   25  H   UNL     1      24.930  48.093  52.128  1.00  0.00     0.217 HD
ENDBRANCH  23  24
ENDBRANCH   1  14
TORSDOF 2
ENDMDL
MODEL 3
REMARK VINA RESULT:      -8.9      5.399     10.181
REMARK  2 active torsions:
REMARK  status: ('A' for Active; 'I' for Inactive)
REMARK    1  A    between atoms: C_5  and  C_6 
REMARK    2  A    between atoms: C_17  and  O_18 
ROOT
HETATM    1  C   UNL     1      22.285  49.397  48.834  1.00  0.00     0.200 C 
HETATM    2  N   UNL     1      23.205  49.742  47.781  1.00  0.00    -0.336 N 
HETATM    3  C   UNL     1      24.554  49.770  48.036  1.00  0.00     0.255 C 
HETATM    4  O   UNL     1      25.305  50.498  47.401  1.00  0.00    -0.268 OA
HETATM    5  C   UNL     1      25.036  48.828  49.062  1.00  0.00     0.053 A 
HETATM    6  C   UNL     1      24.086  48.029  49.708  1.00  0.00     0.026 A 
HETATM    7  N   UNL     1      22.712  48.158  49.461  1.00  0.00    -0.267 NA
HETATM    8  C   UNL     1      26.403  48.684  49.311  1.00  0.00     0.019 A 
HETATM    9  C   UNL     1      26.837  47.709  50.208  1.00  0.00     0.001 A 
HETATM   10  C   UNL     1      25.905  46.882  50.837  1.00  0.00     0.002 A 
HETATM   11  C   UNL     1      24.539  47.036  50.583  1.00  0.00     0.024 A 
HETATM   12  H   UNL     1      22.925  50.509  47.181  1.00  0.00     0.164 HD
HETATM   13  H   UNL     1      22.349  47.334  48.986  1.00  0.00     0.130 HD
ENDROOT
BRANCH   1  14
HETATM   14  C   UNL     1      20.876  49.232  48.290  1.00  0.00     0.023 A 
HETATM   15  C   UNL     1      19.802  50.085  48.704  1.00  0.00    -0.014 A 
HETATM   16  C   UNL     1      18.506  49.866  48.159  1.00  0.00    -0.025 A 
HETATM   17  C   UNL     1      19.925  51.151  49.634  1.00  0.00     0.013 A 
HETATM   18  C   UNL     1      17.429  50.692  48.520  1.00  0.00     0.012 A 
HETATM   19  C   UNL     1      18.285  48.816  47.260  1.00  0.00     0.015 A 
HETATM   20  C   UNL     1      17.596  51.739  49.421  1.00  0.00     0.001 A 
HETATM   21  C   UNL     1      18.843  51.964  49.982  1.00  0.00     0.001 A 
HETATM   22  C   UNL     1      19.320  47.972  46.882  1.00  0.00     0.038 A 
HETATM   23  C   UNL     1      20.596  48.184  47.385  1.00  0.00     0.076 A 
BRANCH  23  24
HETATM   24  O   UNL     1      21.550  47.304  46.949  1.00  0.00    -0.360 OA
HETATM   25  H   UNL     1      21.782  47.516  46.023  1.00  0.00     0.217 HD
ENDBRANCH  23  24
ENDBRANCH   1  14
TORSDOF 2
ENDMDL
MODEL 4
REMARK VINA RESULT:      -8.8      5.556     10.010
REMARK  2 active torsions:
REMARK  status: ('A' for Active; 'I' for Inactive)
REMARK    1  A    between atoms: C_5  and  C_6 
REMARK    2  A    between atoms: C_17  and  O_18 
ROOT
HETATM    1  C   UNL     1      22.707  48.821  48.729  1.00  0.00     0.200 C 
HETATM    2  N   UNL     1      22.981  47.985  49.869  1.00  0.00    -0.336 N 
HETATM    3  C   UNL     1      24.218  47.407  50.008  1.00  0.00     0.255 C 
HETATM    4  O   UNL     1      24.362  46.353  50.614  1.00  0.00    -0.268 OA
HETATM    5  C   UNL     1      25.352  48.165  49.448  1.00  0.00     0.053 A 
HETATM    6  C   UNL     1      25.068  49.370  48.796  1.00  0.00     0.026 A 
HETATM    7  N   UNL     1      23.755  49.820  48.599  1.00  0.00    -0.267 NA
HETATM    8  C   UNL     1      26.665  47.731  49.645  1.00  0.00     0.019 A 
HETATM    9  C   UNL     1      27.722  48.525  49.199  1.00  0.00     0.001 A 
HETATM   10  C   UNL     1      27.458  49.745  48.575  1.00  0.00     0.002 A 
HETATM   11  C   UNL     1      26.139  50.168  48.381  1.00  0.00     0.024 A 
HETATM   12  H   UNL     1      22.241  47.347  50.139  1.00  0.00     0.164 HD
HETATM   13  H   UNL     1      23.570  50.655  49.153  1.00  0.00     0.130 HD
ENDROOT
BRANCH   1  14
HETATM   14  C   UNL     1      21.362  49.513  48.874  1.00  0.00     0.023 A 
HETATM   15  C   UNL     1      20.253  49.192  48.026  1.00  0.00    -0.014 A 
HETATM   16  C   UNL     1      19.025  49.887  48.214  1.00  0.00    -0.025 A 
HETATM   17  C   UNL     1      20.278  48.222  46.990  1.00  0.00     0.013 A 
HETATM   18  C   UNL     1      17.906  49.590  47.420  1.00  0.00     0.012 A 
HETATM   19  C   UNL     1      18.919  50.885  49.191  1.00  0.00     0.015 A 
HETATM   20  C   UNL     1      17.966  48.618  46.427  1.00  0.00     0.001 A 
HETATM   21  C   UNL     1      19.154  47.938  46.209  1.00  0.00     0.001 A 
HETATM   22  C   UNL     1      20.004  51.214  49.993  1.00  0.00     0.038 A 
HETATM   23  C   UNL     1      21.202  50.532  49.839  1.00  0.00     0.076 A 
BRANCH  23  24
HETATM   24  O   UNL     1      22.210  50.924  50.680  1.00  0.00    -0.360 OA
HETATM   25  H   UNL     1      22.489  50.160  51.223  1.00  0.00     0.217 HD
ENDBRANCH  23  24
ENDBRANCH   1  14
TORSDOF 2
ENDMDL
MODEL 5
REMARK VINA RESULT:      -8.6      2.655      4.059
REMARK  2 active torsions:
REMARK  status: ('A' for Active; 'I' for Inactive)
REMARK    1  A    between atoms: C_5  and  C_6 
REMARK    2  A    between atoms: C_17  and  O_18 
ROOT
HETATM    1  C   UNL     1      24.577  46.792  50.557  1.00  0.00     0.200 C 
HETATM    2  N   UNL     1      23.625  46.134  49.701  1.00  0.00    -0.336 N 
HETATM    3  C   UNL     1      22.662  46.872  49.057  1.00  0.00     0.255 C 
HETATM    4  O   UNL     1      21.584  46.381  48.753  1.00  0.00    -0.268 OA
HETATM    5  C   UNL     1      23.039  48.252  48.701  1.00  0.00     0.053 A 
HETATM    6  C   UNL     1      24.310  48.697  49.081  1.00  0.00     0.026 A 
HETATM    7  N   UNL     1      25.180  47.905  49.844  1.00  0.00    -0.267 NA
HETATM    8  C   UNL     1      22.185  49.048  47.934  1.00  0.00     0.019 A 
HETATM    9  C   UNL     1      22.613  50.309  47.519  1.00  0.00     0.001 A 
HETATM   10  C   UNL     1      23.889  50.756  47.863  1.00  0.00     0.002 A 
HETATM   11  C   UNL     1      24.735  49.952  48.633  1.00  0.00     0.024 A 
HETATM   12  H   UNL     1      23.251  45.257  50.045  1.00  0.00     0.164 HD
HETATM   13  H   UNL     1      25.991  47.624  49.295  1.00  0.00     0.130 HD
ENDROOT
BRANCH   1  14
HETATM   14  C   UNL     1      25.662  45.828  51.004  1.00  0.00     0.023 A 
HETATM   15  C   UNL     1      26.210  45.867  52.328  1.00  0.00    -0.014 A 
HETATM   16  C   UNL     1      27.231  44.938  52.673  1.00  0.00    -0.025 A 
HETATM   17  C   UNL     1      25.813  46.777  53.342  1.00  0.00     0.013 A 
HETATM   18  C   UNL     1      27.780  44.927  53.965  1.00  0.00     0.012 A 
HETATM   19  C   UNL     1      27.707  44.025  51.725  1.00  0.00     0.015 A 
HETATM   20  C   UNL     1      27.350  45.824  54.938  1.00  0.00     0.001 A 
HETATM   21  C   UNL     1      26.371  46.753  54.624  1.00  0.00     0.001 A 
HETATM   22  C   UNL     1      27.195  44.007  50.434  1.00  0.00     0.038 A 
HETATM   23  C   UNL     1      26.184  44.890  50.085  1.00  0.00     0.076 A 
BRANCH  23  24
HETATM   24  O   UNL     1      25.741  44.792  48.793  1.00  0.00    -0.360 OA
HETATM   25  H   UNL     1      25.890  45.644  48.338  1.00  0.00     0.217 HD
ENDBRANCH  23  24
ENDBRANCH   1  14
TORSDOF 2
ENDMDL
MODEL 6
REMARK VINA RESULT:      -8.5      3.246      7.523
REMARK  2 active torsions:
REMARK  status: ('A' for Active; 'I' for Inactive)
REMARK    1  A    between atoms: C_5  and  C_6 
REMARK    2  A    between atoms: C_17  and  O_18 
ROOT
HETATM    1  C   UNL     1      25.202  46.882  50.358  1.00  0.00     0.200 C 
HETATM    2  N   UNL     1      25.703  47.195  51.671  1.00  0.00    -0.336 N 
HETATM    3  C   UNL     1      25.951  46.183  52.565  1.00  0.00     0.255 C 
HETATM    4  O   UNL     1      25.883  46.371  53.772  1.00  0.00    -0.268 OA
HETATM    5  C   UNL     1      26.365  44.894  51.982  1.00  0.00     0.053 A 
HETATM    6  C   UNL     1      26.429  44.802  50.587  1.00  0.00     0.026 A 
HETATM    7  N   UNL     1      26.039  45.860  49.752  1.00  0.00    -0.267 NA
HETATM    8  C   UNL     1      26.763  43.836  52.803  1.00  0.00     0.019 A 
HETATM    9  C   UNL     1      27.255  42.667  52.223  1.00  0.00     0.001 A 
HETATM   10  C   UNL     1      27.354  42.570  50.834  1.00  0.00     0.002 A 
HETATM   11  C   UNL     1      26.950  43.635  50.022  1.00  0.00     0.024 A 
HETATM   12  H   UNL     1      25.282  47.997  52.126  1.00  0.00     0.164 HD
HETATM   13  H   UNL     1      26.843  46.252  49.264  1.00  0.00     0.130 HD
ENDROOT
BRANCH   1  14
HETATM   14  C   UNL     1      25.190  48.117  49.473  1.00  0.00     0.023 A 
HETATM   15  C   UNL     1      23.970  48.667  48.961  1.00  0.00    -0.014 A 
HETATM   16  C   UNL     1      24.036  49.821  48.132  1.00  0.00    -0.025 A 
HETATM   17  C   UNL     1      22.675  48.144  49.215  1.00  0.00     0.013 A 
HETATM   18  C   UNL     1      22.863  50.406  47.626  1.00  0.00     0.012 A 
HETATM   19  C   UNL     1      25.274  50.386  47.801  1.00  0.00     0.015 A 
HETATM   20  C   UNL     1      21.611  49.873  47.914  1.00  0.00     0.001 A 
HETATM   21  C   UNL     1      21.518  48.739  48.704  1.00  0.00     0.001 A 
HETATM   22  C   UNL     1      26.456  49.834  48.275  1.00  0.00     0.038 A 
HETATM   23  C   UNL     1      26.411  48.722  49.103  1.00  0.00     0.076 A 
BRANCH  23  24
HETATM   24  O   UNL     1      27.629  48.256  49.523  1.00  0.00    -0.360 OA
HETATM   25  H   UNL     1      27.666  47.289  49.386  1.00  0.00     0.217 HD
ENDBRANCH  23  24
ENDBRANCH   1  14
TORSDOF 2
ENDMDL
MODEL 7
REMARK VINA RESULT:      -8.4      5.329      7.856
REMARK  2 active torsions:
REMARK  status: ('A' for Active; 'I' for Inactive)
REMARK    1  A    between atoms: C_5  and  C_6 
REMARK    2  A    between atoms: C_17  and  O_18 
ROOT
HETATM    1  C   UNL     1      22.434  48.780  49.011  1.00  0.00     0.200 C 
HETATM    2  N   UNL     1      21.864  48.550  47.709  1.00  0.00    -0.336 N 
HETATM    3  C   UNL     1      20.507  48.659  47.530  1.00  0.00     0.255 C 
HETATM    4  O   UNL     1      19.928  48.024  46.659  1.00  0.00    -0.268 OA
HETATM    5  C   UNL     1      19.818  49.630  48.400  1.00  0.00     0.053 A 
HETATM    6  C   UNL     1      20.587  50.315  49.346  1.00  0.00     0.026 A 
HETATM    7  N   UNL     1      21.951  50.046  49.534  1.00  0.00    -0.267 NA
HETATM    8  C   UNL     1      18.462  49.912  48.217  1.00  0.00     0.019 A 
HETATM    9  C   UNL     1      17.862  50.913  48.980  1.00  0.00     0.001 A 
HETATM   10  C   UNL     1      18.622  51.628  49.906  1.00  0.00     0.002 A 
HETATM   11  C   UNL     1      19.978  51.336  50.083  1.00  0.00     0.024 A 
HETATM   12  H   UNL     1      22.244  47.767  47.191  1.00  0.00     0.164 HD
HETATM   13  H   UNL     1      22.521  50.836  49.234  1.00  0.00     0.130 HD
ENDROOT
BRANCH   1  14
HETATM   14  C   UNL     1      23.951  48.805  48.942  1.00  0.00     0.023 A 
HETATM   15  C   UNL     1      24.755  47.831  49.620  1.00  0.00    -0.014 A 
HETATM   16  C   UNL     1      26.171  47.923  49.517  1.00  0.00    -0.025 A 
HETATM   17  C   UNL     1      24.245  46.763  50.403  1.00  0.00     0.013 A 
HETATM   18  C   UNL     1      26.996  46.977  50.147  1.00  0.00     0.012 A 
HETATM   19  C   UNL     1      26.762  48.964  48.792  1.00  0.00     0.015 A 
HETATM   20  C   UNL     1      26.456  45.933  50.891  1.00  0.00     0.001 A 
HETATM   21  C   UNL     1      25.081  45.829  51.024  1.00  0.00     0.001 A 
HETATM   22  C   UNL     1      25.983  49.923  48.160  1.00  0.00     0.038 A 
HETATM   23  C   UNL     1      24.600  49.838  48.230  1.00  0.00     0.076 A 
BRANCH  23  24
HETATM   24  O   UNL     1      23.919  50.826  47.570  1.00  0.00    -0.360 OA
HETATM   25  H   UNL     1      22.977  50.573  47.498  1.00  0.00     0.217 HD
ENDBRANCH  23  24
ENDBRANCH   1  14
TORSDOF 2
ENDMDL
MODEL 8
REMARK VINA RESULT:      -8.2      1.244      6.316
REMARK  2 active torsions:
REMARK  status: ('A' for Active; 'I' for Inactive)
REMARK    1  A    between atoms: C_5  and  C_6 
REMARK    2  A    between atoms: C_17  and  O_18 
ROOT
HETATM    1  C   UNL     1      27.704  44.511  52.334  1.00  0.00     0.200 C 
HETATM    2  N   UNL     1      28.423  43.272  52.475  1.00  0.00    -0.336 N 
HETATM    3  C   UNL     1      29.533  43.215  53.282  1.00  0.00     0.255 C 
HETATM    4  O   UNL     1      30.432  42.413  53.069  1.00  0.00    -0.268 OA
HETATM    5  C   UNL     1      29.532  44.122  54.444  1.00  0.00     0.053 A 
HETATM    6  C   UNL     1      28.437  44.980  54.598  1.00  0.00     0.026 A 
HETATM    7  N   UNL     1      27.405  45.048  53.651  1.00  0.00    -0.267 NA
HETATM    8  C   UNL     1      30.550  44.058  55.398  1.00  0.00     0.019 A 
HETATM    9  C   UNL     1      30.467  44.850  56.542  1.00  0.00     0.001 A 
HETATM   10  C   UNL     1      29.366  45.688  56.727  1.00  0.00     0.002 A 
HETATM   11  C   UNL     1      28.354  45.747  55.764  1.00  0.00     0.024 A 
HETATM   12  H   UNL     1      28.556  42.738  51.624  1.00  0.00     0.164 HD
HETATM   13  H   UNL     1      26.535  44.681  54.035  1.00  0.00     0.130 HD
ENDROOT
BRANCH   1  14
HETATM   14  C   UNL     1      26.410  44.304  51.566  1.00  0.00     0.023 A 
HETATM   15  C   UNL     1      25.733  45.389  50.920  1.00  0.00    -0.014 A 
HETATM   16  C   UNL     1      24.521  45.122  50.225  1.00  0.00    -0.025 A 
HETATM   17  C   UNL     1      26.178  46.737  50.920  1.00  0.00     0.013 A 
HETATM   18  C   UNL     1      23.836  46.151  49.559  1.00  0.00     0.012 A 
HETATM   19  C   UNL     1      23.990  43.826  50.201  1.00  0.00     0.015 A 
HETATM   20  C   UNL     1      24.315  47.457  49.568  1.00  0.00     0.001 A 
HETATM   21  C   UNL     1      25.483  47.751  50.252  1.00  0.00     0.001 A 
HETATM   22  C   UNL     1      24.633  42.782  50.850  1.00  0.00     0.038 A 
HETATM   23  C   UNL     1      25.827  43.019  51.515  1.00  0.00     0.076 A 
BRANCH  23  24
HETATM   24  O   UNL     1      26.388  41.924  52.119  1.00  0.00    -0.360 OA
HETATM   25  H   UNL     1      25.951  41.116  51.785  1.00  0.00     0.217 HD
ENDBRANCH  23  24
ENDBRANCH   1  14
TORSDOF 2
ENDMDL
MODEL 9
REMARK VINA RESULT:      -8.1      4.930      7.633
REMARK  2 active torsions:
REMARK  status: ('A' for Active; 'I' for Inactive)
REMARK    1  A    between atoms: C_5  and  C_6 
REMARK    2  A    between atoms: C_17  and  O_18 
ROOT
HETATM    1  C   UNL     1      22.989  47.492  48.644  1.00  0.00     0.200 C 
HETATM    2  N   UNL     1      23.847  48.616  48.377  1.00  0.00    -0.336 N 
HETATM    3  C   UNL     1      23.304  49.802  47.947  1.00  0.00     0.255 C 
HETATM    4  O   UNL     1      23.945  50.579  47.253  1.00  0.00    -0.268 OA
HETATM    5  C   UNL     1      21.943  50.100  48.429  1.00  0.00     0.053 A 
HETATM    6  C   UNL     1      21.316  49.145  49.237  1.00  0.00     0.026 A 
HETATM    7  N   UNL     1      21.909  47.907  49.524  1.00  0.00    -0.267 NA
HETATM    8  C   UNL     1      21.346  51.333  48.156  1.00  0.00     0.019 A 
HETATM    9  C   UNL     1      20.104  51.631  48.717  1.00  0.00     0.001 A 
HETATM   10  C   UNL     1      19.479  50.702  49.550  1.00  0.00     0.002 A 
HETATM   11  C   UNL     1      20.085  49.470  49.814  1.00  0.00     0.024 A 
HETATM   12  H   UNL     1      24.713  48.408  47.892  1.00  0.00     0.164 HD
HETATM   13  H   UNL     1      22.161  47.845  50.509  1.00  0.00     0.130 HD
ENDROOT
BRANCH   1  14
HETATM   14  C   UNL     1      23.765  46.359  49.294  1.00  0.00     0.023 A 
HETATM   15  C   UNL     1      23.761  45.033  48.752  1.00  0.00    -0.014 A 
HETATM   16  C   UNL     1      24.504  44.019  49.420  1.00  0.00    -0.025 A 
HETATM   17  C   UNL     1      23.059  44.636  47.584  1.00  0.00     0.013 A 
HETATM   18  C   UNL     1      24.546  42.711  48.912  1.00  0.00     0.012 A 
HETATM   19  C   UNL     1      25.200  44.313  50.599  1.00  0.00     0.015 A 
HETATM   20  C   UNL     1      23.859  42.367  47.752  1.00  0.00     0.001 A 
HETATM   21  C   UNL     1      23.111  43.329  47.091  1.00  0.00     0.001 A 
HETATM   22  C   UNL     1      25.180  45.592  51.138  1.00  0.00     0.038 A 
HETATM   23  C   UNL     1      24.479  46.598  50.489  1.00  0.00     0.076 A 
BRANCH  23  24
HETATM   24  O   UNL     1      24.524  47.826  51.095  1.00  0.00    -0.360 OA
HETATM   25  H   UNL     1      23.639  48.240  51.045  1.00  0.00     0.217 HD
ENDBRANCH  23  24
ENDBRANCH   1  14
TORSDOF 2
ENDMDL
MODEL 10
REMARK VINA RESULT:      -8.1     12.798     15.258
REMARK  2 active torsions:
REMARK  status: ('A' for Active; 'I' for Inactive)
REMARK    1  A    between atoms: C_5  and  C_6 
REMARK    2  A    between atoms: C_17  and  O_18 
ROOT
HETATM    1  C   UNL     1      31.780  50.246  40.482  1.00  0.00     0.200 C 
HETATM    2  N   UNL     1      33.139  49.859  40.204  1.00  0.00    -0.336 N 
HETATM    3  C   UNL     1      34.175  50.543  40.790  1.00  0.00     0.255 C 
HETATM    4  O   UNL     1      35.272  50.617  40.252  1.00  0.00    -0.268 OA
HETATM    5  C   UNL     1      33.901  51.111  42.122  1.00  0.00     0.053 A 
HETATM    6  C   UNL     1      32.615  50.944  42.648  1.00  0.00     0.026 A 
HETATM    7  N   UNL     1      31.586  50.332  41.919  1.00  0.00    -0.267 NA
HETATM    8  C   UNL     1      34.921  51.716  42.862  1.00  0.00     0.019 A 
HETATM    9  C   UNL     1      34.660  52.147  44.162  1.00  0.00     0.001 A 
HETATM   10  C   UNL     1      33.392  51.960  44.714  1.00  0.00     0.002 A 
HETATM   11  C   UNL     1      32.378  51.356  43.963  1.00  0.00     0.024 A 
HETATM   12  H   UNL     1      33.345  49.628  39.240  1.00  0.00     0.164 HD
HETATM   13  H   UNL     1      31.330  49.437  42.334  1.00  0.00     0.130 HD
ENDROOT
BRANCH   1  14
HETATM   14  C   UNL     1      30.800  49.243  39.897  1.00  0.00     0.023 A 
HETATM   15  C   UNL     1      29.552  49.652  39.324  1.00  0.00    -0.014 A 
HETATM   16  C   UNL     1      28.679  48.655  38.804  1.00  0.00    -0.025 A 
HETATM   17  C   UNL     1      29.102  50.995  39.236  1.00  0.00     0.013 A 
HETATM   18  C   UNL     1      27.456  49.013  38.213  1.00  0.00     0.012 A 
HETATM   19  C   UNL     1      29.027  47.301  38.879  1.00  0.00     0.015 A 
HETATM   20  C   UNL     1      27.060  50.344  38.129  1.00  0.00     0.001 A 
HETATM   21  C   UNL     1      27.881  51.334  38.645  1.00  0.00     0.001 A 
HETATM   22  C   UNL     1      30.224  46.905  39.459  1.00  0.00     0.038 A 
HETATM   23  C   UNL     1      31.097  47.863  39.953  1.00  0.00     0.076 A 
BRANCH  23  24
HETATM   24  O   UNL     1      32.254  47.374  40.500  1.00  0.00    -0.360 OA
HETATM   25  H   UNL     1      33.008  47.624  39.931  1.00  0.00     0.217 HD
ENDBRANCH  23  24
ENDBRANCH   1  14
TORSDOF 2
ENDMDL
