MODEL 1
REMARK VINA RESULT:      -8.8      0.000      0.000
REMARK  7 active torsions:
REMARK  status: ('A' for Active; 'I' for Inactive)
REMARK    1  A    between atoms: C_2  and  N_3 
REMARK       I    between atoms: N_3  and  C_4 
REMARK    2  A    between atoms: C_4  and  C_5 
REMARK    3  A    between atoms: C_9  and  N_10 
REMARK       I    between atoms: N_10  and  C_11 
REMARK    4  A    between atoms: C_11  and  C_12 
REMARK    5  A    between atoms: C_12  and  S_13 
REMARK    6  A    between atoms: S_13  and  C_14 
REMARK    7  A    between atoms: C_14  and  C_15 
ROOT
HETATM    1  N   UNL     1      25.127  44.969  50.766  1.00  0.00    -0.326 N 
HETATM    2  C   UNL     1      26.207  44.196  50.361  1.00  0.00     0.231 C 
HETATM    3  O   UNL     1      26.873  44.355  49.341  1.00  0.00    -0.272 OA
HETATM    4  H   UNL     1      24.784  44.803  51.711  1.00  0.00     0.169 HD
ENDROOT
BRANCH   2   5
HETATM    5  C   UNL     1      26.544  43.068  51.326  1.00  0.00     0.177 C 
BRANCH   5   6
HETATM    6  S   UNL     1      26.952  43.710  52.988  1.00  0.00    -0.147 SA
BRANCH   6   7
HETATM    7  C   UNL     1      28.783  43.630  52.915  1.00  0.00     0.113 C 
HETATM    8  C   UNL     1      29.217  42.223  52.512  1.00  0.00     0.029 C 
BRANCH   7   9
HETATM    9  C   UNL     1      29.360  44.050  54.233  1.00  0.00     0.118 A 
HETATM   10  N   UNL     1      28.928  45.039  54.995  1.00  0.00    -0.232 NA
HETATM   11  C   UNL     1      29.735  45.024  56.110  1.00  0.00     0.085 A 
HETATM   12  C   UNL     1      30.641  43.973  56.052  1.00  0.00     0.062 A 
HETATM   13  C   UNL     1      29.745  45.873  57.226  1.00  0.00     0.034 A 
HETATM   14  N   UNL     1      30.379  43.364  54.855  1.00  0.00    -0.342 N 
HETATM   15  C   UNL     1      31.566  43.699  57.061  1.00  0.00     0.032 A 
HETATM   16  H   UNL     1      30.835  42.537  54.497  1.00  0.00     0.167 HD
HETATM   17  C   UNL     1      31.560  44.555  58.168  1.00  0.00     0.002 A 
HETATM   18  C   UNL     1      30.668  45.627  58.251  1.00  0.00     0.002 A 
ENDBRANCH   7   9
ENDBRANCH   6   7
ENDBRANCH   5   6
ENDBRANCH   2   5
BRANCH   1  19
HETATM   19  C   UNL     1      24.516  46.032  50.050  1.00  0.00     0.040 A 
HETATM   20  C   UNL     1      23.389  45.762  49.242  1.00  0.00    -0.034 A 
HETATM   21  C   UNL     1      22.757  46.816  48.546  1.00  0.00     0.026 A 
HETATM   22  C   UNL     1      22.804  44.382  49.100  1.00  0.00     0.050 C 
HETATM   23  C   UNL     1      23.237  48.126  48.637  1.00  0.00     0.032 A 
HETATM   24  C   UNL     1      24.373  48.381  49.400  1.00  0.00     0.019 A 
HETATM   25  C   UNL     1      25.002  47.345  50.100  1.00  0.00     0.031 A 
BRANCH  23  26
HETATM   26  C   UNL     1      22.586  49.262  47.926  1.00  0.00     0.251 C 
HETATM   27  N   UNL     1      21.218  49.374  48.077  1.00  0.00    -0.357 N 
HETATM   28  H   UNL     1      20.754  48.813  48.778  1.00  0.00     0.162 HD
HETATM   29  O   UNL     1      23.263  50.058  47.285  1.00  0.00    -0.268 OA
BRANCH  27  30
HETATM   30  C   UNL     1      20.490  50.501  47.532  1.00  0.00     0.118 C 
HETATM   31  C   UNL     1      20.396  51.638  48.533  1.00  0.00     0.026 C 
ENDBRANCH  27  30
ENDBRANCH  23  26
ENDBRANCH   1  19
TORSDOF 7
ENDMDL
MODEL 2
REMARK VINA RESULT:      -8.8      0.892      1.894
REMARK  7 active torsions:
REMARK  status: ('A' for Active; 'I' for Inactive)
REMARK    1  A    between atoms: C_2  and  N_3 
REMARK       I    between atoms: N_3  and  C_4 
REMARK    2  A    between atoms: C_4  and  C_5 
REMARK    3  A    between atoms: C_9  and  N_10 
REMARK       I    between atoms: N_10  and  C_11 
REMARK    4  A    between atoms: C_11  and  C_12 
REMARK    5  A    between atoms: C_12  and  S_13 
REMARK    6  A    between atoms: S_13  and  C_14 
REMARK    7  A    between atoms: C_14  and  C_15 
ROOT
HETATM    1  N   UNL     1      25.429  44.360  51.036  1.00  0.00    -0.326 N 
HETATM    2  C   UNL     1      26.465  43.613  50.493  1.00  0.00     0.231 C 
HETATM    3  O   UNL     1      26.996  43.794  49.400  1.00  0.00    -0.272 OA
HETATM    4  H   UNL     1      25.210  44.180  52.016  1.00  0.00     0.169 HD
ENDROOT
BRANCH   2   5
HETATM    5  C   UNL     1      26.944  42.486  51.397  1.00  0.00     0.177 C 
BRANCH   5   6
HETATM    6  S   UNL     1      27.235  43.075  53.103  1.00  0.00    -0.147 SA
BRANCH   6   7
HETATM    7  C   UNL     1      29.060  43.246  53.068  1.00  0.00     0.113 C 
HETATM    8  C   UNL     1      29.690  41.919  52.651  1.00  0.00     0.029 C 
BRANCH   7   9
HETATM    9  C   UNL     1      29.549  43.714  54.406  1.00  0.00     0.118 A 
HETATM   10  N   UNL     1      30.546  43.193  55.099  1.00  0.00    -0.232 NA
HETATM   11  C   UNL     1      30.651  43.968  56.232  1.00  0.00     0.085 A 
HETATM   12  C   UNL     1      29.737  45.013  56.204  1.00  0.00     0.062 A 
HETATM   13  C   UNL     1      31.517  43.846  57.329  1.00  0.00     0.034 A 
HETATM   14  N   UNL     1      29.054  44.836  55.031  1.00  0.00    -0.342 N 
HETATM   15  C   UNL     1      29.637  45.974  57.212  1.00  0.00     0.032 A 
HETATM   16  H   UNL     1      28.328  45.439  54.671  1.00  0.00     0.167 HD
HETATM   17  C   UNL     1      30.510  45.839  58.298  1.00  0.00     0.002 A 
HETATM   18  C   UNL     1      31.433  44.792  58.359  1.00  0.00     0.002 A 
ENDBRANCH   7   9
ENDBRANCH   6   7
ENDBRANCH   5   6
ENDBRANCH   2   5
BRANCH   1  19
HETATM   19  C   UNL     1      24.712  45.414  50.412  1.00  0.00     0.040 A 
HETATM   20  C   UNL     1      24.998  46.751  50.771  1.00  0.00    -0.034 A 
HETATM   21  C   UNL     1      24.310  47.808  50.138  1.00  0.00     0.026 A 
HETATM   22  C   UNL     1      26.037  47.110  51.800  1.00  0.00     0.050 C 
HETATM   23  C   UNL     1      23.339  47.553  49.165  1.00  0.00     0.032 A 
HETATM   24  C   UNL     1      23.028  46.235  48.846  1.00  0.00     0.019 A 
HETATM   25  C   UNL     1      23.711  45.179  49.461  1.00  0.00     0.031 A 
BRANCH  23  26
HETATM   26  C   UNL     1      22.604  48.647  48.469  1.00  0.00     0.251 C 
HETATM   27  N   UNL     1      22.577  49.870  49.110  1.00  0.00    -0.357 N 
HETATM   28  H   UNL     1      23.183  50.020  49.904  1.00  0.00     0.162 HD
HETATM   29  O   UNL     1      22.096  48.448  47.371  1.00  0.00    -0.268 OA
BRANCH  27  30
HETATM   30  C   UNL     1      21.996  51.037  48.480  1.00  0.00     0.118 C 
HETATM   31  C   UNL     1      20.550  51.233  48.901  1.00  0.00     0.026 C 
ENDBRANCH  27  30
ENDBRANCH  23  26
ENDBRANCH   1  19
TORSDOF 7
ENDMDL
MODEL 3
REMARK VINA RESULT:      -8.7      2.396     10.695
REMARK  7 active torsions:
REMARK  status: ('A' for Active; 'I' for Inactive)
REMARK    1  A    between atoms: C_2  and  N_3 
REMARK       I    between atoms: N_3  and  C_4 
REMARK    2  A    between atoms: C_4  and  C_5 
REMARK    3  A    between atoms: C_9  and  N_10 
REMARK       I    between atoms: N_10  and  C_11 
REMARK    4  A    between atoms: C_11  and  C_12 
REMARK    5  A    between atoms: C_12  and  S_13 
REMARK    6  A    between atoms: S_13  and  C_14 
REMARK    7  A    between atoms: C_14  and  C_15 
ROOT
HETATM    1  N   UNL     1      25.611  44.880  51.226  1.00  0.00    -0.326 N 
HETATM    2  C   UNL     1      25.720  45.480  49.978  1.00  0.00     0.231 C 
HETATM    3  O   UNL     1      26.754  45.886  49.454  1.00  0.00    -0.272 OA
HETATM    4  H   UNL     1      24.709  44.459  51.446  1.00  0.00     0.169 HD
ENDROOT
BRANCH   2   5
HETATM    5  C   UNL     1      24.392  45.604  49.244  1.00  0.00     0.177 C 
BRANCH   5   6
HETATM    6  S   UNL     1      23.781  47.327  49.252  1.00  0.00    -0.147 SA
BRANCH   6   7
HETATM    7  C   UNL     1      22.054  47.050  48.703  1.00  0.00     0.113 C 
HETATM    8  C   UNL     1      22.051  46.550  47.260  1.00  0.00     0.029 C 
BRANCH   7   9
HETATM    9  C   UNL     1      21.262  48.312  48.870  1.00  0.00     0.118 A 
HETATM   10  N   UNL     1      21.413  49.426  48.177  1.00  0.00    -0.232 NA
HETATM   11  C   UNL     1      20.451  50.289  48.652  1.00  0.00     0.085 A 
HETATM   12  C   UNL     1      19.663  49.671  49.616  1.00  0.00     0.062 A 
HETATM   13  C   UNL     1      20.179  51.618  48.298  1.00  0.00     0.034 A 
HETATM   14  N   UNL     1      20.192  48.413  49.731  1.00  0.00    -0.342 N 
HETATM   15  C   UNL     1      18.591  50.300  50.251  1.00  0.00     0.032 A 
HETATM   16  H   UNL     1      19.844  47.676  50.326  1.00  0.00     0.167 HD
HETATM   17  C   UNL     1      18.333  51.625  49.884  1.00  0.00     0.002 A 
HETATM   18  C   UNL     1      19.113  52.277  48.926  1.00  0.00     0.002 A 
ENDBRANCH   7   9
ENDBRANCH   6   7
ENDBRANCH   5   6
ENDBRANCH   2   5
BRANCH   1  19
HETATM   19  C   UNL     1      26.644  44.699  52.183  1.00  0.00     0.040 A 
HETATM   20  C   UNL     1      26.746  45.599  53.267  1.00  0.00    -0.034 A 
HETATM   21  C   UNL     1      27.752  45.413  54.240  1.00  0.00     0.026 A 
HETATM   22  C   UNL     1      25.802  46.758  53.451  1.00  0.00     0.050 C 
HETATM   23  C   UNL     1      28.659  44.354  54.142  1.00  0.00     0.032 A 
HETATM   24  C   UNL     1      28.582  43.494  53.050  1.00  0.00     0.019 A 
HETATM   25  C   UNL     1      27.583  43.665  52.084  1.00  0.00     0.031 A 
BRANCH  23  26
HETATM   26  C   UNL     1      29.724  44.121  55.158  1.00  0.00     0.251 C 
HETATM   27  N   UNL     1      29.949  45.149  56.053  1.00  0.00    -0.357 N 
HETATM   28  H   UNL     1      29.290  45.913  56.098  1.00  0.00     0.162 HD
HETATM   29  O   UNL     1      30.320  43.051  55.193  1.00  0.00    -0.268 OA
BRANCH  27  30
HETATM   30  C   UNL     1      30.875  44.997  57.156  1.00  0.00     0.118 C 
HETATM   31  C   UNL     1      30.255  45.444  58.467  1.00  0.00     0.026 C 
ENDBRANCH  27  30
ENDBRANCH  23  26
ENDBRANCH   1  19
TORSDOF 7
ENDMDL
MODEL 4
REMARK VINA RESULT:      -8.6      2.717     10.315
REMARK  7 active torsions:
REMARK  status: ('A' for Active; 'I' for Inactive)
REMARK    1  A    between atoms: C_2  and  N_3 
REMARK       I    between atoms: N_3  and  C_4 
REMARK    2  A    between atoms: C_4  and  C_5 
REMARK    3  A    between atoms: C_9  and  N_10 
REMARK       I    between atoms: N_10  and  C_11 
REMARK    4  A    between atoms: C_11  and  C_12 
REMARK    5  A    between atoms: C_12  and  S_13 
REMARK    6  A    between atoms: S_13  and  C_14 
REMARK    7  A    between atoms: C_14  and  C_15 
ROOT
HETATM    1  N   UNL     1      24.859  46.479  51.475  1.00  0.00    -0.326 N 
HETATM    2  C   UNL     1      24.947  47.417  50.454  1.00  0.00     0.231 C 
HETATM    3  O   UNL     1      25.876  48.196  50.262  1.00  0.00    -0.272 OA
HETATM    4  H   UNL     1      24.098  45.804  51.402  1.00  0.00     0.169 HD
ENDROOT
BRANCH   2   5
HETATM    5  C   UNL     1      23.746  47.413  49.519  1.00  0.00     0.177 C 
BRANCH   5   6
HETATM    6  S   UNL     1      23.331  45.720  48.968  1.00  0.00    -0.147 SA
BRANCH   6   7
HETATM    7  C   UNL     1      21.727  46.044  48.140  1.00  0.00     0.113 C 
HETATM    8  C   UNL     1      21.858  45.760  46.645  1.00  0.00     0.029 C 
BRANCH   7   9
HETATM    9  C   UNL     1      21.291  47.451  48.417  1.00  0.00     0.118 A 
HETATM   10  N   UNL     1      21.501  48.501  47.642  1.00  0.00    -0.232 NA
HETATM   11  C   UNL     1      20.894  49.558  48.281  1.00  0.00     0.085 A 
HETATM   12  C   UNL     1      20.255  49.135  49.441  1.00  0.00     0.062 A 
HETATM   13  C   UNL     1      20.834  50.913  47.924  1.00  0.00     0.034 A 
HETATM   14  N   UNL     1      20.514  47.792  49.501  1.00  0.00    -0.342 N 
HETATM   15  C   UNL     1      19.534  49.990  50.276  1.00  0.00     0.032 A 
HETATM   16  H   UNL     1      20.174  47.154  50.205  1.00  0.00     0.167 HD
HETATM   17  C   UNL     1      19.483  51.338  49.903  1.00  0.00     0.002 A 
HETATM   18  C   UNL     1      20.124  51.795  48.749  1.00  0.00     0.002 A 
ENDBRANCH   7   9
ENDBRANCH   6   7
ENDBRANCH   5   6
ENDBRANCH   2   5
BRANCH   1  19
HETATM   19  C   UNL     1      25.767  46.292  52.550  1.00  0.00     0.040 A 
HETATM   20  C   UNL     1      26.603  45.153  52.558  1.00  0.00    -0.034 A 
HETATM   21  C   UNL     1      27.529  44.971  53.608  1.00  0.00     0.026 A 
HETATM   22  C   UNL     1      26.569  44.114  51.469  1.00  0.00     0.050 C 
HETATM   23  C   UNL     1      27.625  45.899  54.650  1.00  0.00     0.032 A 
HETATM   24  C   UNL     1      26.771  46.997  54.661  1.00  0.00     0.019 A 
HETATM   25  C   UNL     1      25.855  47.192  53.620  1.00  0.00     0.031 A 
BRANCH  23  26
HETATM   26  C   UNL     1      28.600  45.743  55.766  1.00  0.00     0.251 C 
HETATM   27  N   UNL     1      29.653  44.878  55.541  1.00  0.00    -0.357 N 
HETATM   28  H   UNL     1      29.816  44.536  54.605  1.00  0.00     0.162 HD
HETATM   29  O   UNL     1      28.467  46.392  56.797  1.00  0.00    -0.268 OA
BRANCH  27  30
HETATM   30  C   UNL     1      30.726  44.732  56.503  1.00  0.00     0.118 C 
HETATM   31  C   UNL     1      31.299  43.327  56.487  1.00  0.00     0.026 C 
ENDBRANCH  27  30
ENDBRANCH  23  26
ENDBRANCH   1  19
TORSDOF 7
ENDMDL
MODEL 5
REMARK VINA RESULT:      -8.6     12.139     15.077
REMARK  7 active torsions:
REMARK  status: ('A' for Active; 'I' for Inactive)
REMARK    1  A    between atoms: C_2  and  N_3 
REMARK       I    between atoms: N_3  and  C_4 
REMARK    2  A    between atoms: C_4  and  C_5 
REMARK    3  A    between atoms: C_9  and  N_10 
REMARK       I    between atoms: N_10  and  C_11 
REMARK    4  A    between atoms: C_11  and  C_12 
REMARK    5  A    between atoms: C_12  and  S_13 
REMARK    6  A    between atoms: S_13  and  C_14 
REMARK    7  A    between atoms: C_14  and  C_15 
ROOT
HETATM    1  N   UNL     1      29.067  48.022  40.840  1.00  0.00    -0.326 N 
HETATM    2  C   UNL     1      28.951  46.802  40.187  1.00  0.00     0.231 C 
HETATM    3  O   UNL     1      29.873  46.044  39.895  1.00  0.00    -0.272 OA
HETATM    4  H   UNL     1      28.195  48.452  41.147  1.00  0.00     0.169 HD
ENDROOT
BRANCH   2   5
HETATM    5  C   UNL     1      27.516  46.429  39.841  1.00  0.00     0.177 C 
BRANCH   5   6
HETATM    6  S   UNL     1      27.036  47.071  38.198  1.00  0.00    -0.147 SA
BRANCH   6   7
HETATM    7  C   UNL     1      25.880  48.400  38.706  1.00  0.00     0.113 C 
HETATM    8  C   UNL     1      24.883  48.667  37.581  1.00  0.00     0.029 C 
BRANCH   7   9
HETATM    9  C   UNL     1      26.655  49.627  39.084  1.00  0.00     0.118 A 
HETATM   10  N   UNL     1      26.973  50.003  40.310  1.00  0.00    -0.232 NA
HETATM   11  C   UNL     1      27.710  51.156  40.162  1.00  0.00     0.085 A 
HETATM   12  C   UNL     1      27.891  51.459  38.819  1.00  0.00     0.062 A 
HETATM   13  C   UNL     1      28.272  51.996  41.134  1.00  0.00     0.034 A 
HETATM   14  N   UNL     1      27.220  50.469  38.153  1.00  0.00    -0.342 N 
HETATM   15  C   UNL     1      28.624  52.560  38.372  1.00  0.00     0.032 A 
HETATM   16  H   UNL     1      27.167  50.359  37.151  1.00  0.00     0.167 HD
HETATM   17  C   UNL     1      29.180  53.387  39.355  1.00  0.00     0.002 A 
HETATM   18  C   UNL     1      29.006  53.114  40.714  1.00  0.00     0.002 A 
ENDBRANCH   7   9
ENDBRANCH   6   7
ENDBRANCH   5   6
ENDBRANCH   2   5
BRANCH   1  19
HETATM   19  C   UNL     1      30.265  48.684  41.216  1.00  0.00     0.040 A 
HETATM   20  C   UNL     1      31.046  49.315  40.222  1.00  0.00    -0.034 A 
HETATM   21  C   UNL     1      32.226  49.999  40.588  1.00  0.00     0.026 A 
HETATM   22  C   UNL     1      30.664  49.313  38.766  1.00  0.00     0.050 C 
HETATM   23  C   UNL     1      32.641  50.054  41.922  1.00  0.00     0.032 A 
HETATM   24  C   UNL     1      31.892  49.394  42.892  1.00  0.00     0.019 A 
HETATM   25  C   UNL     1      30.716  48.721  42.542  1.00  0.00     0.031 A 
BRANCH  23  26
HETATM   26  C   UNL     1      33.873  50.778  42.343  1.00  0.00     0.251 C 
HETATM   27  N   UNL     1      35.056  50.069  42.263  1.00  0.00    -0.357 N 
HETATM   28  H   UNL     1      35.066  49.186  41.774  1.00  0.00     0.162 HD
HETATM   29  O   UNL     1      33.809  51.949  42.698  1.00  0.00    -0.268 OA
BRANCH  27  30
HETATM   30  C   UNL     1      36.330  50.699  42.534  1.00  0.00     0.118 C 
HETATM   31  C   UNL     1      37.049  51.074  41.250  1.00  0.00     0.026 C 
ENDBRANCH  27  30
ENDBRANCH  23  26
ENDBRANCH   1  19
TORSDOF 7
ENDMDL
MODEL 6
REMARK VINA RESULT:      -8.4      6.145      9.325
REMARK  7 active torsions:
REMARK  status: ('A' for Active; 'I' for Inactive)
REMARK    1  A    between atoms: C_2  and  N_3 
REMARK       I    between atoms: N_3  and  C_4 
REMARK    2  A    between atoms: C_4  and  C_5 
REMARK    3  A    between atoms: C_9  and  N_10 
REMARK       I    between atoms: N_10  and  C_11 
REMARK    4  A    between atoms: C_11  and  C_12 
REMARK    5  A    between atoms: C_12  and  S_13 
REMARK    6  A    between atoms: S_13  and  C_14 
REMARK    7  A    between atoms: C_14  and  C_15 
ROOT
HETATM    1  N   UNL     1      18.390  49.431  48.731  1.00  0.00    -0.326 N 
HETATM    2  C   UNL     1      18.903  48.505  49.630  1.00  0.00     0.231 C 
HETATM    3  O   UNL     1      18.662  48.451  50.833  1.00  0.00    -0.272 OA
HETATM    4  H   UNL     1      18.563  49.243  47.744  1.00  0.00     0.169 HD
ENDROOT
BRANCH   2   5
HETATM    5  C   UNL     1      19.836  47.487  48.990  1.00  0.00     0.177 C 
BRANCH   5   6
HETATM    6  S   UNL     1      20.963  48.276  47.786  1.00  0.00    -0.147 SA
BRANCH   6   7
HETATM    7  C   UNL     1      21.747  49.533  48.867  1.00  0.00     0.113 C 
HETATM    8  C   UNL     1      21.491  50.927  48.298  1.00  0.00     0.029 C 
BRANCH   7   9
HETATM    9  C   UNL     1      23.209  49.235  49.010  1.00  0.00     0.118 A 
HETATM   10  N   UNL     1      23.735  48.130  49.509  1.00  0.00    -0.232 NA
HETATM   11  C   UNL     1      25.098  48.293  49.404  1.00  0.00     0.085 A 
HETATM   12  C   UNL     1      25.408  49.495  48.781  1.00  0.00     0.062 A 
HETATM   13  C   UNL     1      26.140  47.446  49.810  1.00  0.00     0.034 A 
HETATM   14  N   UNL     1      24.192  50.072  48.532  1.00  0.00    -0.342 N 
HETATM   15  C   UNL     1      26.715  49.909  48.517  1.00  0.00     0.032 A 
HETATM   16  H   UNL     1      24.038  50.950  48.057  1.00  0.00     0.167 HD
HETATM   17  C   UNL     1      27.741  49.051  48.926  1.00  0.00     0.002 A 
HETATM   18  C   UNL     1      27.462  47.841  49.565  1.00  0.00     0.002 A 
ENDBRANCH   7   9
ENDBRANCH   6   7
ENDBRANCH   5   6
ENDBRANCH   2   5
BRANCH   1  19
HETATM   19  C   UNL     1      17.567  50.549  49.026  1.00  0.00     0.040 A 
HETATM   20  C   UNL     1      16.202  50.517  48.664  1.00  0.00    -0.034 A 
HETATM   21  C   UNL     1      15.368  51.613  48.976  1.00  0.00     0.026 A 
HETATM   22  C   UNL     1      15.575  49.340  47.966  1.00  0.00     0.050 C 
HETATM   23  C   UNL     1      15.876  52.738  49.633  1.00  0.00     0.032 A 
HETATM   24  C   UNL     1      17.230  52.784  49.950  1.00  0.00     0.019 A 
HETATM   25  C   UNL     1      18.064  51.700  49.652  1.00  0.00     0.031 A 
BRANCH  23  26
HETATM   26  C   UNL     1      15.021  53.905  49.989  1.00  0.00     0.251 C 
HETATM   27  N   UNL     1      15.323  54.545  51.175  1.00  0.00    -0.357 N 
HETATM   28  H   UNL     1      16.187  54.319  51.647  1.00  0.00     0.162 HD
HETATM   29  O   UNL     1      14.133  54.274  49.229  1.00  0.00    -0.268 OA
BRANCH  27  30
HETATM   30  C   UNL     1      14.640  55.758  51.571  1.00  0.00     0.118 C 
HETATM   31  C   UNL     1      15.347  56.992  51.040  1.00  0.00     0.026 C 
ENDBRANCH  27  30
ENDBRANCH  23  26
ENDBRANCH   1  19
TORSDOF 7
ENDMDL
MODEL 7
REMARK VINA RESULT:      -8.2      2.159      2.935
REMARK  7 active torsions:
REMARK  status: ('A' for Active; 'I' for Inactive)
REMARK    1  A    between atoms: C_2  and  N_3 
REMARK       I    between atoms: N_3  and  C_4 
REMARK    2  A    between atoms: C_4  and  C_5 
REMARK    3  A    between atoms: C_9  and  N_10 
REMARK       I    between atoms: N_10  and  C_11 
REMARK    4  A    between atoms: C_11  and  C_12 
REMARK    5  A    between atoms: C_12  and  S_13 
REMARK    6  A    between atoms: S_13  and  C_14 
REMARK    7  A    between atoms: C_14  and  C_15 
ROOT
HETATM    1  N   UNL     1      24.436  44.278  49.187  1.00  0.00    -0.326 N 
HETATM    2  C   UNL     1      24.026  43.184  49.937  1.00  0.00     0.231 C 
HETATM    3  O   UNL     1      23.035  43.130  50.661  1.00  0.00    -0.272 OA
HETATM    4  H   UNL     1      25.188  44.109  48.519  1.00  0.00     0.169 HD
ENDROOT
BRANCH   2   5
HETATM    5  C   UNL     1      24.934  41.970  49.791  1.00  0.00     0.177 C 
BRANCH   5   6
HETATM    6  S   UNL     1      26.623  42.454  49.287  1.00  0.00    -0.147 SA
BRANCH   6   7
HETATM    7  C   UNL     1      27.603  41.392  50.415  1.00  0.00     0.113 C 
HETATM    8  C   UNL     1      26.764  40.189  50.842  1.00  0.00     0.029 C 
BRANCH   7   9
HETATM    9  C   UNL     1      28.079  42.200  51.584  1.00  0.00     0.118 A 
HETATM   10  N   UNL     1      27.430  43.197  52.159  1.00  0.00    -0.232 NA
HETATM   11  C   UNL     1      28.230  43.604  53.203  1.00  0.00     0.085 A 
HETATM   12  C   UNL     1      29.363  42.805  53.299  1.00  0.00     0.062 A 
HETATM   13  C   UNL     1      28.049  44.645  54.124  1.00  0.00     0.034 A 
HETATM   14  N   UNL     1      29.240  41.915  52.266  1.00  0.00    -0.342 N 
HETATM   15  C   UNL     1      30.339  42.971  54.283  1.00  0.00     0.032 A 
HETATM   16  H   UNL     1      29.878  41.162  52.053  1.00  0.00     0.167 HD
HETATM   17  C   UNL     1      30.141  44.013  55.196  1.00  0.00     0.002 A 
HETATM   18  C   UNL     1      29.018  44.840  55.118  1.00  0.00     0.002 A 
ENDBRANCH   7   9
ENDBRANCH   6   7
ENDBRANCH   5   6
ENDBRANCH   2   5
BRANCH   1  19
HETATM   19  C   UNL     1      23.858  45.575  49.173  1.00  0.00     0.040 A 
HETATM   20  C   UNL     1      24.487  46.618  49.888  1.00  0.00    -0.034 A 
HETATM   21  C   UNL     1      23.936  47.918  49.860  1.00  0.00     0.026 A 
HETATM   22  C   UNL     1      25.754  46.414  50.676  1.00  0.00     0.050 C 
HETATM   23  C   UNL     1      22.767  48.187  49.141  1.00  0.00     0.032 A 
HETATM   24  C   UNL     1      22.127  47.147  48.474  1.00  0.00     0.019 A 
HETATM   25  C   UNL     1      22.670  45.857  48.488  1.00  0.00     0.031 A 
BRANCH  23  26
HETATM   26  C   UNL     1      22.167  49.549  49.080  1.00  0.00     0.251 C 
HETATM   27  N   UNL     1      21.095  49.783  49.920  1.00  0.00    -0.357 N 
HETATM   28  H   UNL     1      20.883  49.110  50.642  1.00  0.00     0.162 HD
HETATM   29  O   UNL     1      22.647  50.403  48.344  1.00  0.00    -0.268 OA
BRANCH  27  30
HETATM   30  C   UNL     1      20.503  51.099  50.036  1.00  0.00     0.118 C 
HETATM   31  C   UNL     1      18.987  51.032  49.987  1.00  0.00     0.026 C 
ENDBRANCH  27  30
ENDBRANCH  23  26
ENDBRANCH   1  19
TORSDOF 7
ENDMDL
MODEL 8
REMARK VINA RESULT:      -8.2      7.208     13.957
REMARK  7 active torsions:
REMARK  status: ('A' for Active; 'I' for Inactive)
REMARK    1  A    between atoms: C_2  and  N_3 
REMARK       I    between atoms: N_3  and  C_4 
REMARK    2  A    between atoms: C_4  and  C_5 
REMARK    3  A    between atoms: C_9  and  N_10 
REMARK       I    between atoms: N_10  and  C_11 
REMARK    4  A    between atoms: C_11  and  C_12 
REMARK    5  A    between atoms: C_12  and  S_13 
REMARK    6  A    between atoms: S_13  and  C_14 
REMARK    7  A    between atoms: C_14  and  C_15 
ROOT
HETATM    1  N   UNL     1      17.752  51.314  49.620  1.00  0.00    -0.326 N 
HETATM    2  C   UNL     1      16.675  51.359  48.745  1.00  0.00     0.231 C 
HETATM    3  O   UNL     1      16.675  50.994  47.573  1.00  0.00    -0.272 OA
HETATM    4  H   UNL     1      17.546  51.506  50.599  1.00  0.00     0.169 HD
ENDROOT
BRANCH   2   5
HETATM    5  C   UNL     1      15.405  51.917  49.372  1.00  0.00     0.177 C 
BRANCH   5   6
HETATM    6  S   UNL     1      15.720  53.505  50.222  1.00  0.00    -0.147 SA
BRANCH   6   7
HETATM    7  C   UNL     1      14.081  53.774  51.001  1.00  0.00     0.113 C 
HETATM    8  C   UNL     1      13.048  54.085  49.920  1.00  0.00     0.029 C 
BRANCH   7   9
HETATM    9  C   UNL     1      14.182  54.865  52.025  1.00  0.00     0.118 A 
HETATM   10  N   UNL     1      13.179  55.392  52.704  1.00  0.00    -0.232 NA
HETATM   11  C   UNL     1      13.751  56.321  53.543  1.00  0.00     0.085 A 
HETATM   12  C   UNL     1      15.135  56.321  53.412  1.00  0.00     0.062 A 
HETATM   13  C   UNL     1      13.152  57.197  54.461  1.00  0.00     0.034 A 
HETATM   14  N   UNL     1      15.385  55.383  52.448  1.00  0.00    -0.342 N 
HETATM   15  C   UNL     1      15.977  57.144  54.162  1.00  0.00     0.032 A 
HETATM   16  H   UNL     1      16.297  55.098  52.120  1.00  0.00     0.167 HD
HETATM   17  C   UNL     1      15.363  58.010  55.074  1.00  0.00     0.002 A 
HETATM   18  C   UNL     1      13.974  58.040  55.220  1.00  0.00     0.002 A 
ENDBRANCH   7   9
ENDBRANCH   6   7
ENDBRANCH   5   6
ENDBRANCH   2   5
BRANCH   1  19
HETATM   19  C   UNL     1      19.086  50.930  49.320  1.00  0.00     0.040 A 
HETATM   20  C   UNL     1      19.545  49.656  49.722  1.00  0.00    -0.034 A 
HETATM   21  C   UNL     1      20.860  49.252  49.406  1.00  0.00     0.026 A 
HETATM   22  C   UNL     1      18.675  48.679  50.468  1.00  0.00     0.050 C 
HETATM   23  C   UNL     1      21.723  50.102  48.706  1.00  0.00     0.032 A 
HETATM   24  C   UNL     1      21.282  51.373  48.349  1.00  0.00     0.019 A 
HETATM   25  C   UNL     1      19.977  51.779  48.650  1.00  0.00     0.031 A 
BRANCH  23  26
HETATM   26  C   UNL     1      23.112  49.703  48.345  1.00  0.00     0.251 C 
HETATM   27  N   UNL     1      23.838  49.056  49.327  1.00  0.00    -0.357 N 
HETATM   28  H   UNL     1      23.360  48.732  50.156  1.00  0.00     0.162 HD
HETATM   29  O   UNL     1      23.543  49.916  47.217  1.00  0.00    -0.268 OA
BRANCH  27  30
HETATM   30  C   UNL     1      25.154  48.518  49.059  1.00  0.00     0.118 C 
HETATM   31  C   UNL     1      26.160  49.620  48.780  1.00  0.00     0.026 C 
ENDBRANCH  27  30
ENDBRANCH  23  26
ENDBRANCH   1  19
TORSDOF 7
ENDMDL
MODEL 9
REMARK VINA RESULT:      -8.2      2.720      4.795
REMARK  7 active torsions:
REMARK  status: ('A' for Active; 'I' for Inactive)
REMARK    1  A    between atoms: C_2  and  N_3 
REMARK       I    between atoms: N_3  and  C_4 
REMARK    2  A    between atoms: C_4  and  C_5 
REMARK    3  A    between atoms: C_9  and  N_10 
REMARK       I    between atoms: N_10  and  C_11 
REMARK    4  A    between atoms: C_11  and  C_12 
REMARK    5  A    between atoms: C_12  and  S_13 
REMARK    6  A    between atoms: S_13  and  C_14 
REMARK    7  A    between atoms: C_14  and  C_15 
ROOT
HETATM    1  N   UNL     1      23.110  49.030  49.462  1.00  0.00    -0.326 N 
HETATM    2  C   UNL     1      24.315  49.082  48.773  1.00  0.00     0.231 C 
HETATM    3  O   UNL     1      24.530  49.695  47.731  1.00  0.00    -0.272 OA
HETATM    4  H   UNL     1      23.140  48.608  50.390  1.00  0.00     0.169 HD
ENDROOT
BRANCH   2   5
HETATM    5  C   UNL     1      25.431  48.288  49.437  1.00  0.00     0.177 C 
BRANCH   5   6
HETATM    6  S   UNL     1      24.766  46.958  50.500  1.00  0.00    -0.147 SA
BRANCH   6   7
HETATM    7  C   UNL     1      25.783  45.550  49.914  1.00  0.00     0.113 C 
HETATM    8  C   UNL     1      24.872  44.455  49.364  1.00  0.00     0.029 C 
BRANCH   7   9
HETATM    9  C   UNL     1      26.655  45.058  51.030  1.00  0.00     0.118 A 
HETATM   10  N   UNL     1      26.536  45.368  52.309  1.00  0.00    -0.232 NA
HETATM   11  C   UNL     1      27.524  44.658  52.954  1.00  0.00     0.085 A 
HETATM   12  C   UNL     1      28.224  43.859  52.059  1.00  0.00     0.062 A 
HETATM   13  C   UNL     1      27.877  44.635  54.311  1.00  0.00     0.034 A 
HETATM   14  N   UNL     1      27.649  44.123  50.845  1.00  0.00    -0.342 N 
HETATM   15  C   UNL     1      29.264  43.009  52.439  1.00  0.00     0.032 A 
HETATM   16  H   UNL     1      27.893  43.689  49.966  1.00  0.00     0.167 HD
HETATM   17  C   UNL     1      29.602  42.997  53.797  1.00  0.00     0.002 A 
HETATM   18  C   UNL     1      28.923  43.798  54.719  1.00  0.00     0.002 A 
ENDBRANCH   7   9
ENDBRANCH   6   7
ENDBRANCH   5   6
ENDBRANCH   2   5
BRANCH   1  19
HETATM   19  C   UNL     1      21.868  49.589  49.062  1.00  0.00     0.040 A 
HETATM   20  C   UNL     1      20.859  48.738  48.557  1.00  0.00    -0.034 A 
HETATM   21  C   UNL     1      19.610  49.279  48.181  1.00  0.00     0.026 A 
HETATM   22  C   UNL     1      21.047  47.251  48.417  1.00  0.00     0.050 C 
HETATM   23  C   UNL     1      19.359  50.650  48.292  1.00  0.00     0.032 A 
HETATM   24  C   UNL     1      20.369  51.490  48.749  1.00  0.00     0.019 A 
HETATM   25  C   UNL     1      21.608  50.963  49.133  1.00  0.00     0.031 A 
BRANCH  23  26
HETATM   26  C   UNL     1      18.048  51.251  47.916  1.00  0.00     0.251 C 
HETATM   27  N   UNL     1      16.995  51.008  48.777  1.00  0.00    -0.357 N 
HETATM   28  H   UNL     1      17.186  50.602  49.682  1.00  0.00     0.162 HD
HETATM   29  O   UNL     1      17.954  51.949  46.913  1.00  0.00    -0.268 OA
BRANCH  27  30
HETATM   30  C   UNL     1      15.704  51.633  48.582  1.00  0.00     0.118 C 
HETATM   31  C   UNL     1      15.292  52.448  49.794  1.00  0.00     0.026 C 
ENDBRANCH  27  30
ENDBRANCH  23  26
ENDBRANCH   1  19
TORSDOF 7
ENDMDL
MODEL 10
REMARK VINA RESULT:      -8.1      2.612      4.549
REMARK  7 active torsions:
REMARK  status: ('A' for Active; 'I' for Inactive)
REMARK    1  A    between atoms: C_2  and  N_3 
REMARK       I    between atoms: N_3  and  C_4 
REMARK    2  A    between atoms: C_4  and  C_5 
REMARK    3  A    between atoms: C_9  and  N_10 
REMARK       I    between atoms: N_10  and  C_11 
REMARK    4  A    between atoms: C_11  and  C_12 
REMARK    5  A    between atoms: C_12  and  S_13 
REMARK    6  A    between atoms: S_13  and  C_14 
REMARK    7  A    between atoms: C_14  and  C_15 
ROOT
HETATM    1  N   UNL     1      23.112  48.321  49.553  1.00  0.00    -0.326 N 
HETATM    2  C   UNL     1      23.528  47.043  49.204  1.00  0.00     0.231 C 
HETATM    3  O   UNL     1      22.957  46.279  48.429  1.00  0.00    -0.272 OA
HETATM    4  H   UNL     1      23.778  48.882  50.083  1.00  0.00     0.169 HD
ENDROOT
BRANCH   2   5
HETATM    5  C   UNL     1      24.827  46.620  49.876  1.00  0.00     0.177 C 
BRANCH   5   6
HETATM    6  S   UNL     1      24.585  45.147  50.931  1.00  0.00    -0.147 SA
BRANCH   6   7
HETATM    7  C   UNL     1      25.271  45.776  52.511  1.00  0.00     0.113 C 
HETATM    8  C   UNL     1      25.491  47.284  52.407  1.00  0.00     0.029 C 
BRANCH   7   9
HETATM    9  C   UNL     1      26.532  45.038  52.844  1.00  0.00     0.118 A 
HETATM   10  N   UNL     1      27.210  44.244  52.034  1.00  0.00    -0.232 NA
HETATM   11  C   UNL     1      28.303  43.826  52.757  1.00  0.00     0.085 A 
HETATM   12  C   UNL     1      28.322  44.418  54.015  1.00  0.00     0.062 A 
HETATM   13  C   UNL     1      29.336  42.946  52.402  1.00  0.00     0.034 A 
HETATM   14  N   UNL     1      27.192  45.189  54.043  1.00  0.00    -0.342 N 
HETATM   15  C   UNL     1      29.332  44.197  54.953  1.00  0.00     0.032 A 
HETATM   16  H   UNL     1      26.902  45.789  54.803  1.00  0.00     0.167 HD
HETATM   17  C   UNL     1      30.355  43.318  54.580  1.00  0.00     0.002 A 
HETATM   18  C   UNL     1      30.359  42.699  53.328  1.00  0.00     0.002 A 
ENDBRANCH   7   9
ENDBRANCH   6   7
ENDBRANCH   5   6
ENDBRANCH   2   5
BRANCH   1  19
HETATM   19  C   UNL     1      21.908  48.967  49.167  1.00  0.00     0.040 A 
HETATM   20  C   UNL     1      21.957  50.303  48.710  1.00  0.00    -0.034 A 
HETATM   21  C   UNL     1      20.770  50.947  48.299  1.00  0.00     0.026 A 
HETATM   22  C   UNL     1      23.242  51.082  48.618  1.00  0.00     0.050 C 
HETATM   23  C   UNL     1      19.540  50.284  48.347  1.00  0.00     0.032 A 
HETATM   24  C   UNL     1      19.489  48.983  48.838  1.00  0.00     0.019 A 
HETATM   25  C   UNL     1      20.661  48.333  49.240  1.00  0.00     0.031 A 
BRANCH  23  26
HETATM   26  C   UNL     1      18.271  50.930  47.908  1.00  0.00     0.251 C 
HETATM   27  N   UNL     1      17.598  51.666  48.863  1.00  0.00    -0.357 N 
HETATM   28  H   UNL     1      18.062  51.879  49.735  1.00  0.00     0.162 HD
HETATM   29  O   UNL     1      17.895  50.827  46.746  1.00  0.00    -0.268 OA
BRANCH  27  30
HETATM   30  C   UNL     1      16.417  52.434  48.528  1.00  0.00     0.118 C 
HETATM   31  C   UNL     1      15.277  52.148  49.488  1.00  0.00     0.026 C 
ENDBRANCH  27  30
ENDBRANCH  23  26
ENDBRANCH   1  19
TORSDOF 7
ENDMDL
