MODEL 1
REMARK VINA RESULT:      -9.0      0.000      0.000
REMARK  7 active torsions:
REMARK  status: ('A' for Active; 'I' for Inactive)
REMARK    1  A    between atoms: O_2  and  C_3 
REMARK    2  A    between atoms: C_6  and  N_7 
REMARK       I    between atoms: N_7  and  C_8 
REMARK    3  A    between atoms: C_8  and  C_9 
REMARK    4  A    between atoms: C_9  and  C_10 
REMARK    5  A    between atoms: C_10  and  N_11 
REMARK    6  A    between atoms: C_10  and  C_20 
REMARK       I    between atoms: N_11  and  C_12 
REMARK    7  A    between atoms: C_12  and  C_13 
ROOT
HETATM    1  C   UNL     1      27.684  44.797  53.152  1.00  0.00     0.126 C 
ENDROOT
BRANCH   1   2
HETATM    2  C   UNL     1      26.496  45.556  53.736  1.00  0.00     0.133 C 
BRANCH   2   3
HETATM    3  C   UNL     1      25.846  46.619  52.865  1.00  0.00     0.224 C 
HETATM    4  N   UNL     1      25.803  46.379  51.509  1.00  0.00    -0.326 N 
HETATM    5  H   UNL     1      25.915  45.425  51.181  1.00  0.00     0.169 HD
HETATM    6  O   UNL     1      25.472  47.664  53.399  1.00  0.00    -0.273 OA
BRANCH   4   7
HETATM    7  C   UNL     1      25.490  47.328  50.508  1.00  0.00     0.052 A 
HETATM    8  C   UNL     1      24.203  47.636  50.072  1.00  0.00     0.149 A 
HETATM    9  N   UNL     1      23.912  48.588  49.146  1.00  0.00    -0.235 NA
HETATM   10  C   UNL     1      24.955  49.262  48.623  1.00  0.00     0.163 A 
HETATM   11  C   UNL     1      26.272  49.027  48.978  1.00  0.00     0.060 A 
HETATM   12  C   UNL     1      26.540  48.049  49.937  1.00  0.00     0.035 A 
BRANCH  10  13
HETATM   13  O   UNL     1      24.736  50.251  47.685  1.00  0.00    -0.339 OA
HETATM   14  C   UNL     1      23.440  50.836  47.790  1.00  0.00     0.211 C 
ENDBRANCH  10  13
ENDBRANCH   4   7
ENDBRANCH   2   3
ENDBRANCH   1   2
BRANCH   1  15
HETATM   15  N   UNL     1      27.282  43.531  52.560  1.00  0.00    -0.348 N 
HETATM   16  C   UNL     1      27.311  43.346  51.194  1.00  0.00     0.252 C 
HETATM   17  O   UNL     1      27.419  44.259  50.385  1.00  0.00    -0.268 OA
HETATM   18  H   UNL     1      27.373  42.704  53.138  1.00  0.00     0.163 HD
BRANCH  16  19
HETATM   19  C   UNL     1      27.239  41.934  50.749  1.00  0.00     0.032 A 
HETATM   20  C   UNL     1      28.333  41.074  50.908  1.00  0.00     0.017 A 
HETATM   21  C   UNL     1      28.250  39.758  50.452  1.00  0.00     0.001 A 
HETATM   22  C   UNL     1      27.082  39.304  49.837  1.00  0.00     0.000 A 
HETATM   23  C   UNL     1      25.989  40.159  49.688  1.00  0.00     0.001 A 
HETATM   24  C   UNL     1      26.063  41.474  50.150  1.00  0.00     0.017 A 
ENDBRANCH  16  19
ENDBRANCH   1  15
BRANCH   1  25
HETATM   25  C   UNL     1      28.756  44.544  54.205  1.00  0.00    -0.035 A 
HETATM   26  C   UNL     1      28.969  45.484  55.226  1.00  0.00     0.009 A 
HETATM   27  C   UNL     1      29.944  45.269  56.202  1.00  0.00     0.001 A 
HETATM   28  C   UNL     1      30.726  44.116  56.166  1.00  0.00     0.000 A 
HETATM   29  C   UNL     1      30.536  43.179  55.153  1.00  0.00     0.001 A 
HETATM   30  C   UNL     1      29.559  43.391  54.178  1.00  0.00     0.009 A 
ENDBRANCH   1  25
TORSDOF 7
ENDMDL
MODEL 2
REMARK VINA RESULT:      -8.5      1.302      1.847
REMARK  7 active torsions:
REMARK  status: ('A' for Active; 'I' for Inactive)
REMARK    1  A    between atoms: O_2  and  C_3 
REMARK    2  A    between atoms: C_6  and  N_7 
REMARK       I    between atoms: N_7  and  C_8 
REMARK    3  A    between atoms: C_8  and  C_9 
REMARK    4  A    between atoms: C_9  and  C_10 
REMARK    5  A    between atoms: C_10  and  N_11 
REMARK    6  A    between atoms: C_10  and  C_20 
REMARK       I    between atoms: N_11  and  C_12 
REMARK    7  A    between atoms: C_12  and  C_13 
ROOT
HETATM    1  C   UNL     1      27.565  43.906  52.056  1.00  0.00     0.126 C 
ENDROOT
BRANCH   1   2
HETATM    2  C   UNL     1      26.186  44.342  52.544  1.00  0.00     0.133 C 
BRANCH   2   3
HETATM    3  C   UNL     1      25.654  45.675  52.043  1.00  0.00     0.224 C 
HETATM    4  N   UNL     1      25.493  45.814  50.681  1.00  0.00    -0.326 N 
HETATM    5  H   UNL     1      25.438  44.977  50.111  1.00  0.00     0.169 HD
HETATM    6  O   UNL     1      25.476  46.578  52.861  1.00  0.00    -0.273 OA
BRANCH   4   7
HETATM    7  C   UNL     1      25.268  47.030  49.993  1.00  0.00     0.052 A 
HETATM    8  C   UNL     1      26.263  47.919  49.592  1.00  0.00     0.149 A 
HETATM    9  N   UNL     1      26.037  49.058  48.886  1.00  0.00    -0.235 NA
HETATM   10  C   UNL     1      24.756  49.329  48.568  1.00  0.00     0.163 A 
HETATM   11  C   UNL     1      23.692  48.519  48.927  1.00  0.00     0.060 A 
HETATM   12  C   UNL     1      23.955  47.352  49.645  1.00  0.00     0.035 A 
BRANCH  10  13
HETATM   13  O   UNL     1      24.451  50.463  47.842  1.00  0.00    -0.339 OA
HETATM   14  C   UNL     1      23.048  50.685  47.726  1.00  0.00     0.211 C 
ENDBRANCH  10  13
ENDBRANCH   4   7
ENDBRANCH   2   3
ENDBRANCH   1   2
BRANCH   1  15
HETATM   15  N   UNL     1      27.525  42.607  51.404  1.00  0.00    -0.348 N 
HETATM   16  C   UNL     1      27.387  42.504  50.036  1.00  0.00     0.252 C 
HETATM   17  O   UNL     1      27.042  43.431  49.314  1.00  0.00    -0.268 OA
HETATM   18  H   UNL     1      27.987  41.841  51.878  1.00  0.00     0.163 HD
BRANCH  16  19
HETATM   19  C   UNL     1      27.726  41.178  49.467  1.00  0.00     0.032 A 
HETATM   20  C   UNL     1      28.111  40.117  50.297  1.00  0.00     0.017 A 
HETATM   21  C   UNL     1      28.454  38.888  49.734  1.00  0.00     0.001 A 
HETATM   22  C   UNL     1      28.418  38.720  48.348  1.00  0.00     0.000 A 
HETATM   23  C   UNL     1      28.026  39.775  47.522  1.00  0.00     0.001 A 
HETATM   24  C   UNL     1      27.671  41.004  48.081  1.00  0.00     0.017 A 
ENDBRANCH  16  19
ENDBRANCH   1  15
BRANCH   1  25
HETATM   25  C   UNL     1      28.574  43.867  53.197  1.00  0.00    -0.035 A 
HETATM   26  C   UNL     1      29.612  42.922  53.181  1.00  0.00     0.009 A 
HETATM   27  C   UNL     1      30.548  42.872  54.215  1.00  0.00     0.001 A 
HETATM   28  C   UNL     1      30.455  43.760  55.285  1.00  0.00     0.000 A 
HETATM   29  C   UNL     1      29.424  44.696  55.323  1.00  0.00     0.001 A 
HETATM   30  C   UNL     1      28.489  44.749  54.288  1.00  0.00     0.009 A 
ENDBRANCH   1  25
TORSDOF 7
ENDMDL
MODEL 3
REMARK VINA RESULT:      -8.5      1.649      5.018
REMARK  7 active torsions:
REMARK  status: ('A' for Active; 'I' for Inactive)
REMARK    1  A    between atoms: O_2  and  C_3 
REMARK    2  A    between atoms: C_6  and  N_7 
REMARK       I    between atoms: N_7  and  C_8 
REMARK    3  A    between atoms: C_8  and  C_9 
REMARK    4  A    between atoms: C_9  and  C_10 
REMARK    5  A    between atoms: C_10  and  N_11 
REMARK    6  A    between atoms: C_10  and  C_20 
REMARK       I    between atoms: N_11  and  C_12 
REMARK    7  A    between atoms: C_12  and  C_13 
ROOT
HETATM    1  C   UNL     1      26.332  44.720  51.809  1.00  0.00     0.126 C 
ENDROOT
BRANCH   1   2
HETATM    2  C   UNL     1      26.370  45.779  50.711  1.00  0.00     0.133 C 
BRANCH   2   3
HETATM    3  C   UNL     1      25.249  46.807  50.688  1.00  0.00     0.224 C 
HETATM    4  N   UNL     1      24.661  47.066  49.469  1.00  0.00    -0.326 N 
HETATM    5  H   UNL     1      24.767  46.385  48.724  1.00  0.00     0.169 HD
HETATM    6  O   UNL     1      24.986  47.408  51.730  1.00  0.00    -0.273 OA
BRANCH   4   7
HETATM    7  C   UNL     1      23.801  48.151  49.177  1.00  0.00     0.052 A 
HETATM    8  C   UNL     1      22.409  48.084  49.154  1.00  0.00     0.149 A 
HETATM    9  N   UNL     1      21.593  49.147  48.923  1.00  0.00    -0.235 NA
HETATM   10  C   UNL     1      22.191  50.332  48.698  1.00  0.00     0.163 A 
HETATM   11  C   UNL     1      23.565  50.505  48.688  1.00  0.00     0.060 A 
HETATM   12  C   UNL     1      24.379  49.398  48.936  1.00  0.00     0.035 A 
BRANCH  10  13
HETATM   13  O   UNL     1      21.427  51.457  48.467  1.00  0.00    -0.339 OA
HETATM   14  C   UNL     1      20.150  51.398  49.097  1.00  0.00     0.211 C 
ENDBRANCH  10  13
ENDBRANCH   4   7
ENDBRANCH   2   3
ENDBRANCH   1   2
BRANCH   1  15
HETATM   15  N   UNL     1      27.535  44.741  52.626  1.00  0.00    -0.348 N 
HETATM   16  C   UNL     1      27.486  45.122  53.951  1.00  0.00     0.252 C 
HETATM   17  O   UNL     1      26.530  45.696  54.459  1.00  0.00    -0.268 OA
HETATM   18  H   UNL     1      28.286  44.119  52.355  1.00  0.00     0.163 HD
BRANCH  16  19
HETATM   19  C   UNL     1      28.674  44.755  54.756  1.00  0.00     0.032 A 
HETATM   20  C   UNL     1      29.188  45.632  55.720  1.00  0.00     0.017 A 
HETATM   21  C   UNL     1      30.326  45.274  56.443  1.00  0.00     0.001 A 
HETATM   22  C   UNL     1      30.950  44.048  56.202  1.00  0.00     0.000 A 
HETATM   23  C   UNL     1      30.431  43.171  55.248  1.00  0.00     0.001 A 
HETATM   24  C   UNL     1      29.287  43.520  54.529  1.00  0.00     0.017 A 
ENDBRANCH  16  19
ENDBRANCH   1  15
BRANCH   1  25
HETATM   25  C   UNL     1      26.140  43.323  51.230  1.00  0.00    -0.035 A 
HETATM   26  C   UNL     1      27.009  42.286  51.604  1.00  0.00     0.009 A 
HETATM   27  C   UNL     1      26.848  40.999  51.088  1.00  0.00     0.001 A 
HETATM   28  C   UNL     1      25.822  40.733  50.184  1.00  0.00     0.000 A 
HETATM   29  C   UNL     1      24.959  41.753  49.792  1.00  0.00     0.001 A 
HETATM   30  C   UNL     1      25.116  43.040  50.310  1.00  0.00     0.009 A 
ENDBRANCH   1  25
TORSDOF 7
ENDMDL
MODEL 4
REMARK VINA RESULT:      -8.5      2.891      7.131
REMARK  7 active torsions:
REMARK  status: ('A' for Active; 'I' for Inactive)
REMARK    1  A    between atoms: O_2  and  C_3 
REMARK    2  A    between atoms: C_6  and  N_7 
REMARK       I    between atoms: N_7  and  C_8 
REMARK    3  A    between atoms: C_8  and  C_9 
REMARK    4  A    between atoms: C_9  and  C_10 
REMARK    5  A    between atoms: C_10  and  N_11 
REMARK    6  A    between atoms: C_10  and  C_20 
REMARK       I    between atoms: N_11  and  C_12 
REMARK    7  A    between atoms: C_12  and  C_13 
ROOT
HETATM    1  C   UNL     1      28.020  42.784  53.737  1.00  0.00     0.126 C 
ENDROOT
BRANCH   1   2
HETATM    2  C   UNL     1      28.664  41.480  53.274  1.00  0.00     0.133 C 
BRANCH   2   3
HETATM    3  C   UNL     1      28.089  40.814  52.034  1.00  0.00     0.224 C 
HETATM    4  N   UNL     1      28.956  40.070  51.263  1.00  0.00    -0.326 N 
HETATM    5  H   UNL     1      29.822  39.748  51.680  1.00  0.00     0.169 HD
HETATM    6  O   UNL     1      26.915  41.040  51.741  1.00  0.00    -0.273 OA
BRANCH   4   7
HETATM    7  C   UNL     1      28.701  39.593  49.955  1.00  0.00     0.052 A 
HETATM    8  C   UNL     1      28.413  40.396  48.852  1.00  0.00     0.149 A 
HETATM    9  N   UNL     1      28.222  39.928  47.591  1.00  0.00    -0.235 NA
HETATM   10  C   UNL     1      28.314  38.595  47.419  1.00  0.00     0.163 A 
HETATM   11  C   UNL     1      28.583  37.709  48.448  1.00  0.00     0.060 A 
HETATM   12  C   UNL     1      28.783  38.218  49.732  1.00  0.00     0.035 A 
BRANCH  10  13
HETATM   13  O   UNL     1      28.142  38.049  46.163  1.00  0.00    -0.339 OA
HETATM   14  C   UNL     1      28.672  36.731  46.056  1.00  0.00     0.211 C 
ENDBRANCH  10  13
ENDBRANCH   4   7
ENDBRANCH   2   3
ENDBRANCH   1   2
BRANCH   1  15
HETATM   15  N   UNL     1      27.604  43.612  52.616  1.00  0.00    -0.348 N 
HETATM   16  C   UNL     1      26.343  44.169  52.575  1.00  0.00     0.252 C 
HETATM   17  O   UNL     1      25.422  43.824  53.305  1.00  0.00    -0.268 OA
HETATM   18  H   UNL     1      28.334  44.090  52.102  1.00  0.00     0.163 HD
BRANCH  16  19
HETATM   19  C   UNL     1      26.171  45.267  51.594  1.00  0.00     0.032 A 
HETATM   20  C   UNL     1      26.956  45.324  50.435  1.00  0.00     0.017 A 
HETATM   21  C   UNL     1      26.795  46.384  49.543  1.00  0.00     0.001 A 
HETATM   22  C   UNL     1      25.857  47.385  49.809  1.00  0.00     0.000 A 
HETATM   23  C   UNL     1      25.070  47.322  50.959  1.00  0.00     0.001 A 
HETATM   24  C   UNL     1      25.220  46.258  51.850  1.00  0.00     0.017 A 
ENDBRANCH  16  19
ENDBRANCH   1  15
BRANCH   1  25
HETATM   25  C   UNL     1      28.958  43.583  54.633  1.00  0.00    -0.035 A 
HETATM   26  C   UNL     1      30.149  43.000  55.094  1.00  0.00     0.009 A 
HETATM   27  C   UNL     1      31.024  43.716  55.914  1.00  0.00     0.001 A 
HETATM   28  C   UNL     1      30.716  45.021  56.291  1.00  0.00     0.000 A 
HETATM   29  C   UNL     1      29.533  45.610  55.852  1.00  0.00     0.001 A 
HETATM   30  C   UNL     1      28.659  44.897  55.030  1.00  0.00     0.009 A 
ENDBRANCH   1  25
TORSDOF 7
ENDMDL
MODEL 5
REMARK VINA RESULT:      -8.3      3.654      8.088
REMARK  7 active torsions:
REMARK  status: ('A' for Active; 'I' for Inactive)
REMARK    1  A    between atoms: O_2  and  C_3 
REMARK    2  A    between atoms: C_6  and  N_7 
REMARK       I    between atoms: N_7  and  C_8 
REMARK    3  A    between atoms: C_8  and  C_9 
REMARK    4  A    between atoms: C_9  and  C_10 
REMARK    5  A    between atoms: C_10  and  N_11 
REMARK    6  A    between atoms: C_10  and  C_20 
REMARK       I    between atoms: N_11  and  C_12 
REMARK    7  A    between atoms: C_12  and  C_13 
ROOT
HETATM    1  C   UNL     1      27.888  43.575  52.688  1.00  0.00     0.126 C 
ENDROOT
BRANCH   1   2
HETATM    2  C   UNL     1      27.139  42.263  52.471  1.00  0.00     0.133 C 
BRANCH   2   3
HETATM    3  C   UNL     1      27.745  41.261  51.501  1.00  0.00     0.224 C 
HETATM    4  N   UNL     1      27.085  41.067  50.306  1.00  0.00    -0.326 N 
HETATM    5  H   UNL     1      26.433  41.778  49.991  1.00  0.00     0.169 HD
HETATM    6  O   UNL     1      28.732  40.621  51.863  1.00  0.00    -0.273 OA
BRANCH   4   7
HETATM    7  C   UNL     1      27.320  40.014  49.391  1.00  0.00     0.052 A 
HETATM    8  C   UNL     1      28.142  40.097  48.269  1.00  0.00     0.149 A 
HETATM    9  N   UNL     1      28.400  39.061  47.427  1.00  0.00    -0.235 NA
HETATM   10  C   UNL     1      27.805  37.887  47.712  1.00  0.00     0.163 A 
HETATM   11  C   UNL     1      26.962  37.700  48.794  1.00  0.00     0.060 A 
HETATM   12  C   UNL     1      26.722  38.779  49.647  1.00  0.00     0.035 A 
BRANCH  10  13
HETATM   13  O   UNL     1      28.029  36.788  46.908  1.00  0.00    -0.339 OA
HETATM   14  C   UNL     1      29.118  36.973  46.008  1.00  0.00     0.211 C 
ENDBRANCH  10  13
ENDBRANCH   4   7
ENDBRANCH   2   3
ENDBRANCH   1   2
BRANCH   1  15
HETATM   15  N   UNL     1      28.420  43.679  54.038  1.00  0.00    -0.348 N 
HETATM   16  C   UNL     1      29.761  43.476  54.290  1.00  0.00     0.252 C 
HETATM   17  O   UNL     1      30.533  42.960  53.491  1.00  0.00    -0.268 OA
HETATM   18  H   UNL     1      27.916  44.272  54.685  1.00  0.00     0.163 HD
BRANCH  16  19
HETATM   19  C   UNL     1      30.235  43.964  55.606  1.00  0.00     0.032 A 
HETATM   20  C   UNL     1      29.776  45.180  56.129  1.00  0.00     0.017 A 
HETATM   21  C   UNL     1      30.262  45.631  57.356  1.00  0.00     0.001 A 
HETATM   22  C   UNL     1      31.204  44.874  58.056  1.00  0.00     0.000 A 
HETATM   23  C   UNL     1      31.653  43.658  57.539  1.00  0.00     0.001 A 
HETATM   24  C   UNL     1      31.163  43.197  56.316  1.00  0.00     0.017 A 
ENDBRANCH  16  19
ENDBRANCH   1  15
BRANCH   1  25
HETATM   25  C   UNL     1      27.000  44.779  52.401  1.00  0.00    -0.035 A 
HETATM   26  C   UNL     1      26.764  45.729  53.407  1.00  0.00     0.009 A 
HETATM   27  C   UNL     1      25.956  46.841  53.164  1.00  0.00     0.001 A 
HETATM   28  C   UNL     1      25.366  47.014  51.914  1.00  0.00     0.000 A 
HETATM   29  C   UNL     1      25.580  46.075  50.908  1.00  0.00     0.001 A 
HETATM   30  C   UNL     1      26.390  44.965  51.149  1.00  0.00     0.009 A 
ENDBRANCH   1  25
TORSDOF 7
ENDMDL
MODEL 6
REMARK VINA RESULT:      -8.1      1.775      5.055
REMARK  7 active torsions:
REMARK  status: ('A' for Active; 'I' for Inactive)
REMARK    1  A    between atoms: O_2  and  C_3 
REMARK    2  A    between atoms: C_6  and  N_7 
REMARK       I    between atoms: N_7  and  C_8 
REMARK    3  A    between atoms: C_8  and  C_9 
REMARK    4  A    between atoms: C_9  and  C_10 
REMARK    5  A    between atoms: C_10  and  N_11 
REMARK    6  A    between atoms: C_10  and  C_20 
REMARK       I    between atoms: N_11  and  C_12 
REMARK    7  A    between atoms: C_12  and  C_13 
ROOT
HETATM    1  C   UNL     1      26.401  43.413  51.375  1.00  0.00     0.126 C 
ENDROOT
BRANCH   1   2
HETATM    2  C   UNL     1      26.127  44.372  50.220  1.00  0.00     0.133 C 
BRANCH   2   3
HETATM    3  C   UNL     1      25.054  45.430  50.425  1.00  0.00     0.224 C 
HETATM    4  N   UNL     1      24.555  46.044  49.297  1.00  0.00    -0.326 N 
HETATM    5  H   UNL     1      24.679  45.587  48.400  1.00  0.00     0.169 HD
HETATM    6  O   UNL     1      24.751  45.739  51.578  1.00  0.00    -0.273 OA
BRANCH   4   7
HETATM    7  C   UNL     1      23.761  47.215  49.273  1.00  0.00     0.052 A 
HETATM    8  C   UNL     1      24.223  48.501  49.547  1.00  0.00     0.149 A 
HETATM    9  N   UNL     1      23.461  49.624  49.469  1.00  0.00    -0.235 NA
HETATM   10  C   UNL     1      22.174  49.459  49.108  1.00  0.00     0.163 A 
HETATM   11  C   UNL     1      21.612  48.225  48.826  1.00  0.00     0.060 A 
HETATM   12  C   UNL     1      22.420  47.089  48.906  1.00  0.00     0.035 A 
BRANCH  10  13
HETATM   13  O   UNL     1      21.343  50.554  48.998  1.00  0.00    -0.339 OA
HETATM   14  C   UNL     1      20.761  50.936  50.242  1.00  0.00     0.211 C 
ENDBRANCH  10  13
ENDBRANCH   4   7
ENDBRANCH   2   3
ENDBRANCH   1   2
BRANCH   1  15
HETATM   15  N   UNL     1      27.458  43.899  52.247  1.00  0.00    -0.348 N 
HETATM   16  C   UNL     1      27.253  44.032  53.604  1.00  0.00     0.252 C 
HETATM   17  O   UNL     1      26.148  44.005  54.132  1.00  0.00    -0.268 OA
HETATM   18  H   UNL     1      28.411  43.754  51.938  1.00  0.00     0.163 HD
BRANCH  16  19
HETATM   19  C   UNL     1      28.485  44.175  54.416  1.00  0.00     0.032 A 
HETATM   20  C   UNL     1      29.466  43.175  54.416  1.00  0.00     0.017 A 
HETATM   21  C   UNL     1      30.602  43.322  55.212  1.00  0.00     0.001 A 
HETATM   22  C   UNL     1      30.756  44.459  56.007  1.00  0.00     0.000 A 
HETATM   23  C   UNL     1      29.782  45.459  55.999  1.00  0.00     0.001 A 
HETATM   24  C   UNL     1      28.648  45.323  55.197  1.00  0.00     0.017 A 
ENDBRANCH  16  19
ENDBRANCH   1  15
BRANCH   1  25
HETATM   25  C   UNL     1      26.764  42.021  50.869  1.00  0.00    -0.035 A 
HETATM   26  C   UNL     1      25.821  41.271  50.149  1.00  0.00     0.009 A 
HETATM   27  C   UNL     1      26.135  39.996  49.675  1.00  0.00     0.001 A 
HETATM   28  C   UNL     1      27.393  39.450  49.922  1.00  0.00     0.000 A 
HETATM   29  C   UNL     1      28.336  40.176  50.646  1.00  0.00     0.001 A 
HETATM   30  C   UNL     1      28.024  41.452  51.118  1.00  0.00     0.009 A 
ENDBRANCH   1  25
TORSDOF 7
ENDMDL
MODEL 7
REMARK VINA RESULT:      -7.9      2.883      5.641
REMARK  7 active torsions:
REMARK  status: ('A' for Active; 'I' for Inactive)
REMARK    1  A    between atoms: O_2  and  C_3 
REMARK    2  A    between atoms: C_6  and  N_7 
REMARK       I    between atoms: N_7  and  C_8 
REMARK    3  A    between atoms: C_8  and  C_9 
REMARK    4  A    between atoms: C_9  and  C_10 
REMARK    5  A    between atoms: C_10  and  N_11 
REMARK    6  A    between atoms: C_10  and  C_20 
REMARK       I    between atoms: N_11  and  C_12 
REMARK    7  A    between atoms: C_12  and  C_13 
ROOT
HETATM    1  C   UNL     1      26.809  43.340  51.532  1.00  0.00     0.126 C 
ENDROOT
BRANCH   1   2
HETATM    2  C   UNL     1      26.281  44.476  50.659  1.00  0.00     0.133 C 
BRANCH   2   3
HETATM    3  C   UNL     1      24.773  44.630  50.545  1.00  0.00     0.224 C 
HETATM    4  N   UNL     1      24.256  44.823  49.281  1.00  0.00    -0.326 N 
HETATM    5  H   UNL     1      24.822  44.561  48.480  1.00  0.00     0.169 HD
HETATM    6  O   UNL     1      24.108  44.659  51.580  1.00  0.00    -0.273 OA
BRANCH   4   7
HETATM    7  C   UNL     1      22.940  45.245  48.979  1.00  0.00     0.052 A 
HETATM    8  C   UNL     1      21.814  44.423  48.992  1.00  0.00     0.149 A 
HETATM    9  N   UNL     1      20.547  44.853  48.750  1.00  0.00    -0.235 NA
HETATM   10  C   UNL     1      20.394  46.163  48.476  1.00  0.00     0.163 A 
HETATM   11  C   UNL     1      21.446  47.061  48.427  1.00  0.00     0.060 A 
HETATM   12  C   UNL     1      22.735  46.594  48.687  1.00  0.00     0.035 A 
BRANCH  10  13
HETATM   13  O   UNL     1      19.135  46.672  48.231  1.00  0.00    -0.339 OA
HETATM   14  C   UNL     1      18.165  45.658  47.983  1.00  0.00     0.211 C 
ENDBRANCH  10  13
ENDBRANCH   4   7
ENDBRANCH   2   3
ENDBRANCH   1   2
BRANCH   1  15
HETATM   15  N   UNL     1      27.872  43.786  52.418  1.00  0.00    -0.348 N 
HETATM   16  C   UNL     1      27.608  44.128  53.727  1.00  0.00     0.252 C 
HETATM   17  O   UNL     1      26.481  44.329  54.165  1.00  0.00    -0.268 OA
HETATM   18  H   UNL     1      28.810  43.467  52.207  1.00  0.00     0.163 HD
BRANCH  16  19
HETATM   19  C   UNL     1      28.796  44.204  54.611  1.00  0.00     0.032 A 
HETATM   20  C   UNL     1      29.679  43.123  54.721  1.00  0.00     0.017 A 
HETATM   21  C   UNL     1      30.773  43.209  55.583  1.00  0.00     0.001 A 
HETATM   22  C   UNL     1      30.982  44.369  56.332  1.00  0.00     0.000 A 
HETATM   23  C   UNL     1      30.106  45.449  56.214  1.00  0.00     0.001 A 
HETATM   24  C   UNL     1      29.015  45.372  55.346  1.00  0.00     0.017 A 
ENDBRANCH  16  19
ENDBRANCH   1  15
BRANCH   1  25
HETATM   25  C   UNL     1      27.310  42.175  50.688  1.00  0.00    -0.035 A 
HETATM   26  C   UNL     1      27.970  41.099  51.303  1.00  0.00     0.009 A 
HETATM   27  C   UNL     1      28.434  40.020  50.548  1.00  0.00     0.001 A 
HETATM   28  C   UNL     1      28.253  40.006  49.167  1.00  0.00     0.000 A 
HETATM   29  C   UNL     1      27.611  41.071  48.539  1.00  0.00     0.001 A 
HETATM   30  C   UNL     1      27.144  42.148  49.293  1.00  0.00     0.009 A 
ENDBRANCH   1  25
TORSDOF 7
ENDMDL
MODEL 8
REMARK VINA RESULT:      -7.6      2.634      8.018
REMARK  7 active torsions:
REMARK  status: ('A' for Active; 'I' for Inactive)
REMARK    1  A    between atoms: O_2  and  C_3 
REMARK    2  A    between atoms: C_6  and  N_7 
REMARK       I    between atoms: N_7  and  C_8 
REMARK    3  A    between atoms: C_8  and  C_9 
REMARK    4  A    between atoms: C_9  and  C_10 
REMARK    5  A    between atoms: C_10  and  N_11 
REMARK    6  A    between atoms: C_10  and  C_20 
REMARK       I    between atoms: N_11  and  C_12 
REMARK    7  A    between atoms: C_12  and  C_13 
ROOT
HETATM    1  C   UNL     1      25.244  44.016  50.420  1.00  0.00     0.126 C 
ENDROOT
BRANCH   1   2
HETATM    2  C   UNL     1      24.775  43.613  51.815  1.00  0.00     0.133 C 
BRANCH   2   3
HETATM    3  C   UNL     1      25.649  44.015  52.993  1.00  0.00     0.224 C 
HETATM    4  N   UNL     1      27.011  44.043  52.781  1.00  0.00    -0.326 N 
HETATM    5  H   UNL     1      27.354  44.097  51.828  1.00  0.00     0.169 HD
HETATM    6  O   UNL     1      25.110  44.209  54.082  1.00  0.00    -0.273 OA
BRANCH   4   7
HETATM    7  C   UNL     1      28.004  44.129  53.786  1.00  0.00     0.052 A 
HETATM    8  C   UNL     1      28.905  43.116  54.110  1.00  0.00     0.149 A 
HETATM    9  N   UNL     1      29.888  43.232  55.042  1.00  0.00    -0.235 NA
HETATM   10  C   UNL     1      29.975  44.410  55.688  1.00  0.00     0.163 A 
HETATM   11  C   UNL     1      29.124  45.476  55.449  1.00  0.00     0.060 A 
HETATM   12  C   UNL     1      28.128  45.333  54.482  1.00  0.00     0.035 A 
BRANCH  10  13
HETATM   13  O   UNL     1      30.955  44.604  56.639  1.00  0.00    -0.339 OA
HETATM   14  C   UNL     1      31.713  43.427  56.901  1.00  0.00     0.211 C 
ENDBRANCH  10  13
ENDBRANCH   4   7
ENDBRANCH   2   3
ENDBRANCH   1   2
BRANCH   1  15
HETATM   15  N   UNL     1      25.403  45.456  50.294  1.00  0.00    -0.348 N 
HETATM   16  C   UNL     1      26.591  46.004  49.860  1.00  0.00     0.252 C 
HETATM   17  O   UNL     1      27.645  45.382  49.797  1.00  0.00    -0.268 OA
HETATM   18  H   UNL     1      24.562  45.998  50.137  1.00  0.00     0.163 HD
BRANCH  16  19
HETATM   19  C   UNL     1      26.512  47.419  49.427  1.00  0.00     0.032 A 
HETATM   20  C   UNL     1      27.674  48.170  49.210  1.00  0.00     0.017 A 
HETATM   21  C   UNL     1      27.570  49.509  48.832  1.00  0.00     0.001 A 
HETATM   22  C   UNL     1      26.313  50.096  48.676  1.00  0.00     0.000 A 
HETATM   23  C   UNL     1      25.156  49.344  48.884  1.00  0.00     0.001 A 
HETATM   24  C   UNL     1      25.253  48.001  49.253  1.00  0.00     0.017 A 
ENDBRANCH  16  19
ENDBRANCH   1  15
BRANCH   1  25
HETATM   25  C   UNL     1      24.287  43.518  49.344  1.00  0.00    -0.035 A 
HETATM   26  C   UNL     1      23.513  44.436  48.618  1.00  0.00     0.009 A 
HETATM   27  C   UNL     1      22.632  44.000  47.626  1.00  0.00     0.001 A 
HETATM   28  C   UNL     1      22.507  42.640  47.353  1.00  0.00     0.000 A 
HETATM   29  C   UNL     1      23.258  41.714  48.072  1.00  0.00     0.001 A 
HETATM   30  C   UNL     1      24.142  42.149  49.062  1.00  0.00     0.009 A 
ENDBRANCH   1  25
TORSDOF 7
ENDMDL
MODEL 9
REMARK VINA RESULT:      -7.5      2.961      7.794
REMARK  7 active torsions:
REMARK  status: ('A' for Active; 'I' for Inactive)
REMARK    1  A    between atoms: O_2  and  C_3 
REMARK    2  A    between atoms: C_6  and  N_7 
REMARK       I    between atoms: N_7  and  C_8 
REMARK    3  A    between atoms: C_8  and  C_9 
REMARK    4  A    between atoms: C_9  and  C_10 
REMARK    5  A    between atoms: C_10  and  N_11 
REMARK    6  A    between atoms: C_10  and  C_20 
REMARK       I    between atoms: N_11  and  C_12 
REMARK    7  A    between atoms: C_12  and  C_13 
ROOT
HETATM    1  C   UNL     1      26.247  43.781  50.990  1.00  0.00     0.126 C 
ENDROOT
BRANCH   1   2
HETATM    2  C   UNL     1      25.206  42.665  50.970  1.00  0.00     0.133 C 
BRANCH   2   3
HETATM    3  C   UNL     1      25.365  41.576  49.921  1.00  0.00     0.224 C 
HETATM    4  N   UNL     1      26.606  40.986  49.813  1.00  0.00    -0.326 N 
HETATM    5  H   UNL     1      27.250  41.064  50.593  1.00  0.00     0.169 HD
HETATM    6  O   UNL     1      24.414  41.341  49.175  1.00  0.00    -0.273 OA
BRANCH   4   7
HETATM    7  C   UNL     1      27.039  40.156  48.752  1.00  0.00     0.052 A 
HETATM    8  C   UNL     1      26.849  38.777  48.684  1.00  0.00     0.149 A 
HETATM    9  N   UNL     1      27.225  38.000  47.634  1.00  0.00    -0.235 NA
HETATM   10  C   UNL     1      27.826  38.625  46.603  1.00  0.00     0.163 A 
HETATM   11  C   UNL     1      28.073  39.987  46.575  1.00  0.00     0.060 A 
HETATM   12  C   UNL     1      27.669  40.762  47.663  1.00  0.00     0.035 A 
BRANCH  10  13
HETATM   13  O   UNL     1      28.225  37.902  45.498  1.00  0.00    -0.339 OA
HETATM   14  C   UNL     1      29.192  36.903  45.810  1.00  0.00     0.211 C 
ENDBRANCH  10  13
ENDBRANCH   4   7
ENDBRANCH   2   3
ENDBRANCH   1   2
BRANCH   1  15
HETATM   15  N   UNL     1      26.908  43.885  52.282  1.00  0.00    -0.348 N 
HETATM   16  C   UNL     1      28.083  43.209  52.534  1.00  0.00     0.252 C 
HETATM   17  O   UNL     1      28.514  42.306  51.828  1.00  0.00    -0.268 OA
HETATM   18  H   UNL     1      26.738  44.727  52.818  1.00  0.00     0.163 HD
BRANCH  16  19
HETATM   19  C   UNL     1      28.836  43.677  53.722  1.00  0.00     0.032 A 
HETATM   20  C   UNL     1      28.448  44.835  54.408  1.00  0.00     0.017 A 
HETATM   21  C   UNL     1      29.192  45.270  55.505  1.00  0.00     0.001 A 
HETATM   22  C   UNL     1      30.320  44.555  55.912  1.00  0.00     0.000 A 
HETATM   23  C   UNL     1      30.700  43.396  55.233  1.00  0.00     0.001 A 
HETATM   24  C   UNL     1      29.954  42.950  54.141  1.00  0.00     0.017 A 
ENDBRANCH  16  19
ENDBRANCH   1  15
BRANCH   1  25
HETATM   25  C   UNL     1      25.629  45.127  50.630  1.00  0.00    -0.035 A 
HETATM   26  C   UNL     1      26.236  46.314  51.068  1.00  0.00     0.009 A 
HETATM   27  C   UNL     1      25.687  47.557  50.746  1.00  0.00     0.001 A 
HETATM   28  C   UNL     1      24.520  47.629  49.989  1.00  0.00     0.000 A 
HETATM   29  C   UNL     1      23.898  46.461  49.557  1.00  0.00     0.001 A 
HETATM   30  C   UNL     1      24.447  45.217  49.875  1.00  0.00     0.009 A 
ENDBRANCH   1  25
TORSDOF 7
ENDMDL
MODEL 10
REMARK VINA RESULT:      -7.4     16.764     18.150
REMARK  7 active torsions:
REMARK  status: ('A' for Active; 'I' for Inactive)
REMARK    1  A    between atoms: O_2  and  C_3 
REMARK    2  A    between atoms: C_6  and  N_7 
REMARK       I    between atoms: N_7  and  C_8 
REMARK    3  A    between atoms: C_8  and  C_9 
REMARK    4  A    between atoms: C_9  and  C_10 
REMARK    5  A    between atoms: C_10  and  N_11 
REMARK    6  A    between atoms: C_10  and  C_20 
REMARK       I    between atoms: N_11  and  C_12 
REMARK    7  A    between atoms: C_12  and  C_13 
ROOT
HETATM    1  C   UNL     1      37.841  43.315  63.942  1.00  0.00     0.126 C 
ENDROOT
BRANCH   1   2
HETATM    2  C   UNL     1      38.950  44.357  63.821  1.00  0.00     0.133 C 
BRANCH   2   3
HETATM    3  C   UNL     1      38.914  45.535  64.782  1.00  0.00     0.224 C 
HETATM    4  N   UNL     1      38.274  46.677  64.351  1.00  0.00    -0.326 N 
HETATM    5  H   UNL     1      37.616  46.604  63.582  1.00  0.00     0.169 HD
HETATM    6  O   UNL     1      39.522  45.438  65.848  1.00  0.00    -0.273 OA
BRANCH   4   7
HETATM    7  C   UNL     1      38.349  47.950  64.963  1.00  0.00     0.052 A 
HETATM    8  C   UNL     1      37.420  48.458  65.869  1.00  0.00     0.149 A 
HETATM    9  N   UNL     1      37.531  49.663  66.490  1.00  0.00    -0.235 NA
HETATM   10  C   UNL     1      38.617  50.401  66.189  1.00  0.00     0.163 A 
HETATM   11  C   UNL     1      39.593  49.995  65.294  1.00  0.00     0.060 A 
HETATM   12  C   UNL     1      39.456  48.750  64.677  1.00  0.00     0.035 A 
BRANCH  10  13
HETATM   13  O   UNL     1      38.802  51.630  66.788  1.00  0.00    -0.339 OA
HETATM   14  C   UNL     1      37.724  52.530  66.551  1.00  0.00     0.211 C 
ENDBRANCH  10  13
ENDBRANCH   4   7
ENDBRANCH   2   3
ENDBRANCH   1   2
BRANCH   1  15
HETATM   15  N   UNL     1      37.115  43.438  65.196  1.00  0.00    -0.348 N 
HETATM   16  C   UNL     1      35.948  44.169  65.271  1.00  0.00     0.252 C 
HETATM   17  O   UNL     1      35.579  44.953  64.405  1.00  0.00    -0.268 OA
HETATM   18  H   UNL     1      37.234  42.692  65.870  1.00  0.00     0.163 HD
BRANCH  16  19
HETATM   19  C   UNL     1      35.124  43.918  66.477  1.00  0.00     0.032 A 
HETATM   20  C   UNL     1      35.392  44.582  67.681  1.00  0.00     0.017 A 
HETATM   21  C   UNL     1      34.620  44.304  68.810  1.00  0.00     0.001 A 
HETATM   22  C   UNL     1      33.588  43.366  68.737  1.00  0.00     0.000 A 
HETATM   23  C   UNL     1      33.317  42.712  67.534  1.00  0.00     0.001 A 
HETATM   24  C   UNL     1      34.079  42.993  66.399  1.00  0.00     0.017 A 
ENDBRANCH  16  19
ENDBRANCH   1  15
BRANCH   1  25
HETATM   25  C   UNL     1      38.390  41.899  63.813  1.00  0.00    -0.035 A 
HETATM   26  C   UNL     1      38.894  41.454  62.581  1.00  0.00     0.009 A 
HETATM   27  C   UNL     1      39.404  40.162  62.443  1.00  0.00     0.001 A 
HETATM   28  C   UNL     1      39.409  39.294  63.532  1.00  0.00     0.000 A 
HETATM   29  C   UNL     1      38.902  39.715  64.759  1.00  0.00     0.001 A 
HETATM   30  C   UNL     1      38.395  41.008  64.899  1.00  0.00     0.009 A 
ENDBRANCH   1  25
TORSDOF 7
ENDMDL
