MODEL 1
REMARK VINA RESULT:      -9.2      0.000      0.000
REMARK  3 active torsions:
REMARK  status: ('A' for Active; 'I' for Inactive)
REMARK    1  A    between atoms: C_2  and  N_3 
REMARK       I    between atoms: N_3  and  C_4 
REMARK    2  A    between atoms: C_4  and  C_5 
REMARK    3  A    between atoms: C_22  and  C_23 
REMARK       I    between atoms: C_23  and  N_24 
ROOT
HETATM    1  C   UNL     1      28.720  44.012  53.512  1.00  0.00     0.109 A 
HETATM    2  C   UNL     1      28.688  44.982  54.518  1.00  0.00     0.136 A 
HETATM    3  F   UNL     1      27.833  46.014  54.453  1.00  0.00    -0.205 F 
HETATM    4  C   UNL     1      29.537  44.925  55.626  1.00  0.00     0.066 A 
HETATM    5  C   UNL     1      30.448  43.877  55.751  1.00  0.00     0.050 A 
HETATM    6  C   UNL     1      31.327  43.812  56.881  1.00  0.00     0.099 C 
HETATM    7  N   UNL     1      32.037  43.765  57.797  1.00  0.00    -0.191 NA
HETATM    8  C   UNL     1      30.498  42.895  54.761  1.00  0.00     0.066 A 
HETATM    9  C   UNL     1      29.641  42.968  53.658  1.00  0.00     0.136 A 
HETATM   10  F   UNL     1      29.753  41.993  52.746  1.00  0.00    -0.205 F 
ENDROOT
BRANCH   1  11
HETATM   11  C   UNL     1      27.829  44.060  52.311  1.00  0.00     0.262 C 
HETATM   12  N   UNL     1      26.464  44.056  52.554  1.00  0.00    -0.323 N 
HETATM   13  H   UNL     1      26.160  43.979  53.519  1.00  0.00     0.169 HD
HETATM   14  O   UNL     1      28.343  44.099  51.200  1.00  0.00    -0.267 OA
BRANCH  12  15
HETATM   15  C   UNL     1      25.416  44.145  51.610  1.00  0.00     0.036 A 
HETATM   16  C   UNL     1      24.695  43.050  51.133  1.00  0.00     0.032 A 
HETATM   17  C   UNL     1      23.673  43.195  50.182  1.00  0.00     0.034 A 
HETATM   18  C   UNL     1      23.402  44.487  49.728  1.00  0.00     0.063 A 
HETATM   19  C   UNL     1      24.091  45.604  50.176  1.00  0.00     0.030 A 
HETATM   20  N   UNL     1      22.493  44.960  48.823  1.00  0.00    -0.277 N 
HETATM   21  C   UNL     1      25.114  45.432  51.131  1.00  0.00     0.046 A 
HETATM   22  C   UNL     1      23.511  46.703  49.475  1.00  0.00     0.156 A 
HETATM   23  N   UNL     1      22.528  46.292  48.644  1.00  0.00    -0.168 NA
HETATM   24  H   UNL     1      21.818  44.420  48.292  1.00  0.00     0.189 HD
BRANCH  22  25
HETATM   25  C   UNL     1      23.880  48.121  49.587  1.00  0.00     0.270 C 
HETATM   26  N   UNL     1      22.813  48.970  49.685  1.00  0.00    -0.365 N 
HETATM   27  H   UNL     1      21.879  48.578  49.676  1.00  0.00     0.159 HD
HETATM   28  H   UNL     1      22.965  49.963  49.770  1.00  0.00     0.159 HD
HETATM   29  O   UNL     1      25.033  48.539  49.596  1.00  0.00    -0.266 OA
ENDBRANCH  22  25
ENDBRANCH  12  15
ENDBRANCH   1  11
TORSDOF 3
ENDMDL
MODEL 2
REMARK VINA RESULT:      -9.1      2.368      8.424
REMARK  3 active torsions:
REMARK  status: ('A' for Active; 'I' for Inactive)
REMARK    1  A    between atoms: C_2  and  N_3 
REMARK       I    between atoms: N_3  and  C_4 
REMARK    2  A    between atoms: C_4  and  C_5 
REMARK    3  A    between atoms: C_22  and  C_23 
REMARK       I    between atoms: C_23  and  N_24 
ROOT
HETATM    1  C   UNL     1      25.645  45.360  51.949  1.00  0.00     0.109 A 
HETATM    2  C   UNL     1      24.785  44.680  51.081  1.00  0.00     0.136 A 
HETATM    3  F   UNL     1      24.642  43.348  51.157  1.00  0.00    -0.205 F 
HETATM    4  C   UNL     1      24.043  45.346  50.103  1.00  0.00     0.066 A 
HETATM    5  C   UNL     1      24.149  46.731  49.973  1.00  0.00     0.050 A 
HETATM    6  C   UNL     1      23.396  47.424  48.969  1.00  0.00     0.099 C 
HETATM    7  N   UNL     1      22.786  47.980  48.155  1.00  0.00    -0.191 NA
HETATM    8  C   UNL     1      24.998  47.433  50.829  1.00  0.00     0.066 A 
HETATM    9  C   UNL     1      25.733  46.750  51.802  1.00  0.00     0.136 A 
HETATM   10  F   UNL     1      26.533  47.491  52.580  1.00  0.00    -0.205 F 
ENDROOT
BRANCH   1  11
HETATM   11  C   UNL     1      26.457  44.666  52.995  1.00  0.00     0.262 C 
HETATM   12  N   UNL     1      27.833  44.704  52.835  1.00  0.00    -0.323 N 
HETATM   13  H   UNL     1      28.196  45.159  52.004  1.00  0.00     0.169 HD
HETATM   14  O   UNL     1      25.874  44.112  53.919  1.00  0.00    -0.267 OA
BRANCH  12  15
HETATM   15  C   UNL     1      28.821  44.177  53.698  1.00  0.00     0.036 A 
HETATM   16  C   UNL     1      29.593  43.050  53.410  1.00  0.00     0.032 A 
HETATM   17  C   UNL     1      30.549  42.559  54.312  1.00  0.00     0.034 A 
HETATM   18  C   UNL     1      30.703  43.246  55.517  1.00  0.00     0.063 A 
HETATM   19  C   UNL     1      29.959  44.371  55.844  1.00  0.00     0.030 A 
HETATM   20  N   UNL     1      31.526  43.032  56.588  1.00  0.00    -0.277 N 
HETATM   21  C   UNL     1      29.004  44.844  54.921  1.00  0.00     0.046 A 
HETATM   22  C   UNL     1      30.421  44.758  57.137  1.00  0.00     0.156 A 
HETATM   23  N   UNL     1      31.386  43.923  57.584  1.00  0.00    -0.168 NA
HETATM   24  H   UNL     1      32.209  42.291  56.697  1.00  0.00     0.189 HD
BRANCH  22  25
HETATM   25  C   UNL     1      29.957  45.897  57.940  1.00  0.00     0.270 C 
HETATM   26  N   UNL     1      30.957  46.565  58.593  1.00  0.00    -0.365 N 
HETATM   27  H   UNL     1      31.910  46.241  58.480  1.00  0.00     0.159 HD
HETATM   28  H   UNL     1      30.738  47.363  59.167  1.00  0.00     0.159 HD
HETATM   29  O   UNL     1      28.785  46.247  58.038  1.00  0.00    -0.266 OA
ENDBRANCH  22  25
ENDBRANCH  12  15
ENDBRANCH   1  11
TORSDOF 3
ENDMDL
MODEL 3
REMARK VINA RESULT:      -9.0      5.250      9.740
REMARK  3 active torsions:
REMARK  status: ('A' for Active; 'I' for Inactive)
REMARK    1  A    between atoms: C_2  and  N_3 
REMARK       I    between atoms: N_3  and  C_4 
REMARK    2  A    between atoms: C_4  and  C_5 
REMARK    3  A    between atoms: C_22  and  C_23 
REMARK       I    between atoms: C_23  and  N_24 
ROOT
HETATM    1  C   UNL     1      21.027  49.530  48.969  1.00  0.00     0.109 A 
HETATM    2  C   UNL     1      20.996  50.922  48.844  1.00  0.00     0.136 A 
HETATM    3  F   UNL     1      22.086  51.604  48.461  1.00  0.00    -0.205 F 
HETATM    4  C   UNL     1      19.841  51.662  49.110  1.00  0.00     0.066 A 
HETATM    5  C   UNL     1      18.675  51.011  49.512  1.00  0.00     0.050 A 
HETATM    6  C   UNL     1      17.487  51.761  49.792  1.00  0.00     0.099 C 
HETATM    7  N   UNL     1      16.528  52.373  50.020  1.00  0.00    -0.191 NA
HETATM    8  C   UNL     1      18.680  49.622  49.642  1.00  0.00     0.066 A 
HETATM    9  C   UNL     1      19.844  48.897  49.372  1.00  0.00     0.136 A 
HETATM   10  F   UNL     1      19.774  47.568  49.527  1.00  0.00    -0.205 F 
ENDROOT
BRANCH   1  11
HETATM   11  C   UNL     1      22.254  48.719  48.701  1.00  0.00     0.262 C 
HETATM   12  N   UNL     1      23.110  48.521  49.773  1.00  0.00    -0.323 N 
HETATM   13  H   UNL     1      22.873  48.969  50.651  1.00  0.00     0.169 HD
HETATM   14  O   UNL     1      22.434  48.282  47.571  1.00  0.00    -0.267 OA
BRANCH  12  15
HETATM   15  C   UNL     1      24.300  47.758  49.802  1.00  0.00     0.036 A 
HETATM   16  C   UNL     1      25.569  48.275  49.535  1.00  0.00     0.032 A 
HETATM   17  C   UNL     1      26.716  47.467  49.563  1.00  0.00     0.034 A 
HETATM   18  C   UNL     1      26.541  46.117  49.870  1.00  0.00     0.063 A 
HETATM   19  C   UNL     1      25.299  45.561  50.144  1.00  0.00     0.030 A 
HETATM   20  N   UNL     1      27.431  45.085  49.974  1.00  0.00    -0.277 N 
HETATM   21  C   UNL     1      24.161  46.393  50.110  1.00  0.00     0.046 A 
HETATM   22  C   UNL     1      25.559  44.184  50.404  1.00  0.00     0.156 A 
HETATM   23  N   UNL     1      26.878  43.903  50.296  1.00  0.00    -0.168 NA
HETATM   24  H   UNL     1      28.435  45.125  49.836  1.00  0.00     0.189 HD
BRANCH  22  25
HETATM   25  C   UNL     1      24.579  43.146  50.750  1.00  0.00     0.270 C 
HETATM   26  N   UNL     1      25.132  41.932  51.052  1.00  0.00    -0.365 N 
HETATM   27  H   UNL     1      26.140  41.837  51.019  1.00  0.00     0.159 HD
HETATM   28  H   UNL     1      24.540  41.157  51.305  1.00  0.00     0.159 HD
HETATM   29  O   UNL     1      23.364  43.319  50.777  1.00  0.00    -0.266 OA
ENDBRANCH  22  25
ENDBRANCH  12  15
ENDBRANCH   1  11
TORSDOF 3
ENDMDL
MODEL 4
REMARK VINA RESULT:      -8.9      1.687      2.589
REMARK  3 active torsions:
REMARK  status: ('A' for Active; 'I' for Inactive)
REMARK    1  A    between atoms: C_2  and  N_3 
REMARK       I    between atoms: N_3  and  C_4 
REMARK    2  A    between atoms: C_4  and  C_5 
REMARK    3  A    between atoms: C_22  and  C_23 
REMARK       I    between atoms: C_23  and  N_24 
ROOT
HETATM    1  C   UNL     1      27.113  44.559  53.647  1.00  0.00     0.109 A 
HETATM    2  C   UNL     1      27.790  43.335  53.631  1.00  0.00     0.136 A 
HETATM    3  F   UNL     1      27.327  42.302  52.910  1.00  0.00    -0.205 F 
HETATM    4  C   UNL     1      28.965  43.132  54.358  1.00  0.00     0.066 A 
HETATM    5  C   UNL     1      29.495  44.167  55.127  1.00  0.00     0.050 A 
HETATM    6  C   UNL     1      30.698  43.967  55.880  1.00  0.00     0.099 C 
HETATM    7  N   UNL     1      31.670  43.799  56.490  1.00  0.00    -0.191 NA
HETATM    8  C   UNL     1      28.840  45.398  55.157  1.00  0.00     0.066 A 
HETATM    9  C   UNL     1      27.665  45.585  54.424  1.00  0.00     0.136 A 
HETATM   10  F   UNL     1      27.089  46.792  54.510  1.00  0.00    -0.205 F 
ENDROOT
BRANCH   1  11
HETATM   11  C   UNL     1      25.848  44.796  52.886  1.00  0.00     0.262 C 
HETATM   12  N   UNL     1      25.982  45.326  51.613  1.00  0.00    -0.323 N 
HETATM   13  H   UNL     1      26.918  45.558  51.298  1.00  0.00     0.169 HD
HETATM   14  O   UNL     1      24.781  44.513  53.418  1.00  0.00    -0.267 OA
BRANCH  12  15
HETATM   15  C   UNL     1      24.960  45.595  50.674  1.00  0.00     0.036 A 
HETATM   16  C   UNL     1      24.083  44.632  50.172  1.00  0.00     0.032 A 
HETATM   17  C   UNL     1      23.096  44.953  49.228  1.00  0.00     0.034 A 
HETATM   18  C   UNL     1      23.022  46.281  48.805  1.00  0.00     0.063 A 
HETATM   19  C   UNL     1      23.871  47.271  49.278  1.00  0.00     0.030 A 
HETATM   20  N   UNL     1      22.196  46.908  47.914  1.00  0.00    -0.277 N 
HETATM   21  C   UNL     1      24.855  46.924  50.227  1.00  0.00     0.046 A 
HETATM   22  C   UNL     1      23.464  48.461  48.606  1.00  0.00     0.156 A 
HETATM   23  N   UNL     1      22.431  48.223  47.767  1.00  0.00    -0.168 NA
HETATM   24  H   UNL     1      21.448  46.488  47.372  1.00  0.00     0.189 HD
BRANCH  22  25
HETATM   25  C   UNL     1      24.042  49.804  48.751  1.00  0.00     0.270 C 
HETATM   26  N   UNL     1      25.177  50.007  48.017  1.00  0.00    -0.365 N 
HETATM   27  H   UNL     1      25.527  49.247  47.445  1.00  0.00     0.159 HD
HETATM   28  H   UNL     1      25.645  50.899  48.048  1.00  0.00     0.159 HD
HETATM   29  O   UNL     1      23.572  50.689  49.459  1.00  0.00    -0.266 OA
ENDBRANCH  22  25
ENDBRANCH  12  15
ENDBRANCH   1  11
TORSDOF 3
ENDMDL
MODEL 5
REMARK VINA RESULT:      -8.8      3.783      5.824
REMARK  3 active torsions:
REMARK  status: ('A' for Active; 'I' for Inactive)
REMARK    1  A    between atoms: C_2  and  N_3 
REMARK       I    between atoms: N_3  and  C_4 
REMARK    2  A    between atoms: C_4  and  C_5 
REMARK    3  A    between atoms: C_22  and  C_23 
REMARK       I    between atoms: C_23  and  N_24 
ROOT
HETATM    1  C   UNL     1      28.818  44.145  53.763  1.00  0.00     0.109 A 
HETATM    2  C   UNL     1      29.974  43.605  54.336  1.00  0.00     0.136 A 
HETATM    3  F   UNL     1      30.640  42.608  53.734  1.00  0.00    -0.205 F 
HETATM    4  C   UNL     1      30.483  44.072  55.551  1.00  0.00     0.066 A 
HETATM    5  C   UNL     1      29.835  45.106  56.225  1.00  0.00     0.050 A 
HETATM    6  C   UNL     1      30.346  45.588  57.474  1.00  0.00     0.099 C 
HETATM    7  N   UNL     1      30.763  45.974  58.486  1.00  0.00    -0.191 NA
HETATM    8  C   UNL     1      28.681  45.663  55.673  1.00  0.00     0.066 A 
HETATM    9  C   UNL     1      28.185  45.184  54.457  1.00  0.00     0.136 A 
HETATM   10  F   UNL     1      27.069  45.763  53.994  1.00  0.00    -0.205 F 
ENDROOT
BRANCH   1  11
HETATM   11  C   UNL     1      28.248  43.654  52.471  1.00  0.00     0.262 C 
HETATM   12  N   UNL     1      27.687  42.386  52.485  1.00  0.00    -0.323 N 
HETATM   13  H   UNL     1      27.736  41.862  53.352  1.00  0.00     0.169 HD
HETATM   14  O   UNL     1      28.307  44.383  51.488  1.00  0.00    -0.267 OA
BRANCH  12  15
HETATM   15  C   UNL     1      27.042  41.713  51.423  1.00  0.00     0.036 A 
HETATM   16  C   UNL     1      25.856  42.144  50.827  1.00  0.00     0.032 A 
HETATM   17  C   UNL     1      25.249  41.425  49.785  1.00  0.00     0.034 A 
HETATM   18  C   UNL     1      25.881  40.254  49.363  1.00  0.00     0.063 A 
HETATM   19  C   UNL     1      27.061  39.790  49.925  1.00  0.00     0.030 A 
HETATM   20  N   UNL     1      25.556  39.344  48.396  1.00  0.00    -0.277 N 
HETATM   21  C   UNL     1      27.651  40.529  50.971  1.00  0.00     0.046 A 
HETATM   22  C   UNL     1      27.362  38.589  49.216  1.00  0.00     0.156 A 
HETATM   23  N   UNL     1      26.425  38.326  48.277  1.00  0.00    -0.168 NA
HETATM   24  H   UNL     1      24.749  39.363  47.783  1.00  0.00     0.189 HD
BRANCH  22  25
HETATM   25  C   UNL     1      28.515  37.703  49.422  1.00  0.00     0.270 C 
HETATM   26  N   UNL     1      28.296  36.701  50.327  1.00  0.00    -0.365 N 
HETATM   27  H   UNL     1      27.389  36.642  50.774  1.00  0.00     0.159 HD
HETATM   28  H   UNL     1      29.027  36.040  50.533  1.00  0.00     0.159 HD
HETATM   29  O   UNL     1      29.593  37.821  48.848  1.00  0.00    -0.266 OA
ENDBRANCH  22  25
ENDBRANCH  12  15
ENDBRANCH   1  11
TORSDOF 3
ENDMDL
MODEL 6
REMARK VINA RESULT:      -8.7      2.003      3.348
REMARK  3 active torsions:
REMARK  status: ('A' for Active; 'I' for Inactive)
REMARK    1  A    between atoms: C_2  and  N_3 
REMARK       I    between atoms: N_3  and  C_4 
REMARK    2  A    between atoms: C_4  and  C_5 
REMARK    3  A    between atoms: C_22  and  C_23 
REMARK       I    between atoms: C_23  and  N_24 
ROOT
HETATM    1  C   UNL     1      27.971  44.894  54.408  1.00  0.00     0.109 A 
HETATM    2  C   UNL     1      28.465  43.589  54.315  1.00  0.00     0.136 A 
HETATM    3  F   UNL     1      27.868  42.681  53.528  1.00  0.00    -0.205 F 
HETATM    4  C   UNL     1      29.591  43.173  55.029  1.00  0.00     0.066 A 
HETATM    5  C   UNL     1      30.255  44.070  55.865  1.00  0.00     0.050 A 
HETATM    6  C   UNL     1      31.408  43.652  56.606  1.00  0.00     0.099 C 
HETATM    7  N   UNL     1      32.340  43.308  57.206  1.00  0.00    -0.191 NA
HETATM    8  C   UNL     1      29.783  45.378  55.973  1.00  0.00     0.066 A 
HETATM    9  C   UNL     1      28.655  45.779  55.251  1.00  0.00     0.136 A 
HETATM   10  F   UNL     1      28.256  47.047  55.414  1.00  0.00    -0.205 F 
ENDROOT
BRANCH   1  11
HETATM   11  C   UNL     1      26.761  45.358  53.662  1.00  0.00     0.262 C 
HETATM   12  N   UNL     1      26.896  45.495  52.289  1.00  0.00    -0.323 N 
HETATM   13  H   UNL     1      27.810  45.315  51.888  1.00  0.00     0.169 HD
HETATM   14  O   UNL     1      25.734  45.587  54.291  1.00  0.00    -0.267 OA
BRANCH  12  15
HETATM   15  C   UNL     1      25.903  45.864  51.353  1.00  0.00     0.036 A 
HETATM   16  C   UNL     1      25.482  47.177  51.133  1.00  0.00     0.032 A 
HETATM   17  C   UNL     1      24.480  47.484  50.201  1.00  0.00     0.034 A 
HETATM   18  C   UNL     1      23.914  46.421  49.495  1.00  0.00     0.063 A 
HETATM   19  C   UNL     1      24.303  45.102  49.680  1.00  0.00     0.030 A 
HETATM   20  N   UNL     1      22.937  46.381  48.541  1.00  0.00    -0.277 N 
HETATM   21  C   UNL     1      25.312  44.818  50.623  1.00  0.00     0.046 A 
HETATM   22  C   UNL     1      23.494  44.348  48.779  1.00  0.00     0.156 A 
HETATM   23  N   UNL     1      22.656  45.148  48.084  1.00  0.00    -0.168 NA
HETATM   24  H   UNL     1      22.421  47.165  48.158  1.00  0.00     0.189 HD
BRANCH  22  25
HETATM   25  C   UNL     1      23.511  42.892  48.578  1.00  0.00     0.270 C 
HETATM   26  N   UNL     1      24.550  42.446  47.809  1.00  0.00    -0.365 N 
HETATM   27  H   UNL     1      25.210  43.123  47.447  1.00  0.00     0.159 HD
HETATM   28  H   UNL     1      24.648  41.462  47.617  1.00  0.00     0.159 HD
HETATM   29  O   UNL     1      22.683  42.117  49.046  1.00  0.00    -0.266 OA
ENDBRANCH  22  25
ENDBRANCH  12  15
ENDBRANCH   1  11
TORSDOF 3
ENDMDL
MODEL 7
REMARK VINA RESULT:      -8.7      4.372      7.470
REMARK  3 active torsions:
REMARK  status: ('A' for Active; 'I' for Inactive)
REMARK    1  A    between atoms: C_2  and  N_3 
REMARK       I    between atoms: N_3  and  C_4 
REMARK    2  A    between atoms: C_4  and  C_5 
REMARK    3  A    between atoms: C_22  and  C_23 
REMARK       I    between atoms: C_23  and  N_24 
ROOT
HETATM    1  C   UNL     1      28.223  40.747  50.597  1.00  0.00     0.109 A 
HETATM    2  C   UNL     1      28.802  39.516  50.273  1.00  0.00     0.136 A 
HETATM    3  F   UNL     1      29.451  38.794  51.199  1.00  0.00    -0.205 F 
HETATM    4  C   UNL     1      28.733  38.985  48.983  1.00  0.00     0.066 A 
HETATM    5  C   UNL     1      28.072  39.687  47.976  1.00  0.00     0.050 A 
HETATM    6  C   UNL     1      28.000  39.153  46.647  1.00  0.00     0.099 C 
HETATM    7  N   UNL     1      27.946  38.718  45.574  1.00  0.00    -0.191 NA
HETATM    8  C   UNL     1      27.485  40.916  48.275  1.00  0.00     0.066 A 
HETATM    9  C   UNL     1      27.563  41.434  49.571  1.00  0.00     0.136 A 
HETATM   10  F   UNL     1      26.983  42.623  49.779  1.00  0.00    -0.205 F 
ENDROOT
BRANCH   1  11
HETATM   11  C   UNL     1      28.295  41.340  51.968  1.00  0.00     0.262 C 
HETATM   12  N   UNL     1      29.176  42.396  52.140  1.00  0.00    -0.323 N 
HETATM   13  H   UNL     1      29.742  42.669  51.343  1.00  0.00     0.169 HD
HETATM   14  O   UNL     1      27.585  40.871  52.849  1.00  0.00    -0.267 OA
BRANCH  12  15
HETATM   15  C   UNL     1      29.397  43.160  53.308  1.00  0.00     0.036 A 
HETATM   16  C   UNL     1      30.459  42.954  54.190  1.00  0.00     0.032 A 
HETATM   17  C   UNL     1      30.621  43.733  55.346  1.00  0.00     0.034 A 
HETATM   18  C   UNL     1      29.673  44.730  55.584  1.00  0.00     0.063 A 
HETATM   19  C   UNL     1      28.603  44.970  54.734  1.00  0.00     0.030 A 
HETATM   20  N   UNL     1      29.543  45.639  56.596  1.00  0.00    -0.277 N 
HETATM   21  C   UNL     1      28.461  44.174  53.579  1.00  0.00     0.046 A 
HETATM   22  C   UNL     1      27.891  46.053  55.331  1.00  0.00     0.156 A 
HETATM   23  N   UNL     1      28.481  46.455  56.479  1.00  0.00    -0.168 NA
HETATM   24  H   UNL     1      30.151  45.752  57.400  1.00  0.00     0.189 HD
BRANCH  22  25
HETATM   25  C   UNL     1      26.672  46.698  54.827  1.00  0.00     0.270 C 
HETATM   26  N   UNL     1      26.620  48.047  55.049  1.00  0.00    -0.365 N 
HETATM   27  H   UNL     1      27.396  48.490  55.525  1.00  0.00     0.159 HD
HETATM   28  H   UNL     1      25.823  48.578  54.736  1.00  0.00     0.159 HD
HETATM   29  O   UNL     1      25.761  46.109  54.252  1.00  0.00    -0.266 OA
ENDBRANCH  22  25
ENDBRANCH  12  15
ENDBRANCH   1  11
TORSDOF 3
ENDMDL
MODEL 8
REMARK VINA RESULT:      -8.4      2.673      4.130
REMARK  3 active torsions:
REMARK  status: ('A' for Active; 'I' for Inactive)
REMARK    1  A    between atoms: C_2  and  N_3 
REMARK       I    between atoms: N_3  and  C_4 
REMARK    2  A    between atoms: C_4  and  C_5 
REMARK    3  A    between atoms: C_22  and  C_23 
REMARK       I    between atoms: C_23  and  N_24 
ROOT
HETATM    1  C   UNL     1      28.642  43.770  53.303  1.00  0.00     0.109 A 
HETATM    2  C   UNL     1      28.533  44.760  54.285  1.00  0.00     0.136 A 
HETATM    3  F   UNL     1      27.604  45.724  54.191  1.00  0.00    -0.205 F 
HETATM    4  C   UNL     1      29.378  44.794  55.396  1.00  0.00     0.066 A 
HETATM    5  C   UNL     1      30.365  43.821  55.550  1.00  0.00     0.050 A 
HETATM    6  C   UNL     1      31.240  43.850  56.685  1.00  0.00     0.099 C 
HETATM    7  N   UNL     1      31.948  43.879  57.603  1.00  0.00    -0.191 NA
HETATM    8  C   UNL     1      30.492  42.821  54.586  1.00  0.00     0.066 A 
HETATM    9  C   UNL     1      29.638  42.801  53.479  1.00  0.00     0.136 A 
HETATM   10  F   UNL     1      29.827  41.816  52.592  1.00  0.00    -0.205 F 
ENDROOT
BRANCH   1  11
HETATM   11  C   UNL     1      27.756  43.721  52.100  1.00  0.00     0.262 C 
HETATM   12  N   UNL     1      26.675  42.855  52.163  1.00  0.00    -0.323 N 
HETATM   13  H   UNL     1      26.580  42.285  52.996  1.00  0.00     0.169 HD
HETATM   14  O   UNL     1      28.027  44.434  51.141  1.00  0.00    -0.267 OA
BRANCH  12  15
HETATM   15  C   UNL     1      25.666  42.657  51.193  1.00  0.00     0.036 A 
HETATM   16  C   UNL     1      24.458  43.356  51.166  1.00  0.00     0.032 A 
HETATM   17  C   UNL     1      23.483  43.107  50.188  1.00  0.00     0.034 A 
HETATM   18  C   UNL     1      23.768  42.127  49.235  1.00  0.00     0.063 A 
HETATM   19  C   UNL     1      24.956  41.410  49.223  1.00  0.00     0.030 A 
HETATM   20  N   UNL     1      23.047  41.653  48.175  1.00  0.00    -0.277 N 
HETATM   21  C   UNL     1      25.920  41.678  50.216  1.00  0.00     0.046 A 
HETATM   22  C   UNL     1      24.846  40.530  48.106  1.00  0.00     0.156 A 
HETATM   23  N   UNL     1      23.664  40.689  47.469  1.00  0.00    -0.168 NA
HETATM   24  H   UNL     1      22.123  41.948  47.880  1.00  0.00     0.189 HD
BRANCH  22  25
HETATM   25  C   UNL     1      25.841  39.552  47.647  1.00  0.00     0.270 C 
HETATM   26  N   UNL     1      25.947  38.445  48.444  1.00  0.00    -0.365 N 
HETATM   27  H   UNL     1      25.354  38.379  49.263  1.00  0.00     0.159 HD
HETATM   28  H   UNL     1      26.601  37.716  48.209  1.00  0.00     0.159 HD
HETATM   29  O   UNL     1      26.532  39.683  46.641  1.00  0.00    -0.266 OA
ENDBRANCH  22  25
ENDBRANCH  12  15
ENDBRANCH   1  11
TORSDOF 3
ENDMDL
MODEL 9
REMARK VINA RESULT:      -8.3      2.088      2.636
REMARK  3 active torsions:
REMARK  status: ('A' for Active; 'I' for Inactive)
REMARK    1  A    between atoms: C_2  and  N_3 
REMARK       I    between atoms: N_3  and  C_4 
REMARK    2  A    between atoms: C_4  and  C_5 
REMARK    3  A    between atoms: C_22  and  C_23 
REMARK       I    between atoms: C_23  and  N_24 
ROOT
HETATM    1  C   UNL     1      28.255  44.304  53.476  1.00  0.00     0.109 A 
HETATM    2  C   UNL     1      27.690  45.376  54.175  1.00  0.00     0.136 A 
HETATM    3  F   UNL     1      26.603  46.007  53.706  1.00  0.00    -0.205 F 
HETATM    4  C   UNL     1      28.227  45.836  55.379  1.00  0.00     0.066 A 
HETATM    5  C   UNL     1      29.357  45.223  55.918  1.00  0.00     0.050 A 
HETATM    6  C   UNL     1      29.918  45.691  57.151  1.00  0.00     0.099 C 
HETATM    7  N   UNL     1      30.369  46.075  58.148  1.00  0.00    -0.191 NA
HETATM    8  C   UNL     1      29.937  44.150  55.241  1.00  0.00     0.066 A 
HETATM    9  C   UNL     1      29.388  43.701  54.036  1.00  0.00     0.136 A 
HETATM   10  F   UNL     1      30.006  42.673  53.440  1.00  0.00    -0.205 F 
ENDROOT
BRANCH   1  11
HETATM   11  C   UNL     1      27.705  43.802  52.179  1.00  0.00     0.262 C 
HETATM   12  N   UNL     1      26.550  43.040  52.251  1.00  0.00    -0.323 N 
HETATM   13  H   UNL     1      26.178  42.838  53.174  1.00  0.00     0.169 HD
HETATM   14  O   UNL     1      28.293  44.086  51.142  1.00  0.00    -0.267 OA
BRANCH  12  15
HETATM   15  C   UNL     1      25.804  42.493  51.183  1.00  0.00     0.036 A 
HETATM   16  C   UNL     1      26.100  41.278  50.562  1.00  0.00     0.032 A 
HETATM   17  C   UNL     1      25.334  40.790  49.492  1.00  0.00     0.034 A 
HETATM   18  C   UNL     1      24.256  41.569  49.069  1.00  0.00     0.063 A 
HETATM   19  C   UNL     1      23.925  42.781  49.658  1.00  0.00     0.030 A 
HETATM   20  N   UNL     1      23.335  41.385  48.076  1.00  0.00    -0.277 N 
HETATM   21  C   UNL     1      24.709  43.251  50.731  1.00  0.00     0.046 A 
HETATM   22  C   UNL     1      22.781  43.241  48.941  1.00  0.00     0.156 A 
HETATM   23  N   UNL     1      22.428  42.371  47.967  1.00  0.00    -0.168 NA
HETATM   24  H   UNL     1      23.273  40.602  47.435  1.00  0.00     0.189 HD
BRANCH  22  25
HETATM   25  C   UNL     1      22.031  44.484  49.169  1.00  0.00     0.270 C 
HETATM   26  N   UNL     1      22.819  45.592  49.322  1.00  0.00    -0.365 N 
HETATM   27  H   UNL     1      23.824  45.483  49.268  1.00  0.00     0.159 HD
HETATM   28  H   UNL     1      22.395  46.492  49.480  1.00  0.00     0.159 HD
HETATM   29  O   UNL     1      20.808  44.557  49.222  1.00  0.00    -0.266 OA
ENDBRANCH  22  25
ENDBRANCH  12  15
ENDBRANCH   1  11
TORSDOF 3
ENDMDL
MODEL 10
REMARK VINA RESULT:      -8.3     16.353     20.175
REMARK  3 active torsions:
REMARK  status: ('A' for Active; 'I' for Inactive)
REMARK    1  A    between atoms: C_2  and  N_3 
REMARK       I    between atoms: N_3  and  C_4 
REMARK    2  A    between atoms: C_4  and  C_5 
REMARK    3  A    between atoms: C_22  and  C_23 
REMARK       I    between atoms: C_23  and  N_24 
ROOT
HETATM    1  C   UNL     1      38.690  41.760  63.810  1.00  0.00     0.109 A 
HETATM    2  C   UNL     1      37.468  41.909  64.473  1.00  0.00     0.136 A 
HETATM    3  F   UNL     1      36.855  40.856  65.034  1.00  0.00    -0.205 F 
HETATM    4  C   UNL     1      36.834  43.149  64.580  1.00  0.00     0.066 A 
HETATM    5  C   UNL     1      37.420  44.282  64.017  1.00  0.00     0.050 A 
HETATM    6  C   UNL     1      36.775  45.558  64.117  1.00  0.00     0.099 C 
HETATM    7  N   UNL     1      36.247  46.588  64.199  1.00  0.00    -0.191 NA
HETATM    8  C   UNL     1      38.640  44.159  63.352  1.00  0.00     0.066 A 
HETATM    9  C   UNL     1      39.262  42.911  63.254  1.00  0.00     0.136 A 
HETATM   10  F   UNL     1      40.427  42.870  62.593  1.00  0.00    -0.205 F 
ENDROOT
BRANCH   1  11
HETATM   11  C   UNL     1      39.381  40.441  63.673  1.00  0.00     0.262 C 
HETATM   12  N   UNL     1      39.988  39.939  64.813  1.00  0.00    -0.323 N 
HETATM   13  H   UNL     1      39.962  40.513  65.649  1.00  0.00     0.169 HD
HETATM   14  O   UNL     1      39.374  39.884  62.581  1.00  0.00    -0.267 OA
BRANCH  12  15
HETATM   15  C   UNL     1      40.657  38.704  64.967  1.00  0.00     0.036 A 
HETATM   16  C   UNL     1      41.921  38.426  64.443  1.00  0.00     0.032 A 
HETATM   17  C   UNL     1      42.532  37.174  64.613  1.00  0.00     0.034 A 
HETATM   18  C   UNL     1      41.825  36.209  65.332  1.00  0.00     0.063 A 
HETATM   19  C   UNL     1      40.568  36.442  65.872  1.00  0.00     0.030 A 
HETATM   20  N   UNL     1      42.129  34.919  65.666  1.00  0.00    -0.277 N 
HETATM   21  C   UNL     1      39.975  37.708  65.688  1.00  0.00     0.046 A 
HETATM   22  C   UNL     1      40.210  35.222  66.517  1.00  0.00     0.156 A 
HETATM   23  N   UNL     1      41.181  34.291  66.382  1.00  0.00    -0.168 NA
HETATM   24  H   UNL     1      42.974  34.409  65.434  1.00  0.00     0.189 HD
BRANCH  22  25
HETATM   25  C   UNL     1      38.969  34.937  67.250  1.00  0.00     0.270 C 
HETATM   26  N   UNL     1      37.975  34.400  66.479  1.00  0.00    -0.365 N 
HETATM   27  H   UNL     1      38.157  34.241  65.495  1.00  0.00     0.159 HD
HETATM   28  H   UNL     1      37.086  34.167  66.893  1.00  0.00     0.159 HD
HETATM   29  O   UNL     1      38.805  35.148  68.447  1.00  0.00    -0.266 OA
ENDBRANCH  22  25
ENDBRANCH  12  15
ENDBRANCH   1  11
TORSDOF 3
ENDMDL
