MODEL 1
REMARK VINA RESULT:      -9.5      0.000      0.000
REMARK  7 active torsions:
REMARK  status: ('A' for Active; 'I' for Inactive)
REMARK    1  A    between atoms: C_2  and  C_3 
REMARK       I    between atoms: C_3  and  N_4 
REMARK    2  A    between atoms: N_4  and  N_5 
REMARK       I    between atoms: N_5  and  C_6 
REMARK    3  A    between atoms: C_6  and  C_7 
REMARK    4  A    between atoms: C_7  and  C_8 
REMARK    5  A    between atoms: C_8  and  C_9 
REMARK       I    between atoms: C_9  and  N_10 
REMARK    6  A    between atoms: N_10  and  C_11 
REMARK    7  A    between atoms: C_11  and  C_12 
ROOT
HETATM    1  C   UNL     1      24.721  46.281  49.555  1.00  0.00     0.114 C 
ENDROOT
BRANCH   1   2
HETATM    2  C   UNL     1      23.404  46.932  49.207  1.00  0.00     0.236 C 
HETATM    3  N   UNL     1      23.190  48.160  49.786  1.00  0.00    -0.267 N 
HETATM    4  H   UNL     1      23.747  48.517  50.563  1.00  0.00     0.190 HD
HETATM    5  O   UNL     1      22.567  46.368  48.502  1.00  0.00    -0.272 OA
BRANCH   3   6
HETATM    6  N   UNL     1      21.935  48.755  49.610  1.00  0.00    -0.263 N 
HETATM    7  C   UNL     1      21.862  50.133  49.651  1.00  0.00     0.270 C 
HETATM    8  O   UNL     1      22.856  50.841  49.796  1.00  0.00    -0.266 OA
HETATM    9  H   UNL     1      21.129  48.148  49.747  1.00  0.00     0.190 HD
BRANCH   7  10
HETATM   10  C   UNL     1      20.503  50.733  49.527  1.00  0.00     0.033 A 
HETATM   11  C   UNL     1      20.317  51.777  48.609  1.00  0.00     0.018 A 
HETATM   12  C   UNL     1      19.054  52.352  48.440  1.00  0.00     0.020 A 
HETATM   13  C   UNL     1      17.975  51.878  49.183  1.00  0.00     0.011 A 
HETATM   14  C   UNL     1      18.145  50.833  50.091  1.00  0.00     0.020 A 
HETATM   15 BR   UNL     1      16.264  52.645  48.948  1.00  0.00    -0.051 Br
HETATM   16  C   UNL     1      19.408  50.257  50.262  1.00  0.00     0.018 A 
ENDBRANCH   7  10
ENDBRANCH   3   6
ENDBRANCH   1   2
BRANCH   1  17
HETATM   17  C   UNL     1      24.680  45.754  50.982  1.00  0.00     0.112 C 
BRANCH  17  18
HETATM   18  C   UNL     1      25.575  46.541  51.918  1.00  0.00     0.218 C 
HETATM   19  N   UNL     1      25.856  45.915  53.106  1.00  0.00    -0.357 N 
HETATM   20  H   UNL     1      25.729  44.907  53.182  1.00  0.00     0.162 HD
HETATM   21  O   UNL     1      25.964  47.672  51.640  1.00  0.00    -0.274 OA
BRANCH  19  22
HETATM   22  C   UNL     1      26.679  46.536  54.117  1.00  0.00     0.161 C 
BRANCH  22  23
HETATM   23  C   UNL     1      27.803  45.610  54.508  1.00  0.00    -0.038 A 
HETATM   24  C   UNL     1      28.665  45.936  55.566  1.00  0.00     0.048 A 
HETATM   25  C   UNL     1      29.692  45.062  55.858  1.00  0.00     0.105 A 
HETATM   26  C   UNL     1      29.884  43.901  55.145  1.00  0.00     0.105 A 
HETATM   27  O   UNL     1      30.617  45.223  56.843  1.00  0.00    -0.323 OA
HETATM   28  O   UNL     1      30.954  43.189  55.589  1.00  0.00    -0.323 OA
HETATM   29  C   UNL     1      29.059  43.546  54.102  1.00  0.00     0.040 A 
HETATM   30  C   UNL     1      31.408  44.029  56.670  1.00  0.00     0.352 A 
HETATM   31  C   UNL     1      28.008  44.410  53.785  1.00  0.00     0.012 A 
ENDBRANCH  22  23
ENDBRANCH  19  22
ENDBRANCH  17  18
ENDBRANCH   1  17
TORSDOF 7
ENDMDL
MODEL 2
REMARK VINA RESULT:      -9.3      1.720      2.479
REMARK  7 active torsions:
REMARK  status: ('A' for Active; 'I' for Inactive)
REMARK    1  A    between atoms: C_2  and  C_3 
REMARK       I    between atoms: C_3  and  N_4 
REMARK    2  A    between atoms: N_4  and  N_5 
REMARK       I    between atoms: N_5  and  C_6 
REMARK    3  A    between atoms: C_6  and  C_7 
REMARK    4  A    between atoms: C_7  and  C_8 
REMARK    5  A    between atoms: C_8  and  C_9 
REMARK       I    between atoms: C_9  and  N_10 
REMARK    6  A    between atoms: N_10  and  C_11 
REMARK    7  A    between atoms: C_11  and  C_12 
ROOT
HETATM    1  C   UNL     1      26.472  46.475  50.377  1.00  0.00     0.114 C 
ENDROOT
BRANCH   1   2
HETATM    2  C   UNL     1      25.190  47.206  50.694  1.00  0.00     0.236 C 
HETATM    3  N   UNL     1      24.391  47.480  49.609  1.00  0.00    -0.267 N 
HETATM    4  H   UNL     1      24.716  47.413  48.644  1.00  0.00     0.190 HD
HETATM    5  O   UNL     1      24.918  47.577  51.836  1.00  0.00    -0.272 OA
BRANCH   3   6
HETATM    6  N   UNL     1      23.255  48.271  49.817  1.00  0.00    -0.263 N 
HETATM    7  C   UNL     1      22.450  48.545  48.728  1.00  0.00     0.270 C 
HETATM    8  O   UNL     1      22.679  48.091  47.610  1.00  0.00    -0.266 OA
HETATM    9  H   UNL     1      23.243  48.822  50.674  1.00  0.00     0.190 HD
BRANCH   7  10
HETATM   10  C   UNL     1      21.286  49.444  48.970  1.00  0.00     0.033 A 
HETATM   11  C   UNL     1      21.382  50.782  48.561  1.00  0.00     0.018 A 
HETATM   12  C   UNL     1      20.305  51.655  48.744  1.00  0.00     0.020 A 
HETATM   13  C   UNL     1      19.129  51.188  49.327  1.00  0.00     0.011 A 
HETATM   14  C   UNL     1      19.018  49.857  49.727  1.00  0.00     0.020 A 
HETATM   15 BR   UNL     1      17.667  52.362  49.564  1.00  0.00    -0.051 Br
HETATM   16  C   UNL     1      20.095  48.982  49.546  1.00  0.00     0.018 A 
ENDBRANCH   7  10
ENDBRANCH   3   6
ENDBRANCH   1   2
BRANCH   1  17
HETATM   17  C   UNL     1      26.162  45.164  49.670  1.00  0.00     0.112 C 
BRANCH  17  18
HETATM   18  C   UNL     1      27.005  44.013  50.184  1.00  0.00     0.218 C 
HETATM   19  N   UNL     1      27.496  44.183  51.453  1.00  0.00    -0.357 N 
HETATM   20  H   UNL     1      27.060  44.866  52.072  1.00  0.00     0.162 HD
HETATM   21  O   UNL     1      27.261  43.039  49.483  1.00  0.00    -0.274 OA
BRANCH  19  22
HETATM   22  C   UNL     1      28.332  43.190  52.085  1.00  0.00     0.161 C 
BRANCH  22  23
HETATM   23  C   UNL     1      28.876  43.722  53.386  1.00  0.00    -0.038 A 
HETATM   24  C   UNL     1      29.914  43.057  54.056  1.00  0.00     0.048 A 
HETATM   25  C   UNL     1      30.350  43.578  55.257  1.00  0.00     0.105 A 
HETATM   26  C   UNL     1      29.796  44.715  55.799  1.00  0.00     0.105 A 
HETATM   27  O   UNL     1      31.338  43.061  56.035  1.00  0.00    -0.323 OA
HETATM   28  O   UNL     1      30.364  45.053  56.988  1.00  0.00    -0.323 OA
HETATM   29  C   UNL     1      28.779  45.397  55.172  1.00  0.00     0.040 A 
HETATM   30  C   UNL     1      31.345  44.004  57.127  1.00  0.00     0.352 A 
HETATM   31  C   UNL     1      28.318  44.894  53.953  1.00  0.00     0.012 A 
ENDBRANCH  22  23
ENDBRANCH  19  22
ENDBRANCH  17  18
ENDBRANCH   1  17
TORSDOF 7
ENDMDL
MODEL 3
REMARK VINA RESULT:      -9.1      4.307     11.348
REMARK  7 active torsions:
REMARK  status: ('A' for Active; 'I' for Inactive)
REMARK    1  A    between atoms: C_2  and  C_3 
REMARK       I    between atoms: C_3  and  N_4 
REMARK    2  A    between atoms: N_4  and  N_5 
REMARK       I    between atoms: N_5  and  C_6 
REMARK    3  A    between atoms: C_6  and  C_7 
REMARK    4  A    between atoms: C_7  and  C_8 
REMARK    5  A    between atoms: C_8  and  C_9 
REMARK       I    between atoms: C_9  and  N_10 
REMARK    6  A    between atoms: N_10  and  C_11 
REMARK    7  A    between atoms: C_11  and  C_12 
ROOT
HETATM    1  C   UNL     1      25.183  45.316  49.313  1.00  0.00     0.114 C 
ENDROOT
BRANCH   1   2
HETATM    2  C   UNL     1      26.327  44.819  50.165  1.00  0.00     0.236 C 
HETATM    3  N   UNL     1      25.974  44.399  51.426  1.00  0.00    -0.267 N 
HETATM    4  H   UNL     1      25.072  44.608  51.853  1.00  0.00     0.190 HD
HETATM    5  O   UNL     1      27.493  44.848  49.770  1.00  0.00    -0.272 OA
BRANCH   3   6
HETATM    6  N   UNL     1      27.003  44.053  52.310  1.00  0.00    -0.263 N 
HETATM    7  C   UNL     1      27.315  44.943  53.319  1.00  0.00     0.270 C 
HETATM    8  O   UNL     1      26.700  45.994  53.482  1.00  0.00    -0.266 OA
HETATM    9  H   UNL     1      27.637  43.320  51.996  1.00  0.00     0.190 HD
BRANCH   7  10
HETATM   10  C   UNL     1      28.457  44.575  54.202  1.00  0.00     0.033 A 
HETATM   11  C   UNL     1      28.835  45.473  55.212  1.00  0.00     0.018 A 
HETATM   12  C   UNL     1      29.884  45.159  56.080  1.00  0.00     0.020 A 
HETATM   13  C   UNL     1      30.551  43.942  55.946  1.00  0.00     0.011 A 
HETATM   14  C   UNL     1      30.177  43.036  54.954  1.00  0.00     0.020 A 
HETATM   15 BR   UNL     1      31.961  43.509  57.127  1.00  0.00    -0.051 Br
HETATM   16  C   UNL     1      29.128  43.350  54.083  1.00  0.00     0.018 A 
ENDBRANCH   7  10
ENDBRANCH   3   6
ENDBRANCH   1   2
BRANCH   1  17
HETATM   17  C   UNL     1      24.182  46.069  50.174  1.00  0.00     0.112 C 
BRANCH  17  18
HETATM   18  C   UNL     1      24.244  47.569  49.962  1.00  0.00     0.218 C 
HETATM   19  N   UNL     1      23.058  48.146  49.588  1.00  0.00    -0.357 N 
HETATM   20  H   UNL     1      22.184  47.650  49.758  1.00  0.00     0.162 HD
HETATM   21  O   UNL     1      25.297  48.192  50.070  1.00  0.00    -0.274 OA
BRANCH  19  22
HETATM   22  C   UNL     1      22.949  49.562  49.329  1.00  0.00     0.161 C 
BRANCH  22  23
HETATM   23  C   UNL     1      21.510  49.932  49.071  1.00  0.00    -0.038 A 
HETATM   24  C   UNL     1      20.514  48.946  49.017  1.00  0.00     0.048 A 
HETATM   25  C   UNL     1      19.221  49.345  48.750  1.00  0.00     0.105 A 
HETATM   26  C   UNL     1      18.896  50.665  48.540  1.00  0.00     0.105 A 
HETATM   27  O   UNL     1      18.139  48.525  48.657  1.00  0.00    -0.323 OA
HETATM   28  O   UNL     1      17.571  50.841  48.286  1.00  0.00    -0.323 OA
HETATM   29  C   UNL     1      19.843  51.662  48.588  1.00  0.00     0.040 A 
HETATM   30  C   UNL     1      17.097  49.480  48.369  1.00  0.00     0.352 A 
HETATM   31  C   UNL     1      21.162  51.289  48.859  1.00  0.00     0.012 A 
ENDBRANCH  22  23
ENDBRANCH  19  22
ENDBRANCH  17  18
ENDBRANCH   1  17
TORSDOF 7
ENDMDL
MODEL 4
REMARK VINA RESULT:      -9.1      1.550      2.145
REMARK  7 active torsions:
REMARK  status: ('A' for Active; 'I' for Inactive)
REMARK    1  A    between atoms: C_2  and  C_3 
REMARK       I    between atoms: C_3  and  N_4 
REMARK    2  A    between atoms: N_4  and  N_5 
REMARK       I    between atoms: N_5  and  C_6 
REMARK    3  A    between atoms: C_6  and  C_7 
REMARK    4  A    between atoms: C_7  and  C_8 
REMARK    5  A    between atoms: C_8  and  C_9 
REMARK       I    between atoms: C_9  and  N_10 
REMARK    6  A    between atoms: N_10  and  C_11 
REMARK    7  A    between atoms: C_11  and  C_12 
ROOT
HETATM    1  C   UNL     1      26.413  48.439  49.589  1.00  0.00     0.114 C 
ENDROOT
BRANCH   1   2
HETATM    2  C   UNL     1      25.217  49.055  48.904  1.00  0.00     0.236 C 
HETATM    3  N   UNL     1      23.997  48.682  49.415  1.00  0.00    -0.267 N 
HETATM    4  H   UNL     1      23.873  47.888  50.044  1.00  0.00     0.190 HD
HETATM    5  O   UNL     1      25.336  49.790  47.923  1.00  0.00    -0.272 OA
BRANCH   3   6
HETATM    6  N   UNL     1      22.847  49.112  48.741  1.00  0.00    -0.263 N 
HETATM    7  C   UNL     1      22.193  50.228  49.226  1.00  0.00     0.270 C 
HETATM    8  O   UNL     1      22.607  50.865  50.192  1.00  0.00    -0.266 OA
HETATM    9  H   UNL     1      22.408  48.431  48.125  1.00  0.00     0.190 HD
BRANCH   7  10
HETATM   10  C   UNL     1      20.937  50.620  48.527  1.00  0.00     0.033 A 
HETATM   11  C   UNL     1      20.170  51.662  49.069  1.00  0.00     0.018 A 
HETATM   12  C   UNL     1      18.998  52.081  48.434  1.00  0.00     0.020 A 
HETATM   13  C   UNL     1      18.596  51.465  47.250  1.00  0.00     0.011 A 
HETATM   14  C   UNL     1      19.357  50.436  46.695  1.00  0.00     0.020 A 
HETATM   15 BR   UNL     1      17.019  52.038  46.381  1.00  0.00    -0.051 Br
HETATM   16  C   UNL     1      20.529  50.015  47.330  1.00  0.00     0.018 A 
ENDBRANCH   7  10
ENDBRANCH   3   6
ENDBRANCH   1   2
BRANCH   1  17
HETATM   17  C   UNL     1      26.149  46.968  49.874  1.00  0.00     0.112 C 
BRANCH  17  18
HETATM   18  C   UNL     1      25.805  46.710  51.328  1.00  0.00     0.218 C 
HETATM   19  N   UNL     1      26.163  45.471  51.791  1.00  0.00    -0.357 N 
HETATM   20  H   UNL     1      26.866  44.932  51.288  1.00  0.00     0.162 HD
HETATM   21  O   UNL     1      25.204  47.540  52.005  1.00  0.00    -0.274 OA
BRANCH  19  22
HETATM   22  C   UNL     1      25.891  45.058  53.148  1.00  0.00     0.161 C 
BRANCH  22  23
HETATM   23  C   UNL     1      27.120  45.244  54.002  1.00  0.00    -0.038 A 
HETATM   24  C   UNL     1      28.086  44.231  54.098  1.00  0.00     0.048 A 
HETATM   25  C   UNL     1      29.174  44.450  54.917  1.00  0.00     0.105 A 
HETATM   26  C   UNL     1      29.326  45.617  55.628  1.00  0.00     0.105 A 
HETATM   27  O   UNL     1      30.197  43.578  55.129  1.00  0.00    -0.323 OA
HETATM   28  O   UNL     1      30.462  45.626  56.378  1.00  0.00    -0.323 OA
HETATM   29  C   UNL     1      28.403  46.635  55.558  1.00  0.00     0.040 A 
HETATM   30  C   UNL     1      31.011  44.333  56.050  1.00  0.00     0.352 A 
HETATM   31  C   UNL     1      27.290  46.444  54.734  1.00  0.00     0.012 A 
ENDBRANCH  22  23
ENDBRANCH  19  22
ENDBRANCH  17  18
ENDBRANCH   1  17
TORSDOF 7
ENDMDL
MODEL 5
REMARK VINA RESULT:      -8.9      4.251     11.125
REMARK  7 active torsions:
REMARK  status: ('A' for Active; 'I' for Inactive)
REMARK    1  A    between atoms: C_2  and  C_3 
REMARK       I    between atoms: C_3  and  N_4 
REMARK    2  A    between atoms: N_4  and  N_5 
REMARK       I    between atoms: N_5  and  C_6 
REMARK    3  A    between atoms: C_6  and  C_7 
REMARK    4  A    between atoms: C_7  and  C_8 
REMARK    5  A    between atoms: C_8  and  C_9 
REMARK       I    between atoms: C_9  and  N_10 
REMARK    6  A    between atoms: N_10  and  C_11 
REMARK    7  A    between atoms: C_11  and  C_12 
ROOT
HETATM    1  C   UNL     1      24.384  47.772  50.013  1.00  0.00     0.114 C 
ENDROOT
BRANCH   1   2
HETATM    2  C   UNL     1      25.411  46.877  50.665  1.00  0.00     0.236 C 
HETATM    3  N   UNL     1      25.614  47.103  52.005  1.00  0.00    -0.267 N 
HETATM    4  H   UNL     1      25.287  47.940  52.487  1.00  0.00     0.190 HD
HETATM    5  O   UNL     1      26.055  46.049  50.019  1.00  0.00    -0.272 OA
BRANCH   3   6
HETATM    6  N   UNL     1      26.647  46.398  52.637  1.00  0.00    -0.263 N 
HETATM    7  C   UNL     1      26.758  46.508  54.009  1.00  0.00     0.270 C 
HETATM    8  O   UNL     1      25.967  47.164  54.683  1.00  0.00    -0.266 OA
HETATM    9  H   UNL     1      27.409  46.087  52.038  1.00  0.00     0.190 HD
BRANCH   7  10
HETATM   10  C   UNL     1      27.906  45.800  54.643  1.00  0.00     0.033 A 
HETATM   11  C   UNL     1      28.484  46.363  55.790  1.00  0.00     0.018 A 
HETATM   12  C   UNL     1      29.546  45.721  56.433  1.00  0.00     0.020 A 
HETATM   13  C   UNL     1      30.025  44.511  55.935  1.00  0.00     0.011 A 
HETATM   14  C   UNL     1      29.450  43.935  54.802  1.00  0.00     0.020 A 
HETATM   15 BR   UNL     1      31.452  43.634  56.810  1.00  0.00    -0.051 Br
HETATM   16  C   UNL     1      28.389  44.577  54.157  1.00  0.00     0.018 A 
ENDBRANCH   7  10
ENDBRANCH   3   6
ENDBRANCH   1   2
BRANCH   1  17
HETATM   17  C   UNL     1      25.006  48.507  48.836  1.00  0.00     0.112 C 
BRANCH  17  18
HETATM   18  C   UNL     1      24.195  49.715  48.410  1.00  0.00     0.218 C 
HETATM   19  N   UNL     1      23.238  50.110  49.309  1.00  0.00    -0.357 N 
HETATM   20  H   UNL     1      23.309  49.809  50.280  1.00  0.00     0.162 HD
HETATM   21  O   UNL     1      24.360  50.249  47.317  1.00  0.00    -0.274 OA
BRANCH  19  22
HETATM   22  C   UNL     1      22.368  51.232  49.049  1.00  0.00     0.161 C 
BRANCH  22  23
HETATM   23  C   UNL     1      20.938  50.765  48.947  1.00  0.00    -0.038 A 
HETATM   24  C   UNL     1      20.590  49.443  49.263  1.00  0.00     0.048 A 
HETATM   25  C   UNL     1      19.270  49.069  49.123  1.00  0.00     0.105 A 
HETATM   26  C   UNL     1      18.307  49.949  48.688  1.00  0.00     0.105 A 
HETATM   27  O   UNL     1      18.763  47.832  49.380  1.00  0.00    -0.323 OA
HETATM   28  O   UNL     1      17.075  49.378  48.613  1.00  0.00    -0.323 OA
HETATM   29  C   UNL     1      18.607  51.254  48.371  1.00  0.00     0.040 A 
HETATM   30  C   UNL     1      17.371  48.038  49.061  1.00  0.00     0.352 A 
HETATM   31  C   UNL     1      19.936  51.664  48.505  1.00  0.00     0.012 A 
ENDBRANCH  22  23
ENDBRANCH  19  22
ENDBRANCH  17  18
ENDBRANCH   1  17
TORSDOF 7
ENDMDL
MODEL 6
REMARK VINA RESULT:      -8.9      4.368     11.943
REMARK  7 active torsions:
REMARK  status: ('A' for Active; 'I' for Inactive)
REMARK    1  A    between atoms: C_2  and  C_3 
REMARK       I    between atoms: C_3  and  N_4 
REMARK    2  A    between atoms: N_4  and  N_5 
REMARK       I    between atoms: N_5  and  C_6 
REMARK    3  A    between atoms: C_6  and  C_7 
REMARK    4  A    between atoms: C_7  and  C_8 
REMARK    5  A    between atoms: C_8  and  C_9 
REMARK       I    between atoms: C_9  and  N_10 
REMARK    6  A    between atoms: N_10  and  C_11 
REMARK    7  A    between atoms: C_11  and  C_12 
ROOT
HETATM    1  C   UNL     1      24.068  46.657  49.607  1.00  0.00     0.114 C 
ENDROOT
BRANCH   1   2
HETATM    2  C   UNL     1      25.179  46.628  50.629  1.00  0.00     0.236 C 
HETATM    3  N   UNL     1      25.893  45.455  50.681  1.00  0.00    -0.267 N 
HETATM    4  H   UNL     1      25.578  44.589  50.245  1.00  0.00     0.190 HD
HETATM    5  O   UNL     1      25.383  47.571  51.395  1.00  0.00    -0.272 OA
BRANCH   3   6
HETATM    6  N   UNL     1      26.848  45.315  51.696  1.00  0.00    -0.263 N 
HETATM    7  C   UNL     1      27.484  44.096  51.821  1.00  0.00     0.270 C 
HETATM    8  O   UNL     1      27.269  43.160  51.056  1.00  0.00    -0.266 OA
HETATM    9  H   UNL     1      26.811  46.006  52.443  1.00  0.00     0.190 HD
BRANCH   7  10
HETATM   10  C   UNL     1      28.446  43.960  52.951  1.00  0.00     0.033 A 
HETATM   11  C   UNL     1      28.242  44.741  54.098  1.00  0.00     0.018 A 
HETATM   12  C   UNL     1      29.103  44.627  55.193  1.00  0.00     0.020 A 
HETATM   13  C   UNL     1      30.164  43.726  55.146  1.00  0.00     0.011 A 
HETATM   14  C   UNL     1      30.371  42.935  54.015  1.00  0.00     0.020 A 
HETATM   15 BR   UNL     1      31.323  43.560  56.629  1.00  0.00    -0.051 Br
HETATM   16  C   UNL     1      29.511  43.048  52.919  1.00  0.00     0.018 A 
ENDBRANCH   7  10
ENDBRANCH   3   6
ENDBRANCH   1   2
BRANCH   1  17
HETATM   17  C   UNL     1      23.490  48.060  49.506  1.00  0.00     0.112 C 
BRANCH  17  18
HETATM   18  C   UNL     1      22.241  48.114  48.648  1.00  0.00     0.218 C 
HETATM   19  N   UNL     1      21.069  48.241  49.348  1.00  0.00    -0.357 N 
HETATM   20  H   UNL     1      21.093  48.583  50.307  1.00  0.00     0.162 HD
HETATM   21  O   UNL     1      22.292  47.997  47.427  1.00  0.00    -0.274 OA
BRANCH  19  22
HETATM   22  C   UNL     1      19.788  48.289  48.684  1.00  0.00     0.161 C 
BRANCH  22  23
HETATM   23  C   UNL     1      19.059  49.556  49.055  1.00  0.00    -0.038 A 
HETATM   24  C   UNL     1      17.682  49.686  48.823  1.00  0.00     0.048 A 
HETATM   25  C   UNL     1      17.077  50.879  49.160  1.00  0.00     0.105 A 
HETATM   26  C   UNL     1      17.786  51.924  49.707  1.00  0.00     0.105 A 
HETATM   27  O   UNL     1      15.759  51.175  48.999  1.00  0.00    -0.323 OA
HETATM   28  O   UNL     1      17.003  53.008  49.957  1.00  0.00    -0.323 OA
HETATM   29  C   UNL     1      19.136  51.835  49.953  1.00  0.00     0.040 A 
HETATM   30  C   UNL     1      15.719  52.523  49.512  1.00  0.00     0.352 A 
HETATM   31  C   UNL     1      19.776  50.636  49.624  1.00  0.00     0.012 A 
ENDBRANCH  22  23
ENDBRANCH  19  22
ENDBRANCH  17  18
ENDBRANCH   1  17
TORSDOF 7
ENDMDL
MODEL 7
REMARK VINA RESULT:      -8.8      2.122      2.946
REMARK  7 active torsions:
REMARK  status: ('A' for Active; 'I' for Inactive)
REMARK    1  A    between atoms: C_2  and  C_3 
REMARK       I    between atoms: C_3  and  N_4 
REMARK    2  A    between atoms: N_4  and  N_5 
REMARK       I    between atoms: N_5  and  C_6 
REMARK    3  A    between atoms: C_6  and  C_7 
REMARK    4  A    between atoms: C_7  and  C_8 
REMARK    5  A    between atoms: C_8  and  C_9 
REMARK       I    between atoms: C_9  and  N_10 
REMARK    6  A    between atoms: N_10  and  C_11 
REMARK    7  A    between atoms: C_11  and  C_12 
ROOT
HETATM    1  C   UNL     1      24.210  43.231  50.394  1.00  0.00     0.114 C 
ENDROOT
BRANCH   1   2
HETATM    2  C   UNL     1      23.243  44.279  49.898  1.00  0.00     0.236 C 
HETATM    3  N   UNL     1      23.795  45.513  49.654  1.00  0.00    -0.267 N 
HETATM    4  H   UNL     1      24.720  45.788  49.987  1.00  0.00     0.190 HD
HETATM    5  O   UNL     1      22.039  44.048  49.781  1.00  0.00    -0.272 OA
BRANCH   3   6
HETATM    6  N   UNL     1      22.930  46.563  49.321  1.00  0.00    -0.263 N 
HETATM    7  C   UNL     1      23.373  47.855  49.522  1.00  0.00     0.270 C 
HETATM    8  O   UNL     1      24.500  48.106  49.941  1.00  0.00    -0.266 OA
HETATM    9  H   UNL     1      21.946  46.318  49.224  1.00  0.00     0.190 HD
BRANCH   7  10
HETATM   10  C   UNL     1      22.404  48.946  49.220  1.00  0.00     0.033 A 
HETATM   11  C   UNL     1      21.049  48.614  49.079  1.00  0.00     0.018 A 
HETATM   12  C   UNL     1      20.101  49.608  48.821  1.00  0.00     0.020 A 
HETATM   13  C   UNL     1      20.506  50.937  48.712  1.00  0.00     0.011 A 
HETATM   14  C   UNL     1      21.849  51.281  48.862  1.00  0.00     0.020 A 
HETATM   15 BR   UNL     1      19.225  52.285  48.376  1.00  0.00    -0.051 Br
HETATM   16  C   UNL     1      22.799  50.287  49.119  1.00  0.00     0.018 A 
ENDBRANCH   7  10
ENDBRANCH   3   6
ENDBRANCH   1   2
BRANCH   1  17
HETATM   17  C   UNL     1      25.027  43.783  51.552  1.00  0.00     0.112 C 
BRANCH  17  18
HETATM   18  C   UNL     1      26.393  43.134  51.662  1.00  0.00     0.218 C 
HETATM   19  N   UNL     1      27.343  43.898  52.289  1.00  0.00    -0.357 N 
HETATM   20  H   UNL     1      27.050  44.670  52.886  1.00  0.00     0.162 HD
HETATM   21  O   UNL     1      26.624  42.031  51.173  1.00  0.00    -0.274 OA
BRANCH  19  22
HETATM   22  C   UNL     1      28.700  43.435  52.461  1.00  0.00     0.161 C 
BRANCH  22  23
HETATM   23  C   UNL     1      29.213  43.831  53.822  1.00  0.00    -0.038 A 
HETATM   24  C   UNL     1      28.622  44.885  54.534  1.00  0.00     0.048 A 
HETATM   25  C   UNL     1      29.155  45.218  55.762  1.00  0.00     0.105 A 
HETATM   26  C   UNL     1      30.235  44.549  56.291  1.00  0.00     0.105 A 
HETATM   27  O   UNL     1      28.710  46.211  56.579  1.00  0.00    -0.323 OA
HETATM   28  O   UNL     1      30.606  45.038  57.505  1.00  0.00    -0.323 OA
HETATM   29  C   UNL     1      30.841  43.508  55.626  1.00  0.00     0.040 A 
HETATM   30  C   UNL     1      29.630  46.086  57.683  1.00  0.00     0.352 A 
HETATM   31  C   UNL     1      30.321  43.146  54.380  1.00  0.00     0.012 A 
ENDBRANCH  22  23
ENDBRANCH  19  22
ENDBRANCH  17  18
ENDBRANCH   1  17
TORSDOF 7
ENDMDL
MODEL 8
REMARK VINA RESULT:      -8.6     13.158     15.518
REMARK  7 active torsions:
REMARK  status: ('A' for Active; 'I' for Inactive)
REMARK    1  A    between atoms: C_2  and  C_3 
REMARK       I    between atoms: C_3  and  N_4 
REMARK    2  A    between atoms: N_4  and  N_5 
REMARK       I    between atoms: N_5  and  C_6 
REMARK    3  A    between atoms: C_6  and  C_7 
REMARK    4  A    between atoms: C_7  and  C_8 
REMARK    5  A    between atoms: C_8  and  C_9 
REMARK       I    between atoms: C_9  and  N_10 
REMARK    6  A    between atoms: N_10  and  C_11 
REMARK    7  A    between atoms: C_11  and  C_12 
ROOT
HETATM    1  C   UNL     1      27.885  47.222  39.290  1.00  0.00     0.114 C 
ENDROOT
BRANCH   1   2
HETATM    2  C   UNL     1      29.260  47.679  39.712  1.00  0.00     0.236 C 
HETATM    3  N   UNL     1      29.435  47.825  41.068  1.00  0.00    -0.267 N 
HETATM    4  H   UNL     1      28.662  47.852  41.732  1.00  0.00     0.190 HD
HETATM    5  O   UNL     1      30.135  47.955  38.890  1.00  0.00    -0.272 OA
BRANCH   3   6
HETATM    6  N   UNL     1      30.644  48.373  41.515  1.00  0.00    -0.263 N 
HETATM    7  C   UNL     1      30.634  49.678  41.966  1.00  0.00     0.270 C 
HETATM    8  O   UNL     1      29.605  50.347  42.022  1.00  0.00    -0.266 OA
HETATM    9  H   UNL     1      31.491  47.889  41.222  1.00  0.00     0.190 HD
BRANCH   7  10
HETATM   10  C   UNL     1      31.947  50.253  42.373  1.00  0.00     0.033 A 
HETATM   11  C   UNL     1      33.102  49.811  41.711  1.00  0.00     0.018 A 
HETATM   12  C   UNL     1      34.352  50.340  42.041  1.00  0.00     0.020 A 
HETATM   13  C   UNL     1      34.448  51.319  43.029  1.00  0.00     0.011 A 
HETATM   14  C   UNL     1      33.306  51.775  43.687  1.00  0.00     0.020 A 
HETATM   15 BR   UNL     1      36.136  52.047  43.469  1.00  0.00    -0.051 Br
HETATM   16  C   UNL     1      32.054  51.245  43.358  1.00  0.00     0.018 A 
ENDBRANCH   7  10
ENDBRANCH   3   6
ENDBRANCH   1   2
BRANCH   1  17
HETATM   17  C   UNL     1      27.302  48.192  38.274  1.00  0.00     0.112 C 
BRANCH  17  18
HETATM   18  C   UNL     1      27.207  49.607  38.811  1.00  0.00     0.218 C 
HETATM   19  N   UNL     1      28.030  50.512  38.192  1.00  0.00    -0.357 N 
HETATM   20  H   UNL     1      28.409  50.297  37.271  1.00  0.00     0.162 HD
HETATM   21  O   UNL     1      26.483  49.889  39.761  1.00  0.00    -0.274 OA
BRANCH  19  22
HETATM   22  C   UNL     1      28.075  51.898  38.593  1.00  0.00     0.161 C 
BRANCH  22  23
HETATM   23  C   UNL     1      29.467  52.262  39.044  1.00  0.00    -0.038 A 
HETATM   24  C   UNL     1      30.593  51.742  38.388  1.00  0.00     0.048 A 
HETATM   25  C   UNL     1      31.840  52.090  38.865  1.00  0.00     0.105 A 
HETATM   26  C   UNL     1      31.997  52.921  39.950  1.00  0.00     0.105 A 
HETATM   27  O   UNL     1      33.030  51.674  38.354  1.00  0.00    -0.323 OA
HETATM   28  O   UNL     1      33.305  53.130  40.260  1.00  0.00    -0.323 OA
HETATM   29  C   UNL     1      30.919  53.454  40.618  1.00  0.00     0.040 A 
HETATM   30  C   UNL     1      33.953  52.343  39.239  1.00  0.00     0.352 A 
HETATM   31  C   UNL     1      29.642  53.121  40.157  1.00  0.00     0.012 A 
ENDBRANCH  22  23
ENDBRANCH  19  22
ENDBRANCH  17  18
ENDBRANCH   1  17
TORSDOF 7
ENDMDL
MODEL 9
REMARK VINA RESULT:      -8.4     12.432     15.171
REMARK  7 active torsions:
REMARK  status: ('A' for Active; 'I' for Inactive)
REMARK    1  A    between atoms: C_2  and  C_3 
REMARK       I    between atoms: C_3  and  N_4 
REMARK    2  A    between atoms: N_4  and  N_5 
REMARK       I    between atoms: N_5  and  C_6 
REMARK    3  A    between atoms: C_6  and  C_7 
REMARK    4  A    between atoms: C_7  and  C_8 
REMARK    5  A    between atoms: C_8  and  C_9 
REMARK       I    between atoms: C_9  and  N_10 
REMARK    6  A    between atoms: N_10  and  C_11 
REMARK    7  A    between atoms: C_11  and  C_12 
ROOT
HETATM    1  C   UNL     1      34.950  51.620  43.201  1.00  0.00     0.114 C 
ENDROOT
BRANCH   1   2
HETATM    2  C   UNL     1      33.480  51.291  43.094  1.00  0.00     0.236 C 
HETATM    3  N   UNL     1      33.197  49.979  42.799  1.00  0.00    -0.267 N 
HETATM    4  H   UNL     1      33.894  49.320  42.452  1.00  0.00     0.190 HD
HETATM    5  O   UNL     1      32.611  52.156  43.207  1.00  0.00    -0.272 OA
BRANCH   3   6
HETATM    6  N   UNL     1      31.861  49.638  42.554  1.00  0.00    -0.263 N 
HETATM    7  C   UNL     1      31.578  48.910  41.416  1.00  0.00     0.270 C 
HETATM    8  O   UNL     1      32.454  48.526  40.645  1.00  0.00    -0.266 OA
HETATM    9  H   UNL     1      31.161  50.177  43.062  1.00  0.00     0.190 HD
BRANCH   7  10
HETATM   10  C   UNL     1      30.140  48.620  41.150  1.00  0.00     0.033 A 
HETATM   11  C   UNL     1      29.176  49.221  41.974  1.00  0.00     0.018 A 
HETATM   12  C   UNL     1      27.815  48.999  41.746  1.00  0.00     0.020 A 
HETATM   13  C   UNL     1      27.417  48.183  40.689  1.00  0.00     0.011 A 
HETATM   14  C   UNL     1      28.365  47.589  39.857  1.00  0.00     0.020 A 
HETATM   15 BR   UNL     1      25.577  47.890  40.371  1.00  0.00    -0.051 Br
HETATM   16  C   UNL     1      29.727  47.809  40.084  1.00  0.00     0.018 A 
ENDBRANCH   7  10
ENDBRANCH   3   6
ENDBRANCH   1   2
BRANCH   1  17
HETATM   17  C   UNL     1      35.660  51.259  41.906  1.00  0.00     0.112 C 
BRANCH  17  18
HETATM   18  C   UNL     1      35.039  51.930  40.696  1.00  0.00     0.218 C 
HETATM   19  N   UNL     1      34.239  51.116  39.936  1.00  0.00    -0.357 N 
HETATM   20  H   UNL     1      33.867  50.259  40.342  1.00  0.00     0.162 HD
HETATM   21  O   UNL     1      35.289  53.097  40.407  1.00  0.00    -0.274 OA
BRANCH  19  22
HETATM   22  C   UNL     1      33.586  51.594  38.740  1.00  0.00     0.161 C 
BRANCH  22  23
HETATM   23  C   UNL     1      32.097  51.677  38.961  1.00  0.00    -0.038 A 
HETATM   24  C   UNL     1      31.574  52.348  40.076  1.00  0.00     0.048 A 
HETATM   25  C   UNL     1      30.204  52.366  40.238  1.00  0.00     0.105 A 
HETATM   26  C   UNL     1      29.358  51.750  39.345  1.00  0.00     0.105 A 
HETATM   27  O   UNL     1      29.532  52.964  41.259  1.00  0.00    -0.323 OA
HETATM   28  O   UNL     1      28.050  51.880  39.694  1.00  0.00    -0.323 OA
HETATM   29  C   UNL     1      29.832  51.084  38.239  1.00  0.00     0.040 A 
HETATM   30  C   UNL     1      28.168  52.657  40.904  1.00  0.00     0.352 A 
HETATM   31  C   UNL     1      31.216  51.051  38.046  1.00  0.00     0.012 A 
ENDBRANCH  22  23
ENDBRANCH  19  22
ENDBRANCH  17  18
ENDBRANCH   1  17
TORSDOF 7
ENDMDL
MODEL 10
REMARK VINA RESULT:      -8.3      5.557      8.834
REMARK  7 active torsions:
REMARK  status: ('A' for Active; 'I' for Inactive)
REMARK    1  A    between atoms: C_2  and  C_3 
REMARK       I    between atoms: C_3  and  N_4 
REMARK    2  A    between atoms: N_4  and  N_5 
REMARK       I    between atoms: N_5  and  C_6 
REMARK    3  A    between atoms: C_6  and  C_7 
REMARK    4  A    between atoms: C_7  and  C_8 
REMARK    5  A    between atoms: C_8  and  C_9 
REMARK       I    between atoms: C_9  and  N_10 
REMARK    6  A    between atoms: N_10  and  C_11 
REMARK    7  A    between atoms: C_11  and  C_12 
ROOT
HETATM    1  C   UNL     1      24.590  47.092  50.618  1.00  0.00     0.114 C 
ENDROOT
BRANCH   1   2
HETATM    2  C   UNL     1      25.698  46.304  51.275  1.00  0.00     0.236 C 
HETATM    3  N   UNL     1      25.568  46.140  52.634  1.00  0.00    -0.267 N 
HETATM    4  H   UNL     1      24.919  46.683  53.204  1.00  0.00     0.190 HD
HETATM    5  O   UNL     1      26.670  45.895  50.640  1.00  0.00    -0.272 OA
BRANCH   3   6
HETATM    6  N   UNL     1      26.627  45.535  53.323  1.00  0.00    -0.263 N 
HETATM    7  C   UNL     1      27.106  46.166  54.453  1.00  0.00     0.270 C 
HETATM    8  O   UNL     1      26.613  47.205  54.886  1.00  0.00    -0.266 OA
HETATM    9  H   UNL     1      27.157  44.837  52.805  1.00  0.00     0.190 HD
BRANCH   7  10
HETATM   10  C   UNL     1      28.276  45.532  55.125  1.00  0.00     0.033 A 
HETATM   11  C   UNL     1      28.836  44.384  54.545  1.00  0.00     0.018 A 
HETATM   12  C   UNL     1      29.949  43.771  55.127  1.00  0.00     0.020 A 
HETATM   13  C   UNL     1      30.508  44.310  56.284  1.00  0.00     0.011 A 
HETATM   14  C   UNL     1      29.968  45.457  56.863  1.00  0.00     0.020 A 
HETATM   15 BR   UNL     1      32.022  43.490  57.065  1.00  0.00    -0.051 Br
HETATM   16  C   UNL     1      28.853  46.072  56.283  1.00  0.00     0.018 A 
ENDBRANCH   7  10
ENDBRANCH   3   6
ENDBRANCH   1   2
BRANCH   1  17
HETATM   17  C   UNL     1      24.300  46.527  49.236  1.00  0.00     0.112 C 
BRANCH  17  18
HETATM   18  C   UNL     1      23.967  45.048  49.270  1.00  0.00     0.218 C 
HETATM   19  N   UNL     1      24.921  44.232  48.720  1.00  0.00    -0.357 N 
HETATM   20  H   UNL     1      25.872  44.580  48.606  1.00  0.00     0.162 HD
HETATM   21  O   UNL     1      22.896  44.639  49.710  1.00  0.00    -0.274 OA
BRANCH  19  22
HETATM   22  C   UNL     1      24.752  42.800  48.656  1.00  0.00     0.161 C 
BRANCH  22  23
HETATM   23  C   UNL     1      25.851  42.114  49.428  1.00  0.00    -0.038 A 
HETATM   24  C   UNL     1      26.047  42.384  50.790  1.00  0.00     0.048 A 
HETATM   25  C   UNL     1      27.087  41.745  51.434  1.00  0.00     0.105 A 
HETATM   26  C   UNL     1      27.918  40.867  50.779  1.00  0.00     0.105 A 
HETATM   27  O   UNL     1      27.420  41.894  52.745  1.00  0.00    -0.323 OA
HETATM   28  O   UNL     1      28.880  40.355  51.593  1.00  0.00    -0.323 OA
HETATM   29  C   UNL     1      27.757  40.574  49.445  1.00  0.00     0.040 A 
HETATM   30  C   UNL     1      28.553  41.005  52.840  1.00  0.00     0.352 A 
HETATM   31  C   UNL     1      26.710  41.203  48.765  1.00  0.00     0.012 A 
ENDBRANCH  22  23
ENDBRANCH  19  22
ENDBRANCH  17  18
ENDBRANCH   1  17
TORSDOF 7
ENDMDL
