MODEL 1
REMARK VINA RESULT:      -8.3      0.000      0.000
REMARK  11 active torsions:
REMARK  status: ('A' for Active; 'I' for Inactive)
REMARK    1  A    between atoms: C_2  and  C_3 
REMARK    2  A    between atoms: C_3  and  N_4 
REMARK    3  A    between atoms: N_4  and  C_6 
REMARK    4  A    between atoms: N_4  and  C_30 
REMARK    5  A    between atoms: C_6  and  C_7 
REMARK    6  A    between atoms: N_8  and  C_9 
REMARK    7  A    between atoms: C_13  and  N_14 
REMARK    8  A    between atoms: C_17  and  C_18 
REMARK       I    between atoms: C_18  and  N_19 
REMARK    9  A    between atoms: N_19  and  N_20 
REMARK   10  A    between atoms: C_21  and  C_22 
REMARK   11  A    between atoms: C_30  and  C_31 
ROOT
HETATM    1  C   UNL     1      24.226  44.739  49.755  1.00  0.00     0.096 A 
HETATM    2  N   UNL     1      22.976  44.801  49.135  1.00  0.00    -0.215 N 
HETATM    3  N   UNL     1      22.180  43.839  49.681  1.00  0.00     0.012 NA
HETATM    4  N   UNL     1      22.881  43.115  50.536  1.00  0.00    -0.152 NA
HETATM    5  C   UNL     1      24.139  43.632  50.588  1.00  0.00     0.170 A 
ENDROOT
BRANCH   5   6
HETATM    6  C   UNL     1      25.206  43.091  51.417  1.00  0.00     0.293 C 
HETATM    7  N   UNL     1      25.313  43.684  52.658  1.00  0.00    -0.242 N 
HETATM    8  H   UNL     1      24.669  44.423  52.930  1.00  0.00     0.192 HD
HETATM    9  O   UNL     1      25.909  42.182  50.980  1.00  0.00    -0.264 OA
BRANCH   7  10
HETATM   10  N   UNL     1      26.367  43.369  53.462  1.00  0.00    -0.184 NA
HETATM   11  C   UNL     1      27.198  44.333  53.704  1.00  0.00     0.150 C 
BRANCH  11  12
HETATM   12  C   UNL     1      28.413  44.123  54.516  1.00  0.00    -0.017 A 
HETATM   13  C   UNL     1      29.137  42.928  54.426  1.00  0.00     0.014 A 
HETATM   14  C   UNL     1      30.298  42.759  55.184  1.00  0.00     0.020 A 
HETATM   15  C   UNL     1      30.728  43.783  56.027  1.00  0.00     0.011 A 
HETATM   16 BR   UNL     1      32.302  43.555  57.048  1.00  0.00    -0.051 Br
HETATM   17  C   UNL     1      30.007  44.974  56.124  1.00  0.00     0.020 A 
HETATM   18  C   UNL     1      28.846  45.146  55.365  1.00  0.00     0.014 A 
ENDBRANCH  11  12
ENDBRANCH   7  10
ENDBRANCH   5   6
BRANCH   1  19
HETATM   19  C   UNL     1      25.334  45.720  49.606  1.00  0.00     0.296 C 
BRANCH  19  20
HETATM   20  N   UNL     1      25.166  47.026  50.371  1.00  0.00    -0.066 N 
HETATM   21  H   UNL     1      24.184  47.012  50.717  1.00  0.00     0.280 HD
BRANCH  20  22
HETATM   22  C   UNL     1      25.332  48.241  49.473  1.00  0.00     0.235 C 
BRANCH  22  23
HETATM   23  C   UNL     1      26.780  48.656  49.220  1.00  0.00     0.023 C 
HETATM   24  C   UNL     1      26.931  49.987  48.502  1.00  0.00     0.007 C 
ENDBRANCH  22  23
ENDBRANCH  20  22
BRANCH  20  25
HETATM   25  C   UNL     1      26.092  47.096  51.575  1.00  0.00     0.235 C 
BRANCH  25  26
HETATM   26  C   UNL     1      25.362  47.226  52.912  1.00  0.00     0.023 C 
HETATM   27  C   UNL     1      26.249  47.659  54.069  1.00  0.00     0.007 C 
ENDBRANCH  25  26
ENDBRANCH  20  25
ENDBRANCH  19  20
ENDBRANCH   1  19
BRANCH   2  28
HETATM   28  C   UNL     1      22.524  45.633  48.084  1.00  0.00     0.225 A 
HETATM   29  N   UNL     1      22.527  45.189  46.826  1.00  0.00    -0.081 NA
HETATM   30  O   UNL     1      21.998  46.256  46.094  1.00  0.00    -0.103 OA
HETATM   31  N   UNL     1      21.667  47.318  46.924  1.00  0.00    -0.083 NA
HETATM   32  C   UNL     1      21.989  46.931  48.156  1.00  0.00     0.201 A 
BRANCH  32  33
HETATM   33  N   UNL     1      21.821  47.683  49.255  1.00  0.00    -0.379 N 
HETATM   34  H   UNL     1      21.739  47.242  50.168  1.00  0.00     0.158 HD
HETATM   35  H   UNL     1      21.976  48.689  49.282  1.00  0.00     0.158 HD
ENDBRANCH  32  33
ENDBRANCH   2  28
TORSDOF 11
ENDMDL
MODEL 2
REMARK VINA RESULT:      -8.3      1.817      2.695
REMARK  11 active torsions:
REMARK  status: ('A' for Active; 'I' for Inactive)
REMARK    1  A    between atoms: C_2  and  C_3 
REMARK    2  A    between atoms: C_3  and  N_4 
REMARK    3  A    between atoms: N_4  and  C_6 
REMARK    4  A    between atoms: N_4  and  C_30 
REMARK    5  A    between atoms: C_6  and  C_7 
REMARK    6  A    between atoms: N_8  and  C_9 
REMARK    7  A    between atoms: C_13  and  N_14 
REMARK    8  A    between atoms: C_17  and  C_18 
REMARK       I    between atoms: C_18  and  N_19 
REMARK    9  A    between atoms: N_19  and  N_20 
REMARK   10  A    between atoms: C_21  and  C_22 
REMARK   11  A    between atoms: C_30  and  C_31 
ROOT
HETATM    1  C   UNL     1      24.033  45.853  49.161  1.00  0.00     0.096 A 
HETATM    2  N   UNL     1      22.956  45.422  48.383  1.00  0.00    -0.215 N 
HETATM    3  N   UNL     1      23.142  44.105  48.086  1.00  0.00     0.012 NA
HETATM    4  N   UNL     1      24.314  43.707  48.549  1.00  0.00    -0.152 NA
HETATM    5  C   UNL     1      24.888  44.759  49.195  1.00  0.00     0.170 A 
ENDROOT
BRANCH   5   6
HETATM    6  C   UNL     1      26.196  44.707  49.830  1.00  0.00     0.293 C 
HETATM    7  N   UNL     1      26.236  43.946  50.980  1.00  0.00    -0.242 N 
HETATM    8  H   UNL     1      25.399  43.470  51.308  1.00  0.00     0.192 HD
HETATM    9  O   UNL     1      27.138  45.314  49.323  1.00  0.00    -0.264 OA
BRANCH   7  10
HETATM   10  N   UNL     1      27.364  43.946  51.744  1.00  0.00    -0.184 NA
HETATM   11  C   UNL     1      27.177  43.891  53.025  1.00  0.00     0.150 C 
BRANCH  11  12
HETATM   12  C   UNL     1      28.306  43.937  53.976  1.00  0.00    -0.017 A 
HETATM   13  C   UNL     1      28.484  45.035  54.824  1.00  0.00     0.014 A 
HETATM   14  C   UNL     1      29.544  45.047  55.734  1.00  0.00     0.020 A 
HETATM   15  C   UNL     1      30.419  43.963  55.789  1.00  0.00     0.011 A 
HETATM   16 BR   UNL     1      31.849  43.977  57.025  1.00  0.00    -0.051 Br
HETATM   17  C   UNL     1      30.247  42.867  54.942  1.00  0.00     0.020 A 
HETATM   18  C   UNL     1      29.187  42.852  54.033  1.00  0.00     0.014 A 
ENDBRANCH  11  12
ENDBRANCH   7  10
ENDBRANCH   5   6
BRANCH   1  19
HETATM   19  C   UNL     1      24.147  47.158  49.864  1.00  0.00     0.296 C 
BRANCH  19  20
HETATM   20  N   UNL     1      23.943  48.394  48.997  1.00  0.00    -0.066 N 
HETATM   21  H   UNL     1      23.665  48.026  48.064  1.00  0.00     0.280 HD
BRANCH  20  22
HETATM   22  C   UNL     1      25.226  49.192  48.826  1.00  0.00     0.235 C 
BRANCH  22  23
HETATM   23  C   UNL     1      26.455  48.575  49.490  1.00  0.00     0.023 C 
HETATM   24  C   UNL     1      27.773  49.206  49.073  1.00  0.00     0.007 C 
ENDBRANCH  22  23
ENDBRANCH  20  22
BRANCH  20  25
HETATM   25  C   UNL     1      22.812  49.267  49.519  1.00  0.00     0.235 C 
BRANCH  25  26
HETATM   26  C   UNL     1      22.848  50.704  48.999  1.00  0.00     0.023 C 
HETATM   27  C   UNL     1      21.527  51.194  48.428  1.00  0.00     0.007 C 
ENDBRANCH  25  26
ENDBRANCH  20  25
ENDBRANCH  19  20
ENDBRANCH   1  19
BRANCH   2  28
HETATM   28  C   UNL     1      21.847  46.147  47.888  1.00  0.00     0.225 A 
HETATM   29  N   UNL     1      21.987  46.955  46.836  1.00  0.00    -0.081 NA
HETATM   30  O   UNL     1      20.701  47.462  46.631  1.00  0.00    -0.103 OA
HETATM   31  N   UNL     1      19.802  46.937  47.548  1.00  0.00    -0.083 NA
HETATM   32  C   UNL     1      20.511  46.120  48.325  1.00  0.00     0.201 A 
BRANCH  32  33
HETATM   33  N   UNL     1      20.002  45.412  49.345  1.00  0.00    -0.379 N 
HETATM   34  H   UNL     1      20.618  44.887  49.961  1.00  0.00     0.158 HD
HETATM   35  H   UNL     1      19.049  45.518  49.688  1.00  0.00     0.158 HD
ENDBRANCH  32  33
ENDBRANCH   2  28
TORSDOF 11
ENDMDL
MODEL 3
REMARK VINA RESULT:      -7.9      4.337      8.828
REMARK  11 active torsions:
REMARK  status: ('A' for Active; 'I' for Inactive)
REMARK    1  A    between atoms: C_2  and  C_3 
REMARK    2  A    between atoms: C_3  and  N_4 
REMARK    3  A    between atoms: N_4  and  C_6 
REMARK    4  A    between atoms: N_4  and  C_30 
REMARK    5  A    between atoms: C_6  and  C_7 
REMARK    6  A    between atoms: N_8  and  C_9 
REMARK    7  A    between atoms: C_13  and  N_14 
REMARK    8  A    between atoms: C_17  and  C_18 
REMARK       I    between atoms: C_18  and  N_19 
REMARK    9  A    between atoms: N_19  and  N_20 
REMARK   10  A    between atoms: C_21  and  C_22 
REMARK   11  A    between atoms: C_30  and  C_31 
ROOT
HETATM    1  C   UNL     1      26.805  45.040  52.074  1.00  0.00     0.096 A 
HETATM    2  N   UNL     1      27.590  44.056  51.470  1.00  0.00    -0.215 N 
HETATM    3  N   UNL     1      27.552  44.246  50.121  1.00  0.00     0.012 NA
HETATM    4  N   UNL     1      26.715  45.228  49.835  1.00  0.00    -0.152 NA
HETATM    5  C   UNL     1      26.231  45.720  51.008  1.00  0.00     0.170 A 
ENDROOT
BRANCH   5   6
HETATM    6  C   UNL     1      25.269  46.809  51.098  1.00  0.00     0.293 C 
HETATM    7  N   UNL     1      24.507  46.983  49.961  1.00  0.00    -0.242 N 
HETATM    8  H   UNL     1      24.634  46.369  49.159  1.00  0.00     0.192 HD
HETATM    9  O   UNL     1      25.199  47.470  52.132  1.00  0.00    -0.264 OA
BRANCH   7  10
HETATM   10  N   UNL     1      23.681  48.063  49.868  1.00  0.00    -0.184 NA
HETATM   11  C   UNL     1      22.611  47.893  49.156  1.00  0.00     0.150 C 
BRANCH  11  12
HETATM   12  C   UNL     1      21.652  48.992  48.925  1.00  0.00    -0.017 A 
HETATM   13  C   UNL     1      20.273  48.761  48.971  1.00  0.00     0.014 A 
HETATM   14  C   UNL     1      19.383  49.819  48.775  1.00  0.00     0.020 A 
HETATM   15  C   UNL     1      19.876  51.101  48.533  1.00  0.00     0.011 A 
HETATM   16 BR   UNL     1      18.670  52.534  48.275  1.00  0.00    -0.051 Br
HETATM   17  C   UNL     1      21.250  51.335  48.482  1.00  0.00     0.020 A 
HETATM   18  C   UNL     1      22.143  50.279  48.680  1.00  0.00     0.014 A 
ENDBRANCH  11  12
ENDBRANCH   7  10
ENDBRANCH   5   6
BRANCH   1  19
HETATM   19  C   UNL     1      26.716  45.327  53.531  1.00  0.00     0.296 C 
BRANCH  19  20
HETATM   20  N   UNL     1      28.005  45.799  54.191  1.00  0.00    -0.066 N 
HETATM   21  H   UNL     1      28.714  45.797  53.429  1.00  0.00     0.280 HD
BRANCH  20  22
HETATM   22  C   UNL     1      28.476  44.842  55.274  1.00  0.00     0.235 C 
BRANCH  22  23
HETATM   23  C   UNL     1      29.829  45.192  55.891  1.00  0.00     0.023 C 
HETATM   24  C   UNL     1      30.803  44.029  55.962  1.00  0.00     0.007 C 
ENDBRANCH  22  23
ENDBRANCH  20  22
BRANCH  20  25
HETATM   25  C   UNL     1      27.880  47.218  54.720  1.00  0.00     0.235 C 
BRANCH  25  26
HETATM   26  C   UNL     1      26.458  47.606  55.126  1.00  0.00     0.023 C 
HETATM   27  C   UNL     1      26.367  48.895  55.927  1.00  0.00     0.007 C 
ENDBRANCH  25  26
ENDBRANCH  20  25
ENDBRANCH  19  20
ENDBRANCH   1  19
BRANCH   2  28
HETATM   28  C   UNL     1      28.298  42.977  52.050  1.00  0.00     0.225 A 
HETATM   29  N   UNL     1      29.518  43.166  52.554  1.00  0.00    -0.081 NA
HETATM   30  O   UNL     1      29.874  41.908  53.049  1.00  0.00    -0.103 OA
HETATM   31  N   UNL     1      28.856  40.986  52.853  1.00  0.00    -0.083 NA
HETATM   32  C   UNL     1      27.878  41.648  52.237  1.00  0.00     0.201 A 
BRANCH  32  33
HETATM   33  N   UNL     1      26.708  41.104  51.869  1.00  0.00    -0.379 N 
HETATM   34  H   UNL     1      26.318  40.325  52.395  1.00  0.00     0.158 HD
HETATM   35  H   UNL     1      26.061  41.541  51.215  1.00  0.00     0.158 HD
ENDBRANCH  32  33
ENDBRANCH   2  28
TORSDOF 11
ENDMDL
MODEL 4
REMARK VINA RESULT:      -7.7      2.371      4.802
REMARK  11 active torsions:
REMARK  status: ('A' for Active; 'I' for Inactive)
REMARK    1  A    between atoms: C_2  and  C_3 
REMARK    2  A    between atoms: C_3  and  N_4 
REMARK    3  A    between atoms: N_4  and  C_6 
REMARK    4  A    between atoms: N_4  and  C_30 
REMARK    5  A    between atoms: C_6  and  C_7 
REMARK    6  A    between atoms: N_8  and  C_9 
REMARK    7  A    between atoms: C_13  and  N_14 
REMARK    8  A    between atoms: C_17  and  C_18 
REMARK       I    between atoms: C_18  and  N_19 
REMARK    9  A    between atoms: N_19  and  N_20 
REMARK   10  A    between atoms: C_21  and  C_22 
REMARK   11  A    between atoms: C_30  and  C_31 
ROOT
HETATM    1  C   UNL     1      22.453  47.864  48.874  1.00  0.00     0.096 A 
HETATM    2  N   UNL     1      21.447  48.830  48.816  1.00  0.00    -0.215 N 
HETATM    3  N   UNL     1      21.953  50.005  49.286  1.00  0.00     0.012 NA
HETATM    4  N   UNL     1      23.185  49.813  49.723  1.00  0.00    -0.152 NA
HETATM    5  C   UNL     1      23.511  48.511  49.500  1.00  0.00     0.170 A 
ENDROOT
BRANCH   5   6
HETATM    6  C   UNL     1      24.791  47.920  49.861  1.00  0.00     0.293 C 
HETATM    7  N   UNL     1      24.727  47.041  50.923  1.00  0.00    -0.242 N 
HETATM    8  H   UNL     1      23.836  46.846  51.374  1.00  0.00     0.192 HD
HETATM    9  O   UNL     1      25.798  48.225  49.226  1.00  0.00    -0.264 OA
BRANCH   7  10
HETATM   10  N   UNL     1      25.881  46.543  51.449  1.00  0.00    -0.184 NA
HETATM   11  C   UNL     1      25.739  45.736  52.454  1.00  0.00     0.150 C 
BRANCH  11  12
HETATM   12  C   UNL     1      26.903  45.162  53.157  1.00  0.00    -0.017 A 
HETATM   13  C   UNL     1      27.696  44.182  52.548  1.00  0.00     0.014 A 
HETATM   14  C   UNL     1      28.808  43.670  53.220  1.00  0.00     0.020 A 
HETATM   15  C   UNL     1      29.121  44.138  54.495  1.00  0.00     0.011 A 
HETATM   16 BR   UNL     1      30.630  43.449  55.401  1.00  0.00    -0.051 Br
HETATM   17  C   UNL     1      28.331  45.112  55.108  1.00  0.00     0.020 A 
HETATM   18  C   UNL     1      27.219  45.628  54.437  1.00  0.00     0.014 A 
ENDBRANCH  11  12
ENDBRANCH   7  10
ENDBRANCH   5   6
BRANCH   1  19
HETATM   19  C   UNL     1      22.400  46.498  48.289  1.00  0.00     0.296 C 
BRANCH  19  20
HETATM   20  N   UNL     1      21.833  45.414  49.196  1.00  0.00    -0.066 N 
HETATM   21  H   UNL     1      21.737  45.865  50.129  1.00  0.00     0.280 HD
BRANCH  20  22
HETATM   22  C   UNL     1      22.782  44.235  49.341  1.00  0.00     0.235 C 
BRANCH  22  23
HETATM   23  C   UNL     1      24.096  44.374  48.574  1.00  0.00     0.023 C 
HETATM   24  C   UNL     1      25.298  43.772  49.281  1.00  0.00     0.007 C 
ENDBRANCH  22  23
ENDBRANCH  20  22
BRANCH  20  25
HETATM   25  C   UNL     1      20.454  44.963  48.742  1.00  0.00     0.235 C 
BRANCH  25  26
HETATM   26  C   UNL     1      20.206  45.138  47.244  1.00  0.00     0.023 C 
HETATM   27  C   UNL     1      18.740  45.094  46.844  1.00  0.00     0.007 C 
ENDBRANCH  25  26
ENDBRANCH  20  25
ENDBRANCH  19  20
ENDBRANCH   1  19
BRANCH   2  28
HETATM   28  C   UNL     1      20.096  48.711  48.414  1.00  0.00     0.225 A 
HETATM   29  N   UNL     1      19.738  49.002  47.162  1.00  0.00    -0.081 NA
HETATM   30  O   UNL     1      18.365  48.744  47.138  1.00  0.00    -0.103 OA
HETATM   31  N   UNL     1      17.920  48.281  48.368  1.00  0.00    -0.083 NA
HETATM   32  C   UNL     1      18.992  48.257  49.158  1.00  0.00     0.201 A 
BRANCH  32  33
HETATM   33  N   UNL     1      18.980  47.866  50.442  1.00  0.00    -0.379 N 
HETATM   34  H   UNL     1      18.142  47.453  50.842  1.00  0.00     0.158 HD
HETATM   35  H   UNL     1      19.819  47.759  51.009  1.00  0.00     0.158 HD
ENDBRANCH  32  33
ENDBRANCH   2  28
TORSDOF 11
ENDMDL
MODEL 5
REMARK VINA RESULT:      -7.7      1.896      3.819
REMARK  11 active torsions:
REMARK  status: ('A' for Active; 'I' for Inactive)
REMARK    1  A    between atoms: C_2  and  C_3 
REMARK    2  A    between atoms: C_3  and  N_4 
REMARK    3  A    between atoms: N_4  and  C_6 
REMARK    4  A    between atoms: N_4  and  C_30 
REMARK    5  A    between atoms: C_6  and  C_7 
REMARK    6  A    between atoms: N_8  and  C_9 
REMARK    7  A    between atoms: C_13  and  N_14 
REMARK    8  A    between atoms: C_17  and  C_18 
REMARK       I    between atoms: C_18  and  N_19 
REMARK    9  A    between atoms: N_19  and  N_20 
REMARK   10  A    between atoms: C_21  and  C_22 
REMARK   11  A    between atoms: C_30  and  C_31 
ROOT
HETATM    1  C   UNL     1      23.846  46.520  49.512  1.00  0.00     0.096 A 
HETATM    2  N   UNL     1      23.217  47.720  49.173  1.00  0.00    -0.215 N 
HETATM    3  N   UNL     1      24.084  48.742  49.416  1.00  0.00     0.012 NA
HETATM    4  N   UNL     1      25.183  48.267  49.977  1.00  0.00    -0.152 NA
HETATM    5  C   UNL     1      25.058  46.915  50.063  1.00  0.00     0.170 A 
ENDROOT
BRANCH   5   6
HETATM    6  C   UNL     1      26.069  46.040  50.639  1.00  0.00     0.293 C 
HETATM    7  N   UNL     1      25.922  45.823  51.993  1.00  0.00    -0.242 N 
HETATM    8  H   UNL     1      25.150  46.249  52.500  1.00  0.00     0.192 HD
HETATM    9  O   UNL     1      26.945  45.571  49.915  1.00  0.00    -0.264 OA
BRANCH   7  10
HETATM   10  N   UNL     1      26.892  45.147  52.672  1.00  0.00    -0.184 NA
HETATM   11  C   UNL     1      27.342  45.729  53.739  1.00  0.00     0.150 C 
BRANCH  11  12
HETATM   12  C   UNL     1      28.429  45.137  54.543  1.00  0.00    -0.017 A 
HETATM   13  C   UNL     1      28.945  43.873  54.232  1.00  0.00     0.014 A 
HETATM   14  C   UNL     1      29.991  43.342  54.990  1.00  0.00     0.020 A 
HETATM   15  C   UNL     1      30.514  44.076  56.054  1.00  0.00     0.011 A 
HETATM   16 BR   UNL     1      31.934  43.359  57.075  1.00  0.00    -0.051 Br
HETATM   17  C   UNL     1      30.001  45.334  56.371  1.00  0.00     0.020 A 
HETATM   18  C   UNL     1      28.956  45.868  55.613  1.00  0.00     0.014 A 
ENDBRANCH  11  12
ENDBRANCH   7  10
ENDBRANCH   5   6
BRANCH   1  19
HETATM   19  C   UNL     1      23.342  45.149  49.231  1.00  0.00     0.296 C 
BRANCH  19  20
HETATM   20  N   UNL     1      24.063  44.396  48.121  1.00  0.00    -0.066 N 
HETATM   21  H   UNL     1      24.840  45.024  47.829  1.00  0.00     0.280 HD
BRANCH  20  22
HETATM   22  C   UNL     1      23.169  44.161  46.914  1.00  0.00     0.235 C 
BRANCH  22  23
HETATM   23  C   UNL     1      23.160  42.725  46.395  1.00  0.00     0.023 C 
HETATM   24  C   UNL     1      21.781  42.088  46.345  1.00  0.00     0.007 C 
ENDBRANCH  22  23
ENDBRANCH  20  22
BRANCH  20  25
HETATM   25  C   UNL     1      24.668  43.095  48.624  1.00  0.00     0.235 C 
BRANCH  25  26
HETATM   26  C   UNL     1      24.347  42.786  50.087  1.00  0.00     0.023 C 
HETATM   27  C   UNL     1      25.538  42.304  50.900  1.00  0.00     0.007 C 
ENDBRANCH  25  26
ENDBRANCH  20  25
ENDBRANCH  19  20
ENDBRANCH   1  19
BRANCH   2  28
HETATM   28  C   UNL     1      21.903  47.955  48.703  1.00  0.00     0.225 A 
HETATM   29  N   UNL     1      21.368  47.161  47.775  1.00  0.00    -0.081 NA
HETATM   30  O   UNL     1      20.083  47.679  47.592  1.00  0.00    -0.103 OA
HETATM   31  N   UNL     1      19.856  48.764  48.428  1.00  0.00    -0.083 NA
HETATM   32  C   UNL     1      20.982  48.933  49.119  1.00  0.00     0.201 A 
BRANCH  32  33
HETATM   33  N   UNL     1      21.169  49.889  50.042  1.00  0.00    -0.379 N 
HETATM   34  H   UNL     1      22.099  50.063  50.415  1.00  0.00     0.158 HD
HETATM   35  H   UNL     1      20.483  50.609  50.259  1.00  0.00     0.158 HD
ENDBRANCH  32  33
ENDBRANCH   2  28
TORSDOF 11
ENDMDL
MODEL 6
REMARK VINA RESULT:      -7.6      1.768      4.192
REMARK  11 active torsions:
REMARK  status: ('A' for Active; 'I' for Inactive)
REMARK    1  A    between atoms: C_2  and  C_3 
REMARK    2  A    between atoms: C_3  and  N_4 
REMARK    3  A    between atoms: N_4  and  C_6 
REMARK    4  A    between atoms: N_4  and  C_30 
REMARK    5  A    between atoms: C_6  and  C_7 
REMARK    6  A    between atoms: N_8  and  C_9 
REMARK    7  A    between atoms: C_13  and  N_14 
REMARK    8  A    between atoms: C_17  and  C_18 
REMARK       I    between atoms: C_18  and  N_19 
REMARK    9  A    between atoms: N_19  and  N_20 
REMARK   10  A    between atoms: C_21  and  C_22 
REMARK   11  A    between atoms: C_30  and  C_31 
ROOT
HETATM    1  C   UNL     1      23.901  46.460  49.198  1.00  0.00     0.096 A 
HETATM    2  N   UNL     1      23.069  47.570  49.039  1.00  0.00    -0.215 N 
HETATM    3  N   UNL     1      23.611  48.615  49.726  1.00  0.00     0.012 NA
HETATM    4  N   UNL     1      24.681  48.204  50.384  1.00  0.00    -0.152 NA
HETATM    5  C   UNL     1      24.872  46.889  50.094  1.00  0.00     0.170 A 
ENDROOT
BRANCH   5   6
HETATM    6  C   UNL     1      25.952  46.084  50.645  1.00  0.00     0.293 C 
HETATM    7  N   UNL     1      25.814  45.796  51.987  1.00  0.00    -0.242 N 
HETATM    8  H   UNL     1      25.001  46.129  52.501  1.00  0.00     0.192 HD
HETATM    9  O   UNL     1      26.874  45.727  49.913  1.00  0.00    -0.264 OA
BRANCH   7  10
HETATM   10  N   UNL     1      26.834  45.180  52.648  1.00  0.00    -0.184 NA
HETATM   11  C   UNL     1      27.208  45.743  53.754  1.00  0.00     0.150 C 
BRANCH  11  12
HETATM   12  C   UNL     1      28.336  45.216  54.548  1.00  0.00    -0.017 A 
HETATM   13  C   UNL     1      28.877  45.958  55.605  1.00  0.00     0.014 A 
HETATM   14  C   UNL     1      29.927  45.430  56.360  1.00  0.00     0.020 A 
HETATM   15  C   UNL     1      30.430  44.166  56.054  1.00  0.00     0.011 A 
HETATM   16 BR   UNL     1      31.847  43.450  57.081  1.00  0.00    -0.051 Br
HETATM   17  C   UNL     1      29.897  43.425  54.999  1.00  0.00     0.020 A 
HETATM   18  C   UNL     1      28.845  43.949  54.243  1.00  0.00     0.014 A 
ENDBRANCH  11  12
ENDBRANCH   7  10
ENDBRANCH   5   6
BRANCH   1  19
HETATM   19  C   UNL     1      23.797  45.167  48.471  1.00  0.00     0.296 C 
BRANCH  19  20
HETATM   20  N   UNL     1      22.623  44.281  48.866  1.00  0.00    -0.066 N 
HETATM   21  H   UNL     1      21.986  44.902  49.407  1.00  0.00     0.280 HD
BRANCH  20  22
HETATM   22  C   UNL     1      23.049  43.139  49.775  1.00  0.00     0.235 C 
BRANCH  22  23
HETATM   23  C   UNL     1      24.463  42.619  49.528  1.00  0.00     0.023 C 
HETATM   24  C   UNL     1      25.270  42.379  50.792  1.00  0.00     0.007 C 
ENDBRANCH  22  23
ENDBRANCH  20  22
BRANCH  20  25
HETATM   25  C   UNL     1      21.869  43.770  47.650  1.00  0.00     0.235 C 
BRANCH  25  26
HETATM   26  C   UNL     1      22.750  43.551  46.420  1.00  0.00     0.023 C 
HETATM   27  C   UNL     1      22.652  42.156  45.822  1.00  0.00     0.007 C 
ENDBRANCH  25  26
ENDBRANCH  20  25
ENDBRANCH  19  20
ENDBRANCH   1  19
BRANCH   2  28
HETATM   28  C   UNL     1      21.835  47.689  48.356  1.00  0.00     0.225 A 
HETATM   29  N   UNL     1      21.707  47.227  47.112  1.00  0.00    -0.081 NA
HETATM   30  O   UNL     1      20.373  47.494  46.791  1.00  0.00    -0.103 OA
HETATM   31  N   UNL     1      19.713  48.093  47.854  1.00  0.00    -0.083 NA
HETATM   32  C   UNL     1      20.616  48.211  48.825  1.00  0.00     0.201 A 
BRANCH  32  33
HETATM   33  N   UNL     1      20.370  48.748  50.030  1.00  0.00    -0.379 N 
HETATM   34  H   UNL     1      20.327  48.154  50.855  1.00  0.00     0.158 HD
HETATM   35  H   UNL     1      20.423  49.746  50.227  1.00  0.00     0.158 HD
ENDBRANCH  32  33
ENDBRANCH   2  28
TORSDOF 11
ENDMDL
MODEL 7
REMARK VINA RESULT:      -7.5      4.220      8.302
REMARK  11 active torsions:
REMARK  status: ('A' for Active; 'I' for Inactive)
REMARK    1  A    between atoms: C_2  and  C_3 
REMARK    2  A    between atoms: C_3  and  N_4 
REMARK    3  A    between atoms: N_4  and  C_6 
REMARK    4  A    between atoms: N_4  and  C_30 
REMARK    5  A    between atoms: C_6  and  C_7 
REMARK    6  A    between atoms: N_8  and  C_9 
REMARK    7  A    between atoms: C_13  and  N_14 
REMARK    8  A    between atoms: C_17  and  C_18 
REMARK       I    between atoms: C_18  and  N_19 
REMARK    9  A    between atoms: N_19  and  N_20 
REMARK   10  A    between atoms: C_21  and  C_22 
REMARK   11  A    between atoms: C_30  and  C_31 
ROOT
HETATM    1  C   UNL     1      24.923  43.988  50.393  1.00  0.00     0.096 A 
HETATM    2  N   UNL     1      25.860  42.984  50.140  1.00  0.00    -0.215 N 
HETATM    3  N   UNL     1      25.576  42.428  48.929  1.00  0.00     0.012 NA
HETATM    4  N   UNL     1      24.463  42.955  48.449  1.00  0.00    -0.152 NA
HETATM    5  C   UNL     1      24.033  43.898  49.331  1.00  0.00     0.170 A 
ENDROOT
BRANCH   5   6
HETATM    6  C   UNL     1      22.825  44.689  49.149  1.00  0.00     0.293 C 
HETATM    7  N   UNL     1      23.049  45.958  48.658  1.00  0.00    -0.242 N 
HETATM    8  H   UNL     1      23.995  46.264  48.443  1.00  0.00     0.192 HD
HETATM    9  O   UNL     1      21.733  44.198  49.431  1.00  0.00    -0.264 OA
BRANCH   7  10
HETATM   10  N   UNL     1      22.014  46.842  48.590  1.00  0.00    -0.184 NA
HETATM   11  C   UNL     1      22.282  48.051  48.973  1.00  0.00     0.150 C 
BRANCH  11  12
HETATM   12  C   UNL     1      21.244  49.101  49.003  1.00  0.00    -0.017 A 
HETATM   13  C   UNL     1      19.954  48.820  49.467  1.00  0.00     0.014 A 
HETATM   14  C   UNL     1      18.994  49.834  49.511  1.00  0.00     0.020 A 
HETATM   15  C   UNL     1      19.328  51.120  49.089  1.00  0.00     0.011 A 
HETATM   16 BR   UNL     1      18.030  52.493  49.155  1.00  0.00    -0.051 Br
HETATM   17  C   UNL     1      20.611  51.404  48.621  1.00  0.00     0.020 A 
HETATM   18  C   UNL     1      21.574  50.392  48.579  1.00  0.00     0.014 A 
ENDBRANCH  11  12
ENDBRANCH   7  10
ENDBRANCH   5   6
BRANCH   1  19
HETATM   19  C   UNL     1      24.966  44.976  51.503  1.00  0.00     0.296 C 
BRANCH  19  20
HETATM   20  N   UNL     1      26.129  45.959  51.467  1.00  0.00    -0.066 N 
HETATM   21  H   UNL     1      26.956  45.409  51.778  1.00  0.00     0.280 HD
BRANCH  20  22
HETATM   22  C   UNL     1      25.935  47.110  52.441  1.00  0.00     0.235 C 
BRANCH  22  23
HETATM   23  C   UNL     1      26.112  46.738  53.912  1.00  0.00     0.023 C 
HETATM   24  C   UNL     1      27.185  47.536  54.634  1.00  0.00     0.007 C 
ENDBRANCH  22  23
ENDBRANCH  20  22
BRANCH  20  25
HETATM   25  C   UNL     1      26.396  46.464  50.059  1.00  0.00     0.235 C 
BRANCH  25  26
HETATM   26  C   UNL     1      26.230  47.975  49.899  1.00  0.00     0.023 C 
HETATM   27  C   UNL     1      27.417  48.670  49.251  1.00  0.00     0.007 C 
ENDBRANCH  25  26
ENDBRANCH  20  25
ENDBRANCH  19  20
ENDBRANCH   1  19
BRANCH   2  28
HETATM   28  C   UNL     1      26.921  42.508  50.947  1.00  0.00     0.225 A 
HETATM   29  N   UNL     1      27.897  43.333  51.329  1.00  0.00    -0.081 NA
HETATM   30  O   UNL     1      28.726  42.527  52.116  1.00  0.00    -0.103 OA
HETATM   31  N   UNL     1      28.226  41.237  52.212  1.00  0.00    -0.083 NA
HETATM   32  C   UNL     1      27.106  41.225  51.491  1.00  0.00     0.201 A 
BRANCH  32  33
HETATM   33  N   UNL     1      26.319  40.150  51.330  1.00  0.00    -0.379 N 
HETATM   34  H   UNL     1      25.802  39.772  52.120  1.00  0.00     0.158 HD
HETATM   35  H   UNL     1      26.027  39.793  50.422  1.00  0.00     0.158 HD
ENDBRANCH  32  33
ENDBRANCH   2  28
TORSDOF 11
ENDMDL
MODEL 8
REMARK VINA RESULT:      -7.5     11.750     13.663
REMARK  11 active torsions:
REMARK  status: ('A' for Active; 'I' for Inactive)
REMARK    1  A    between atoms: C_2  and  C_3 
REMARK    2  A    between atoms: C_3  and  N_4 
REMARK    3  A    between atoms: N_4  and  C_6 
REMARK    4  A    between atoms: N_4  and  C_30 
REMARK    5  A    between atoms: C_6  and  C_7 
REMARK    6  A    between atoms: N_8  and  C_9 
REMARK    7  A    between atoms: C_13  and  N_14 
REMARK    8  A    between atoms: C_17  and  C_18 
REMARK       I    between atoms: C_18  and  N_19 
REMARK    9  A    between atoms: N_19  and  N_20 
REMARK   10  A    between atoms: C_21  and  C_22 
REMARK   11  A    between atoms: C_30  and  C_31 
ROOT
HETATM    1  C   UNL     1      30.786  50.929  42.229  1.00  0.00     0.096 A 
HETATM    2  N   UNL     1      30.280  49.752  41.674  1.00  0.00    -0.215 N 
HETATM    3  N   UNL     1      30.861  48.695  42.307  1.00  0.00     0.012 NA
HETATM    4  N   UNL     1      31.770  49.134  43.160  1.00  0.00    -0.152 NA
HETATM    5  C   UNL     1      31.758  50.494  43.121  1.00  0.00     0.170 A 
ENDROOT
BRANCH   5   6
HETATM    6  C   UNL     1      32.635  51.338  43.919  1.00  0.00     0.293 C 
HETATM    7  N   UNL     1      33.802  51.704  43.279  1.00  0.00    -0.242 N 
HETATM    8  H   UNL     1      33.982  51.395  42.326  1.00  0.00     0.192 HD
HETATM    9  O   UNL     1      32.296  51.658  45.056  1.00  0.00    -0.264 OA
BRANCH   7  10
HETATM   10  N   UNL     1      34.768  52.364  43.976  1.00  0.00    -0.184 NA
HETATM   11  C   UNL     1      35.990  52.108  43.626  1.00  0.00     0.150 C 
BRANCH  11  12
HETATM   12  C   UNL     1      37.140  52.711  44.329  1.00  0.00    -0.017 A 
HETATM   13  C   UNL     1      38.309  51.975  44.552  1.00  0.00     0.014 A 
HETATM   14  C   UNL     1      39.395  52.573  45.196  1.00  0.00     0.020 A 
HETATM   15  C   UNL     1      39.306  53.900  45.614  1.00  0.00     0.011 A 
HETATM   16 BR   UNL     1      40.778  54.709  46.480  1.00  0.00    -0.051 Br
HETATM   17  C   UNL     1      38.140  54.636  45.398  1.00  0.00     0.020 A 
HETATM   18  C   UNL     1      37.053  54.041  44.752  1.00  0.00     0.014 A 
ENDBRANCH  11  12
ENDBRANCH   7  10
ENDBRANCH   5   6
BRANCH   1  19
HETATM   19  C   UNL     1      30.293  52.308  41.974  1.00  0.00     0.296 C 
BRANCH  19  20
HETATM   20  N   UNL     1      31.040  53.089  40.901  1.00  0.00    -0.066 N 
HETATM   21  H   UNL     1      31.641  53.759  41.424  1.00  0.00     0.280 HD
BRANCH  20  22
HETATM   22  C   UNL     1      30.099  53.891  40.017  1.00  0.00     0.235 C 
BRANCH  22  23
HETATM   23  C   UNL     1      28.819  53.160  39.617  1.00  0.00     0.023 C 
HETATM   24  C   UNL     1      28.796  52.684  38.175  1.00  0.00     0.007 C 
ENDBRANCH  22  23
ENDBRANCH  20  22
BRANCH  20  25
HETATM   25  C   UNL     1      31.943  52.187  40.075  1.00  0.00     0.235 C 
BRANCH  25  26
HETATM   26  C   UNL     1      33.224  52.868  39.590  1.00  0.00     0.023 C 
HETATM   27  C   UNL     1      34.458  51.981  39.634  1.00  0.00     0.007 C 
ENDBRANCH  25  26
ENDBRANCH  20  25
ENDBRANCH  19  20
ENDBRANCH   1  19
BRANCH   2  28
HETATM   28  C   UNL     1      29.368  49.570  40.607  1.00  0.00     0.225 A 
HETATM   29  N   UNL     1      29.815  49.319  39.376  1.00  0.00    -0.081 NA
HETATM   30  O   UNL     1      28.648  49.177  38.620  1.00  0.00    -0.103 OA
HETATM   31  N   UNL     1      27.517  49.325  39.410  1.00  0.00    -0.083 NA
HETATM   32  C   UNL     1      27.962  49.565  40.642  1.00  0.00     0.201 A 
BRANCH  32  33
HETATM   33  N   UNL     1      27.173  49.768  41.708  1.00  0.00    -0.379 N 
HETATM   34  H   UNL     1      26.254  49.335  41.753  1.00  0.00     0.158 HD
HETATM   35  H   UNL     1      27.500  50.163  42.588  1.00  0.00     0.158 HD
ENDBRANCH  32  33
ENDBRANCH   2  28
TORSDOF 11
ENDMDL
MODEL 9
REMARK VINA RESULT:      -7.4     12.297     14.674
REMARK  11 active torsions:
REMARK  status: ('A' for Active; 'I' for Inactive)
REMARK    1  A    between atoms: C_2  and  C_3 
REMARK    2  A    between atoms: C_3  and  N_4 
REMARK    3  A    between atoms: N_4  and  C_6 
REMARK    4  A    between atoms: N_4  and  C_30 
REMARK    5  A    between atoms: C_6  and  C_7 
REMARK    6  A    between atoms: N_8  and  C_9 
REMARK    7  A    between atoms: C_13  and  N_14 
REMARK    8  A    between atoms: C_17  and  C_18 
REMARK       I    between atoms: C_18  and  N_19 
REMARK    9  A    between atoms: N_19  and  N_20 
REMARK   10  A    between atoms: C_21  and  C_22 
REMARK   11  A    between atoms: C_30  and  C_31 
ROOT
HETATM    1  C   UNL     1      33.561  51.168  40.364  1.00  0.00     0.096 A 
HETATM    2  N   UNL     1      32.964  51.882  39.323  1.00  0.00    -0.215 N 
HETATM    3  N   UNL     1      33.804  52.891  38.958  1.00  0.00     0.012 NA
HETATM    4  N   UNL     1      34.848  52.914  39.768  1.00  0.00    -0.152 NA
HETATM    5  C   UNL     1      34.717  51.884  40.648  1.00  0.00     0.170 A 
ENDROOT
BRANCH   5   6
HETATM    6  C   UNL     1      35.673  51.593  41.706  1.00  0.00     0.293 C 
HETATM    7  N   UNL     1      35.654  52.497  42.748  1.00  0.00    -0.242 N 
HETATM    8  H   UNL     1      35.000  53.276  42.738  1.00  0.00     0.192 HD
HETATM    9  O   UNL     1      36.401  50.606  41.610  1.00  0.00    -0.264 OA
BRANCH   7  10
HETATM   10  N   UNL     1      36.604  52.417  43.721  1.00  0.00    -0.184 NA
HETATM   11  C   UNL     1      36.981  53.546  44.234  1.00  0.00     0.150 C 
BRANCH  11  12
HETATM   12  C   UNL     1      38.040  53.616  45.260  1.00  0.00    -0.017 A 
HETATM   13  C   UNL     1      39.011  52.612  45.357  1.00  0.00     0.014 A 
HETATM   14  C   UNL     1      40.020  52.709  46.318  1.00  0.00     0.020 A 
HETATM   15  C   UNL     1      40.051  53.807  47.178  1.00  0.00     0.011 A 
HETATM   16 BR   UNL     1      41.420  53.941  48.474  1.00  0.00    -0.051 Br
HETATM   17  C   UNL     1      39.083  54.808  47.088  1.00  0.00     0.020 A 
HETATM   18  C   UNL     1      38.074  54.714  46.126  1.00  0.00     0.014 A 
ENDBRANCH  11  12
ENDBRANCH   7  10
ENDBRANCH   5   6
BRANCH   1  19
HETATM   19  C   UNL     1      33.088  49.880  40.937  1.00  0.00     0.296 C 
BRANCH  19  20
HETATM   20  N   UNL     1      31.763  49.939  41.687  1.00  0.00    -0.066 N 
HETATM   21  H   UNL     1      31.269  50.768  41.297  1.00  0.00     0.280 HD
BRANCH  20  22
HETATM   22  C   UNL     1      31.959  50.166  43.177  1.00  0.00     0.235 C 
BRANCH  22  23
HETATM   23  C   UNL     1      31.924  51.631  43.610  1.00  0.00     0.023 C 
HETATM   24  C   UNL     1      32.823  51.954  44.791  1.00  0.00     0.007 C 
ENDBRANCH  22  23
ENDBRANCH  20  22
BRANCH  20  25
HETATM   25  C   UNL     1      30.910  48.710  41.420  1.00  0.00     0.235 C 
BRANCH  25  26
HETATM   26  C   UNL     1      29.602  48.679  42.211  1.00  0.00     0.023 C 
HETATM   27  C   UNL     1      28.550  49.659  41.717  1.00  0.00     0.007 C 
ENDBRANCH  25  26
ENDBRANCH  20  25
ENDBRANCH  19  20
ENDBRANCH   1  19
BRANCH   2  28
HETATM   28  C   UNL     1      31.698  51.711  38.715  1.00  0.00     0.225 A 
HETATM   29  N   UNL     1      31.594  51.086  37.541  1.00  0.00    -0.081 NA
HETATM   30  O   UNL     1      30.220  51.088  37.282  1.00  0.00    -0.103 OA
HETATM   31  N   UNL     1      29.517  51.696  38.312  1.00  0.00    -0.083 NA
HETATM   32  C   UNL     1      30.431  52.079  39.201  1.00  0.00     0.201 A 
BRANCH  32  33
HETATM   33  N   UNL     1      30.152  52.712  40.351  1.00  0.00    -0.379 N 
HETATM   34  H   UNL     1      30.263  52.229  41.240  1.00  0.00     0.158 HD
HETATM   35  H   UNL     1      30.029  53.720  40.428  1.00  0.00     0.158 HD
ENDBRANCH  32  33
ENDBRANCH   2  28
TORSDOF 11
ENDMDL
MODEL 10
REMARK VINA RESULT:      -7.3      2.368      3.657
REMARK  11 active torsions:
REMARK  status: ('A' for Active; 'I' for Inactive)
REMARK    1  A    between atoms: C_2  and  C_3 
REMARK    2  A    between atoms: C_3  and  N_4 
REMARK    3  A    between atoms: N_4  and  C_6 
REMARK    4  A    between atoms: N_4  and  C_30 
REMARK    5  A    between atoms: C_6  and  C_7 
REMARK    6  A    between atoms: N_8  and  C_9 
REMARK    7  A    between atoms: C_13  and  N_14 
REMARK    8  A    between atoms: C_17  and  C_18 
REMARK       I    between atoms: C_18  and  N_19 
REMARK    9  A    between atoms: N_19  and  N_20 
REMARK   10  A    between atoms: C_21  and  C_22 
REMARK   11  A    between atoms: C_30  and  C_31 
ROOT
HETATM    1  C   UNL     1      21.824  46.139  48.606  1.00  0.00     0.096 A 
HETATM    2  N   UNL     1      20.753  45.600  47.891  1.00  0.00    -0.215 N 
HETATM    3  N   UNL     1      20.886  44.244  47.875  1.00  0.00     0.012 NA
HETATM    4  N   UNL     1      22.025  43.904  48.455  1.00  0.00    -0.152 NA
HETATM    5  C   UNL     1      22.626  45.042  48.895  1.00  0.00     0.170 A 
ENDROOT
BRANCH   5   6
HETATM    6  C   UNL     1      23.912  45.071  49.577  1.00  0.00     0.293 C 
HETATM    7  N   UNL     1      23.827  44.923  50.946  1.00  0.00    -0.242 N 
HETATM    8  H   UNL     1      22.922  44.793  51.393  1.00  0.00     0.192 HD
HETATM    9  O   UNL     1      24.941  45.217  48.921  1.00  0.00    -0.264 OA
BRANCH   7  10
HETATM   10  N   UNL     1      24.946  45.085  51.708  1.00  0.00    -0.184 NA
HETATM   11  C   UNL     1      25.590  43.999  51.999  1.00  0.00     0.150 C 
BRANCH  11  12
HETATM   12  C   UNL     1      26.790  44.018  52.860  1.00  0.00    -0.017 A 
HETATM   13  C   UNL     1      26.804  44.750  54.053  1.00  0.00     0.014 A 
HETATM   14  C   UNL     1      27.940  44.734  54.866  1.00  0.00     0.020 A 
HETATM   15  C   UNL     1      29.054  43.989  54.481  1.00  0.00     0.011 A 
HETATM   16 BR   UNL     1      30.588  43.963  55.585  1.00  0.00    -0.051 Br
HETATM   17  C   UNL     1      29.046  43.261  53.291  1.00  0.00     0.020 A 
HETATM   18  C   UNL     1      27.910  43.274  52.477  1.00  0.00     0.014 A 
ENDBRANCH  11  12
ENDBRANCH   7  10
ENDBRANCH   5   6
BRANCH   1  19
HETATM   19  C   UNL     1      21.977  47.555  49.033  1.00  0.00     0.296 C 
BRANCH  19  20
HETATM   20  N   UNL     1      22.882  48.413  48.158  1.00  0.00    -0.066 N 
HETATM   21  H   UNL     1      23.145  47.800  47.359  1.00  0.00     0.280 HD
BRANCH  20  22
HETATM   22  C   UNL     1      24.157  48.820  48.879  1.00  0.00     0.235 C 
BRANCH  22  23
HETATM   23  C   UNL     1      24.913  49.980  48.235  1.00  0.00     0.023 C 
HETATM   24  C   UNL     1      26.425  49.824  48.249  1.00  0.00     0.007 C 
ENDBRANCH  22  23
ENDBRANCH  20  22
BRANCH  20  25
HETATM   25  C   UNL     1      22.147  49.624  47.605  1.00  0.00     0.235 C 
BRANCH  25  26
HETATM   26  C   UNL     1      20.878  49.985  48.377  1.00  0.00     0.023 C 
HETATM   27  C   UNL     1      20.859  51.405  48.918  1.00  0.00     0.007 C 
ENDBRANCH  25  26
ENDBRANCH  20  25
ENDBRANCH  19  20
ENDBRANCH   1  19
BRANCH   2  28
HETATM   28  C   UNL     1      19.693  46.251  47.215  1.00  0.00     0.225 A 
HETATM   29  N   UNL     1      19.950  47.082  46.205  1.00  0.00    -0.081 NA
HETATM   30  O   UNL     1      18.683  47.498  45.785  1.00  0.00    -0.103 OA
HETATM   31  N   UNL     1      17.683  46.896  46.535  1.00  0.00    -0.083 NA
HETATM   32  C   UNL     1      18.308  46.121  47.419  1.00  0.00     0.201 A 
BRANCH  32  33
HETATM   33  N   UNL     1      17.687  45.363  48.336  1.00  0.00    -0.379 N 
HETATM   34  H   UNL     1      16.763  45.623  48.673  1.00  0.00     0.158 HD
HETATM   35  H   UNL     1      17.978  44.419  48.582  1.00  0.00     0.158 HD
ENDBRANCH  32  33
ENDBRANCH   2  28
TORSDOF 11
ENDMDL
