MODEL 1
REMARK VINA RESULT:      -8.8      0.000      0.000
REMARK  4 active torsions:
REMARK  status: ('A' for Active; 'I' for Inactive)
REMARK    1  A    between atoms: C_3  and  N_4 
REMARK    2  A    between atoms: N_4  and  C_5 
REMARK    3  A    between atoms: C_5  and  C_6 
REMARK    4  A    between atoms: C_14  and  C_15 
ROOT
HETATM    1  C   UNL     1      27.226  42.264  50.470  1.00  0.00     0.006 A 
HETATM    2  C   UNL     1      26.804  43.429  49.835  1.00  0.00     0.048 A 
HETATM    3  C   UNL     1      27.079  44.686  50.396  1.00  0.00     0.101 A 
HETATM    4  N   UNL     1      27.708  44.715  51.582  1.00  0.00    -0.342 N 
HETATM    5  H   UNL     1      27.879  45.610  52.021  1.00  0.00     0.167 HD
HETATM    6  C   UNL     1      28.123  43.615  52.237  1.00  0.00     0.044 A 
HETATM    7  C   UNL     1      27.899  42.357  51.680  1.00  0.00     0.030 A 
ENDROOT
BRANCH   6   8
HETATM    8  C   UNL     1      28.817  43.863  53.500  1.00  0.00    -0.007 A 
HETATM    9  C   UNL     1      28.371  44.872  54.371  1.00  0.00     0.053 A 
HETATM   10  C   UNL     1      29.022  45.118  55.582  1.00  0.00     0.103 A 
HETATM   11  C   UNL     1      30.148  44.377  55.933  1.00  0.00     0.102 A 
HETATM   12  O   UNL     1      28.500  46.114  56.365  1.00  0.00    -0.346 OA
HETATM   13  O   UNL     1      30.857  44.589  57.084  1.00  0.00    -0.346 OA
HETATM   14  C   UNL     1      30.598  43.362  55.093  1.00  0.00     0.040 A 
HETATM   15  C   UNL     1      30.546  45.864  57.662  1.00  0.00     0.202 C 
HETATM   16  C   UNL     1      29.042  46.084  57.693  1.00  0.00     0.202 C 
HETATM   17  C   UNL     1      29.944  43.109  53.883  1.00  0.00     0.016 A 
ENDBRANCH   6   8
BRANCH   3  18
HETATM   18  N   UNL     1      26.587  45.828  49.776  1.00  0.00    -0.372 N 
HETATM   19  H   UNL     1      27.095  46.025  48.909  1.00  0.00     0.161 HD
BRANCH  18  20
HETATM   20  C   UNL     1      26.252  47.070  50.472  1.00  0.00     0.162 C 
BRANCH  20  21
HETATM   21  C   UNL     1      25.864  48.165  49.532  1.00  0.00    -0.005 A 
HETATM   22  C   UNL     1      26.810  48.925  48.871  1.00  0.00     0.128 A 
HETATM   23  N   UNL     1      26.504  49.950  48.057  1.00  0.00    -0.254 NA
HETATM   24  C   UNL     1      25.199  50.172  47.845  1.00  0.00     0.232 A 
HETATM   25  N   UNL     1      24.198  49.488  48.413  1.00  0.00    -0.254 NA
HETATM   26  C   UNL     1      24.553  48.475  49.225  1.00  0.00     0.128 A 
ENDBRANCH  20  21
ENDBRANCH  18  20
ENDBRANCH   3  18
TORSDOF 4
ENDMDL
MODEL 2
REMARK VINA RESULT:      -8.7      1.058      1.945
REMARK  4 active torsions:
REMARK  status: ('A' for Active; 'I' for Inactive)
REMARK    1  A    between atoms: C_3  and  N_4 
REMARK    2  A    between atoms: N_4  and  C_5 
REMARK    3  A    between atoms: C_5  and  C_6 
REMARK    4  A    between atoms: C_14  and  C_15 
ROOT
HETATM    1  C   UNL     1      27.128  41.942  51.273  1.00  0.00     0.006 A 
HETATM    2  C   UNL     1      26.598  42.937  50.457  1.00  0.00     0.048 A 
HETATM    3  C   UNL     1      26.770  44.292  50.782  1.00  0.00     0.101 A 
HETATM    4  N   UNL     1      27.410  44.581  51.926  1.00  0.00    -0.342 N 
HETATM    5  H   UNL     1      27.509  45.551  52.197  1.00  0.00     0.167 HD
HETATM    6  C   UNL     1      27.929  43.653  52.751  1.00  0.00     0.044 A 
HETATM    7  C   UNL     1      27.807  42.302  52.428  1.00  0.00     0.030 A 
ENDROOT
BRANCH   6   8
HETATM    8  C   UNL     1      28.615  44.176  53.931  1.00  0.00    -0.007 A 
HETATM    9  C   UNL     1      29.570  43.395  54.605  1.00  0.00     0.053 A 
HETATM   10  C   UNL     1      30.235  43.884  55.732  1.00  0.00     0.103 A 
HETATM   11  C   UNL     1      29.938  45.153  56.223  1.00  0.00     0.102 A 
HETATM   12  O   UNL     1      31.156  43.049  56.307  1.00  0.00    -0.346 OA
HETATM   13  O   UNL     1      30.522  45.680  57.343  1.00  0.00    -0.346 OA
HETATM   14  C   UNL     1      29.007  45.950  55.563  1.00  0.00     0.040 A 
HETATM   15  C   UNL     1      31.153  44.662  58.131  1.00  0.00     0.202 C 
HETATM   16  C   UNL     1      31.984  43.742  57.251  1.00  0.00     0.202 C 
HETATM   17  C   UNL     1      28.345  45.466  54.429  1.00  0.00     0.016 A 
ENDBRANCH   6   8
BRANCH   3  18
HETATM   18  N   UNL     1      26.172  45.261  49.986  1.00  0.00    -0.372 N 
HETATM   19  H   UNL     1      26.766  45.500  49.188  1.00  0.00     0.161 HD
BRANCH  18  20
HETATM   20  C   UNL     1      25.493  46.451  50.499  1.00  0.00     0.162 C 
BRANCH  20  21
HETATM   21  C   UNL     1      25.863  47.689  49.749  1.00  0.00    -0.005 A 
HETATM   22  C   UNL     1      24.907  48.524  49.206  1.00  0.00     0.128 A 
HETATM   23  N   UNL     1      25.199  49.619  48.484  1.00  0.00    -0.254 NA
HETATM   24  C   UNL     1      26.499  49.923  48.364  1.00  0.00     0.232 A 
HETATM   25  N   UNL     1      27.509  49.201  48.865  1.00  0.00    -0.254 NA
HETATM   26  C   UNL     1      27.168  48.111  49.576  1.00  0.00     0.128 A 
ENDBRANCH  20  21
ENDBRANCH  18  20
ENDBRANCH   3  18
TORSDOF 4
ENDMDL
MODEL 3
REMARK VINA RESULT:      -8.6      1.807      2.821
REMARK  4 active torsions:
REMARK  status: ('A' for Active; 'I' for Inactive)
REMARK    1  A    between atoms: C_3  and  N_4 
REMARK    2  A    between atoms: N_4  and  C_5 
REMARK    3  A    between atoms: C_5  and  C_6 
REMARK    4  A    between atoms: C_14  and  C_15 
ROOT
HETATM    1  C   UNL     1      28.074  41.079  51.309  1.00  0.00     0.006 A 
HETATM    2  C   UNL     1      26.798  41.527  50.980  1.00  0.00     0.048 A 
HETATM    3  C   UNL     1      26.236  42.629  51.644  1.00  0.00     0.101 A 
HETATM    4  N   UNL     1      26.948  43.189  52.634  1.00  0.00    -0.342 N 
HETATM    5  H   UNL     1      26.544  43.959  53.151  1.00  0.00     0.167 HD
HETATM    6  C   UNL     1      28.180  42.782  52.994  1.00  0.00     0.044 A 
HETATM    7  C   UNL     1      28.777  41.717  52.321  1.00  0.00     0.030 A 
ENDROOT
BRANCH   6   8
HETATM    8  C   UNL     1      28.800  43.545  54.076  1.00  0.00    -0.007 A 
HETATM    9  C   UNL     1      29.777  42.953  54.897  1.00  0.00     0.053 A 
HETATM   10  C   UNL     1      30.378  43.671  55.933  1.00  0.00     0.103 A 
HETATM   11  C   UNL     1      29.997  44.987  56.185  1.00  0.00     0.102 A 
HETATM   12  O   UNL     1      31.327  43.007  56.664  1.00  0.00    -0.346 OA
HETATM   13  O   UNL     1      30.516  45.736  57.206  1.00  0.00    -0.346 OA
HETATM   14  C   UNL     1      29.043  45.598  55.376  1.00  0.00     0.040 A 
HETATM   15  C   UNL     1      31.179  44.911  58.175  1.00  0.00     0.202 C 
HETATM   16  C   UNL     1      32.087  43.903  57.488  1.00  0.00     0.202 C 
HETATM   17  C   UNL     1      28.444  44.883  54.334  1.00  0.00     0.016 A 
ENDBRANCH   6   8
BRANCH   3  18
HETATM   18  N   UNL     1      24.934  43.011  51.342  1.00  0.00    -0.372 N 
HETATM   19  H   UNL     1      24.284  42.229  51.460  1.00  0.00     0.161 HD
BRANCH  18  20
HETATM   20  C   UNL     1      24.556  43.827  50.189  1.00  0.00     0.162 C 
BRANCH  20  21
HETATM   21  C   UNL     1      25.194  45.178  50.211  1.00  0.00    -0.005 A 
HETATM   22  C   UNL     1      24.690  46.208  50.982  1.00  0.00     0.128 A 
HETATM   23  N   UNL     1      25.204  47.450  50.992  1.00  0.00    -0.254 NA
HETATM   24  C   UNL     1      26.307  47.643  50.255  1.00  0.00     0.232 A 
HETATM   25  N   UNL     1      26.894  46.715  49.489  1.00  0.00    -0.254 NA
HETATM   26  C   UNL     1      26.341  45.489  49.506  1.00  0.00     0.128 A 
ENDBRANCH  20  21
ENDBRANCH  18  20
ENDBRANCH   3  18
TORSDOF 4
ENDMDL
MODEL 4
REMARK VINA RESULT:      -8.4      3.113      5.804
REMARK  4 active torsions:
REMARK  status: ('A' for Active; 'I' for Inactive)
REMARK    1  A    between atoms: C_3  and  N_4 
REMARK    2  A    between atoms: N_4  and  C_5 
REMARK    3  A    between atoms: C_5  and  C_6 
REMARK    4  A    between atoms: C_14  and  C_15 
ROOT
HETATM    1  C   UNL     1      26.733  49.924  48.336  1.00  0.00     0.006 A 
HETATM    2  C   UNL     1      25.394  50.187  48.059  1.00  0.00     0.048 A 
HETATM    3  C   UNL     1      24.384  49.359  48.575  1.00  0.00     0.101 A 
HETATM    4  N   UNL     1      24.762  48.287  49.289  1.00  0.00    -0.342 N 
HETATM    5  H   UNL     1      24.051  47.656  49.636  1.00  0.00     0.167 HD
HETATM    6  C   UNL     1      26.044  47.988  49.572  1.00  0.00     0.044 A 
HETATM    7  C   UNL     1      27.062  48.818  49.106  1.00  0.00     0.030 A 
ENDROOT
BRANCH   6   8
HETATM    8  C   UNL     1      26.242  46.793  50.391  1.00  0.00    -0.007 A 
HETATM    9  C   UNL     1      25.812  46.768  51.729  1.00  0.00     0.053 A 
HETATM   10  C   UNL     1      25.994  45.632  52.522  1.00  0.00     0.103 A 
HETATM   11  C   UNL     1      26.632  44.509  52.000  1.00  0.00     0.102 A 
HETATM   12  O   UNL     1      25.527  45.705  53.808  1.00  0.00    -0.346 OA
HETATM   13  O   UNL     1      26.877  43.378  52.730  1.00  0.00    -0.346 OA
HETATM   14  C   UNL     1      27.052  44.507  50.673  1.00  0.00     0.040 A 
HETATM   15  C   UNL     1      26.754  43.627  54.137  1.00  0.00     0.202 C 
HETATM   16  C   UNL     1      25.486  44.414  54.433  1.00  0.00     0.202 C 
HETATM   17  C   UNL     1      26.865  45.640  49.875  1.00  0.00     0.016 A 
ENDBRANCH   6   8
BRANCH   3  18
HETATM   18  N   UNL     1      23.062  49.605  48.226  1.00  0.00    -0.372 N 
HETATM   19  H   UNL     1      22.953  49.658  47.210  1.00  0.00     0.161 HD
BRANCH  18  20
HETATM   20  C   UNL     1      22.197  50.579  48.890  1.00  0.00     0.162 C 
BRANCH  20  21
HETATM   21  C   UNL     1      20.947  49.961  49.428  1.00  0.00    -0.005 A 
HETATM   22  C   UNL     1      20.622  48.642  49.179  1.00  0.00     0.128 A 
HETATM   23  N   UNL     1      19.485  48.063  49.602  1.00  0.00    -0.254 NA
HETATM   24  C   UNL     1      18.681  48.819  50.363  1.00  0.00     0.232 A 
HETATM   25  N   UNL     1      18.904  50.099  50.686  1.00  0.00    -0.254 NA
HETATM   26  C   UNL     1      20.052  50.637  50.235  1.00  0.00     0.128 A 
ENDBRANCH  20  21
ENDBRANCH  18  20
ENDBRANCH   3  18
TORSDOF 4
ENDMDL
MODEL 5
REMARK VINA RESULT:      -8.3      2.792      4.805
REMARK  4 active torsions:
REMARK  status: ('A' for Active; 'I' for Inactive)
REMARK    1  A    between atoms: C_3  and  N_4 
REMARK    2  A    between atoms: N_4  and  C_5 
REMARK    3  A    between atoms: C_5  and  C_6 
REMARK    4  A    between atoms: C_14  and  C_15 
ROOT
HETATM    1  C   UNL     1      25.745  47.258  52.994  1.00  0.00     0.006 A 
HETATM    2  C   UNL     1      25.199  46.430  52.017  1.00  0.00     0.048 A 
HETATM    3  C   UNL     1      25.668  45.118  51.851  1.00  0.00     0.101 A 
HETATM    4  N   UNL     1      26.690  44.719  52.626  1.00  0.00    -0.342 N 
HETATM    5  H   UNL     1      27.068  43.790  52.493  1.00  0.00     0.167 HD
HETATM    6  C   UNL     1      27.256  45.488  53.575  1.00  0.00     0.044 A 
HETATM    7  C   UNL     1      26.779  46.780  53.787  1.00  0.00     0.030 A 
ENDROOT
BRANCH   6   8
HETATM    8  C   UNL     1      28.335  44.856  54.331  1.00  0.00    -0.007 A 
HETATM    9  C   UNL     1      28.844  45.466  55.491  1.00  0.00     0.053 A 
HETATM   10  C   UNL     1      29.873  44.871  56.225  1.00  0.00     0.103 A 
HETATM   11  C   UNL     1      30.431  43.668  55.798  1.00  0.00     0.102 A 
HETATM   12  O   UNL     1      30.288  45.539  57.346  1.00  0.00    -0.346 OA
HETATM   13  O   UNL     1      31.466  43.050  56.446  1.00  0.00    -0.346 OA
HETATM   14  C   UNL     1      29.933  43.038  54.662  1.00  0.00     0.040 A 
HETATM   15  C   UNL     1      32.131  43.947  57.346  1.00  0.00     0.202 C 
HETATM   16  C   UNL     1      31.118  44.717  58.179  1.00  0.00     0.202 C 
HETATM   17  C   UNL     1      28.897  43.628  53.929  1.00  0.00     0.016 A 
ENDBRANCH   6   8
BRANCH   3  18
HETATM   18  N   UNL     1      25.152  44.338  50.823  1.00  0.00    -0.372 N 
HETATM   19  H   UNL     1      24.373  44.811  50.358  1.00  0.00     0.161 HD
BRANCH  18  20
HETATM   20  C   UNL     1      24.900  42.901  50.920  1.00  0.00     0.162 C 
BRANCH  20  21
HETATM   21  C   UNL     1      25.996  42.086  50.312  1.00  0.00    -0.005 A 
HETATM   22  C   UNL     1      26.574  42.429  49.106  1.00  0.00     0.128 A 
HETATM   23  N   UNL     1      27.527  41.697  48.502  1.00  0.00    -0.254 NA
HETATM   24  C   UNL     1      27.963  40.620  49.172  1.00  0.00     0.232 A 
HETATM   25  N   UNL     1      27.493  40.206  50.355  1.00  0.00    -0.254 NA
HETATM   26  C   UNL     1      26.536  40.967  50.917  1.00  0.00     0.128 A 
ENDBRANCH  20  21
ENDBRANCH  18  20
ENDBRANCH   3  18
TORSDOF 4
ENDMDL
MODEL 6
REMARK VINA RESULT:      -8.3      1.625      2.050
REMARK  4 active torsions:
REMARK  status: ('A' for Active; 'I' for Inactive)
REMARK    1  A    between atoms: C_3  and  N_4 
REMARK    2  A    between atoms: N_4  and  C_5 
REMARK    3  A    between atoms: C_5  and  C_6 
REMARK    4  A    between atoms: C_14  and  C_15 
ROOT
HETATM    1  C   UNL     1      24.422  43.337  50.785  1.00  0.00     0.006 A 
HETATM    2  C   UNL     1      23.975  44.621  50.482  1.00  0.00     0.048 A 
HETATM    3  C   UNL     1      24.597  45.744  51.048  1.00  0.00     0.101 A 
HETATM    4  N   UNL     1      25.590  45.529  51.927  1.00  0.00    -0.342 N 
HETATM    5  H   UNL     1      26.024  46.325  52.376  1.00  0.00     0.167 HD
HETATM    6  C   UNL     1      26.047  44.307  52.258  1.00  0.00     0.044 A 
HETATM    7  C   UNL     1      25.473  43.178  51.676  1.00  0.00     0.030 A 
ENDROOT
BRANCH   6   8
HETATM    8  C   UNL     1      27.156  44.290  53.210  1.00  0.00    -0.007 A 
HETATM    9  C   UNL     1      27.242  45.263  54.222  1.00  0.00     0.053 A 
HETATM   10  C   UNL     1      28.295  45.257  55.139  1.00  0.00     0.103 A 
HETATM   11  C   UNL     1      29.298  44.294  55.046  1.00  0.00     0.102 A 
HETATM   12  O   UNL     1      28.279  46.238  56.094  1.00  0.00    -0.346 OA
HETATM   13  O   UNL     1      30.378  44.252  55.885  1.00  0.00    -0.346 OA
HETATM   14  C   UNL     1      29.226  43.313  54.061  1.00  0.00     0.040 A 
HETATM   15  C   UNL     1      30.543  45.491  56.587  1.00  0.00     0.202 C 
HETATM   16  C   UNL     1      29.214  45.970  57.149  1.00  0.00     0.202 C 
HETATM   17  C   UNL     1      28.168  43.312  53.146  1.00  0.00     0.016 A 
ENDBRANCH   6   8
BRANCH   3  18
HETATM   18  N   UNL     1      24.087  47.009  50.781  1.00  0.00    -0.372 N 
HETATM   19  H   UNL     1      23.226  47.177  51.309  1.00  0.00     0.161 HD
BRANCH  18  20
HETATM   20  C   UNL     1      24.001  47.603  49.448  1.00  0.00     0.162 C 
BRANCH  20  21
HETATM   21  C   UNL     1      25.180  48.463  49.128  1.00  0.00    -0.005 A 
HETATM   22  C   UNL     1      25.067  49.582  48.325  1.00  0.00     0.128 A 
HETATM   23  N   UNL     1      26.111  50.353  47.974  1.00  0.00    -0.254 NA
HETATM   24  C   UNL     1      27.297  50.028  48.507  1.00  0.00     0.232 A 
HETATM   25  N   UNL     1      27.519  48.982  49.313  1.00  0.00    -0.254 NA
HETATM   26  C   UNL     1      26.446  48.235  49.632  1.00  0.00     0.128 A 
ENDBRANCH  20  21
ENDBRANCH  18  20
ENDBRANCH   3  18
TORSDOF 4
ENDMDL
MODEL 7
REMARK VINA RESULT:      -8.3      3.648      6.202
REMARK  4 active torsions:
REMARK  status: ('A' for Active; 'I' for Inactive)
REMARK    1  A    between atoms: C_3  and  N_4 
REMARK    2  A    between atoms: N_4  and  C_5 
REMARK    3  A    between atoms: C_5  and  C_6 
REMARK    4  A    between atoms: C_14  and  C_15 
ROOT
HETATM    1  C   UNL     1      26.158  44.363  51.040  1.00  0.00     0.006 A 
HETATM    2  C   UNL     1      26.103  42.980  50.892  1.00  0.00     0.048 A 
HETATM    3  C   UNL     1      26.753  42.139  51.808  1.00  0.00     0.101 A 
HETATM    4  N   UNL     1      27.468  42.717  52.786  1.00  0.00    -0.342 N 
HETATM    5  H   UNL     1      27.976  42.128  53.433  1.00  0.00     0.167 HD
HETATM    6  C   UNL     1      27.558  44.049  52.961  1.00  0.00     0.044 A 
HETATM    7  C   UNL     1      26.886  44.904  52.090  1.00  0.00     0.030 A 
ENDROOT
BRANCH   6   8
HETATM    8  C   UNL     1      28.360  44.476  54.106  1.00  0.00    -0.007 A 
HETATM    9  C   UNL     1      29.314  43.611  54.671  1.00  0.00     0.053 A 
HETATM   10  C   UNL     1      30.089  44.008  55.763  1.00  0.00     0.103 A 
HETATM   11  C   UNL     1      29.906  45.268  56.329  1.00  0.00     0.102 A 
HETATM   12  O   UNL     1      30.999  43.097  56.230  1.00  0.00    -0.346 OA
HETATM   13  O   UNL     1      30.603  45.708  57.422  1.00  0.00    -0.346 OA
HETATM   14  C   UNL     1      28.979  46.147  55.777  1.00  0.00     0.040 A 
HETATM   15  C   UNL     1      31.228  44.619  58.116  1.00  0.00     0.202 C 
HETATM   16  C   UNL     1      31.935  43.696  57.136  1.00  0.00     0.202 C 
HETATM   17  C   UNL     1      28.207  45.755  54.678  1.00  0.00     0.016 A 
ENDBRANCH   6   8
BRANCH   3  18
HETATM   18  N   UNL     1      26.739  40.765  51.596  1.00  0.00    -0.372 N 
HETATM   19  H   UNL     1      27.639  40.345  51.843  1.00  0.00     0.161 HD
BRANCH  18  20
HETATM   20  C   UNL     1      26.172  40.115  50.415  1.00  0.00     0.162 C 
BRANCH  20  21
HETATM   21  C   UNL     1      27.185  39.318  49.659  1.00  0.00    -0.005 A 
HETATM   22  C   UNL     1      26.850  38.150  49.002  1.00  0.00     0.128 A 
HETATM   23  N   UNL     1      27.740  37.380  48.353  1.00  0.00    -0.254 NA
HETATM   24  C   UNL     1      28.999  37.839  48.304  1.00  0.00     0.232 A 
HETATM   25  N   UNL     1      29.432  38.965  48.883  1.00  0.00    -0.254 NA
HETATM   26  C   UNL     1      28.507  39.700  49.526  1.00  0.00     0.128 A 
ENDBRANCH  20  21
ENDBRANCH  18  20
ENDBRANCH   3  18
TORSDOF 4
ENDMDL
MODEL 8
REMARK VINA RESULT:      -8.2      4.734      9.627
REMARK  4 active torsions:
REMARK  status: ('A' for Active; 'I' for Inactive)
REMARK    1  A    between atoms: C_3  and  N_4 
REMARK    2  A    between atoms: N_4  and  C_5 
REMARK    3  A    between atoms: C_5  and  C_6 
REMARK    4  A    between atoms: C_14  and  C_15 
ROOT
HETATM    1  C   UNL     1      26.516  49.707  48.352  1.00  0.00     0.006 A 
HETATM    2  C   UNL     1      26.832  48.615  49.157  1.00  0.00     0.048 A 
HETATM    3  C   UNL     1      25.818  47.872  49.781  1.00  0.00     0.101 A 
HETATM    4  N   UNL     1      24.552  48.287  49.617  1.00  0.00    -0.342 N 
HETATM    5  H   UNL     1      23.810  47.788  50.091  1.00  0.00     0.167 HD
HETATM    6  C   UNL     1      24.200  49.342  48.858  1.00  0.00     0.044 A 
HETATM    7  C   UNL     1      25.186  50.070  48.194  1.00  0.00     0.030 A 
ENDROOT
BRANCH   6   8
HETATM    8  C   UNL     1      22.765  49.610  48.784  1.00  0.00    -0.007 A 
HETATM    9  C   UNL     1      21.835  48.592  49.061  1.00  0.00     0.053 A 
HETATM   10  C   UNL     1      20.461  48.835  48.997  1.00  0.00     0.103 A 
HETATM   11  C   UNL     1      19.990  50.093  48.628  1.00  0.00     0.102 A 
HETATM   12  O   UNL     1      19.640  47.781  49.299  1.00  0.00    -0.346 OA
HETATM   13  O   UNL     1      18.660  50.390  48.507  1.00  0.00    -0.346 OA
HETATM   14  C   UNL     1      20.892  51.120  48.364  1.00  0.00     0.040 A 
HETATM   15  C   UNL     1      17.863  49.200  48.429  1.00  0.00     0.202 C 
HETATM   16  C   UNL     1      18.284  48.203  49.497  1.00  0.00     0.202 C 
HETATM   17  C   UNL     1      22.269  50.881  48.435  1.00  0.00     0.016 A 
ENDBRANCH   6   8
BRANCH   3  18
HETATM   18  N   UNL     1      26.166  46.831  50.633  1.00  0.00    -0.372 N 
HETATM   19  H   UNL     1      26.459  46.005  50.104  1.00  0.00     0.161 HD
BRANCH  18  20
HETATM   20  C   UNL     1      25.406  46.442  51.820  1.00  0.00     0.162 C 
BRANCH  20  21
HETATM   21  C   UNL     1      26.255  46.377  53.047  1.00  0.00    -0.005 A 
HETATM   22  C   UNL     1      26.324  47.427  53.942  1.00  0.00     0.128 A 
HETATM   23  N   UNL     1      27.112  47.427  55.031  1.00  0.00    -0.254 NA
HETATM   24  C   UNL     1      27.803  46.302  55.264  1.00  0.00     0.232 A 
HETATM   25  N   UNL     1      27.797  45.217  54.480  1.00  0.00    -0.254 NA
HETATM   26  C   UNL     1      26.997  45.266  53.400  1.00  0.00     0.128 A 
ENDBRANCH  20  21
ENDBRANCH  18  20
ENDBRANCH   3  18
TORSDOF 4
ENDMDL
MODEL 9
REMARK VINA RESULT:      -8.2      6.129     11.130
REMARK  4 active torsions:
REMARK  status: ('A' for Active; 'I' for Inactive)
REMARK    1  A    between atoms: C_3  and  N_4 
REMARK    2  A    between atoms: N_4  and  C_5 
REMARK    3  A    between atoms: C_5  and  C_6 
REMARK    4  A    between atoms: C_14  and  C_15 
ROOT
HETATM    1  C   UNL     1      24.347  50.289  48.025  1.00  0.00     0.006 A 
HETATM    2  C   UNL     1      24.560  49.156  48.805  1.00  0.00     0.048 A 
HETATM    3  C   UNL     1      23.480  48.492  49.407  1.00  0.00     0.101 A 
HETATM    4  N   UNL     1      22.256  49.021  49.248  1.00  0.00    -0.342 N 
HETATM    5  H   UNL     1      21.470  48.579  49.707  1.00  0.00     0.167 HD
HETATM    6  C   UNL     1      22.005  50.121  48.512  1.00  0.00     0.044 A 
HETATM    7  C   UNL     1      23.056  50.773  47.870  1.00  0.00     0.030 A 
ENDROOT
BRANCH   6   8
HETATM    8  C   UNL     1      20.600  50.517  48.439  1.00  0.00    -0.007 A 
HETATM    9  C   UNL     1      19.601  49.559  48.190  1.00  0.00     0.053 A 
HETATM   10  C   UNL     1      18.255  49.923  48.119  1.00  0.00     0.103 A 
HETATM   11  C   UNL     1      17.883  51.257  48.270  1.00  0.00     0.102 A 
HETATM   12  O   UNL     1      17.360  48.912  47.887  1.00  0.00    -0.346 OA
HETATM   13  O   UNL     1      16.588  51.690  48.175  1.00  0.00    -0.346 OA
HETATM   14  C   UNL     1      18.853  52.221  48.532  1.00  0.00     0.040 A 
HETATM   15  C   UNL     1      15.754  50.710  47.543  1.00  0.00     0.202 C 
HETATM   16  C   UNL     1      16.010  49.331  48.130  1.00  0.00     0.202 C 
HETATM   17  C   UNL     1      20.201  51.857  48.610  1.00  0.00     0.016 A 
ENDBRANCH   6   8
BRANCH   3  18
HETATM   18  N   UNL     1      23.728  47.404  50.235  1.00  0.00    -0.372 N 
HETATM   19  H   UNL     1      23.227  47.495  51.123  1.00  0.00     0.161 HD
BRANCH  18  20
HETATM   20  C   UNL     1      25.047  46.807  50.446  1.00  0.00     0.162 C 
BRANCH  20  21
HETATM   21  C   UNL     1      25.178  46.172  51.792  1.00  0.00    -0.005 A 
HETATM   22  C   UNL     1      25.663  46.869  52.882  1.00  0.00     0.128 A 
HETATM   23  N   UNL     1      25.842  46.321  54.096  1.00  0.00    -0.254 NA
HETATM   24  C   UNL     1      25.454  45.046  54.236  1.00  0.00     0.232 A 
HETATM   25  N   UNL     1      24.951  44.281  53.258  1.00  0.00    -0.254 NA
HETATM   26  C   UNL     1      24.796  44.871  52.059  1.00  0.00     0.128 A 
ENDBRANCH  20  21
ENDBRANCH  18  20
ENDBRANCH   3  18
TORSDOF 4
ENDMDL
MODEL 10
REMARK VINA RESULT:      -8.1      3.842      7.942
REMARK  4 active torsions:
REMARK  status: ('A' for Active; 'I' for Inactive)
REMARK    1  A    between atoms: C_3  and  N_4 
REMARK    2  A    between atoms: N_4  and  C_5 
REMARK    3  A    between atoms: C_5  and  C_6 
REMARK    4  A    between atoms: C_14  and  C_15 
ROOT
HETATM    1  C   UNL     1      27.881  41.315  52.229  1.00  0.00     0.006 A 
HETATM    2  C   UNL     1      29.009  41.692  52.952  1.00  0.00     0.048 A 
HETATM    3  C   UNL     1      29.248  43.043  53.246  1.00  0.00     0.101 A 
HETATM    4  N   UNL     1      28.384  43.949  52.759  1.00  0.00    -0.342 N 
HETATM    5  H   UNL     1      28.561  44.931  52.927  1.00  0.00     0.167 HD
HETATM    6  C   UNL     1      27.287  43.631  52.046  1.00  0.00     0.044 A 
HETATM    7  C   UNL     1      27.006  42.292  51.777  1.00  0.00     0.030 A 
ENDROOT
BRANCH   6   8
HETATM    8  C   UNL     1      26.458  44.763  51.635  1.00  0.00    -0.007 A 
HETATM    9  C   UNL     1      25.632  44.666  50.501  1.00  0.00     0.053 A 
HETATM   10  C   UNL     1      24.833  45.738  50.099  1.00  0.00     0.103 A 
HETATM   11  C   UNL     1      24.865  46.938  50.807  1.00  0.00     0.102 A 
HETATM   12  O   UNL     1      24.055  45.537  48.990  1.00  0.00    -0.346 OA
HETATM   13  O   UNL     1      24.138  48.040  50.447  1.00  0.00    -0.346 OA
HETATM   14  C   UNL     1      25.663  47.051  51.941  1.00  0.00     0.040 A 
HETATM   15  C   UNL     1      23.669  47.939  49.095  1.00  0.00     0.202 C 
HETATM   16  C   UNL     1      23.067  46.566  48.840  1.00  0.00     0.202 C 
HETATM   17  C   UNL     1      26.459  45.976  52.350  1.00  0.00     0.016 A 
ENDBRANCH   6   8
BRANCH   3  18
HETATM   18  N   UNL     1      30.417  43.397  53.909  1.00  0.00    -0.372 N 
HETATM   19  H   UNL     1      31.211  43.425  53.265  1.00  0.00     0.161 HD
BRANCH  18  20
HETATM   20  C   UNL     1      30.824  42.867  55.210  1.00  0.00     0.162 C 
BRANCH  20  21
HETATM   21  C   UNL     1      30.789  43.903  56.286  1.00  0.00    -0.005 A 
HETATM   22  C   UNL     1      30.038  45.055  56.163  1.00  0.00     0.128 A 
HETATM   23  N   UNL     1      30.018  46.033  57.085  1.00  0.00    -0.254 NA
HETATM   24  C   UNL     1      30.724  45.810  58.203  1.00  0.00     0.232 A 
HETATM   25  N   UNL     1      31.470  44.724  58.440  1.00  0.00    -0.254 NA
HETATM   26  C   UNL     1      31.463  43.775  57.486  1.00  0.00     0.128 A 
ENDBRANCH  20  21
ENDBRANCH  18  20
ENDBRANCH   3  18
TORSDOF 4
ENDMDL
