MODEL 1
REMARK VINA RESULT:     -10.6      0.000      0.000
REMARK  5 active torsions:
REMARK  status: ('A' for Active; 'I' for Inactive)
REMARK    1  A    between atoms: C_5  and  N_6 
REMARK       I    between atoms: N_6  and  C_7 
REMARK       I    between atoms: C_7  and  N_8 
REMARK    2  A    between atoms: N_8  and  C_9 
REMARK    3  A    between atoms: C_11  and  C_12 
REMARK       I    between atoms: C_12  and  N_13 
REMARK    4  A    between atoms: N_13  and  C_14 
REMARK    5  A    between atoms: C_14  and  C_15 
ROOT
HETATM    1  C   UNL     1      24.605  46.203  50.611  1.00  0.00     0.175 A 
HETATM    2  S   UNL     1      24.565  44.669  51.326  1.00  0.00    -0.044 SA
HETATM    3  C   UNL     1      25.104  45.341  52.810  1.00  0.00     0.100 A 
HETATM    4  C   UNL     1      25.380  46.693  52.607  1.00  0.00     0.056 A 
HETATM    5  C   UNL     1      25.947  47.646  53.604  1.00  0.00     0.072 C 
HETATM    6  N   UNL     1      25.071  47.183  51.340  1.00  0.00    -0.228 NA
ENDROOT
BRANCH   1   7
HETATM    7  N   UNL     1      24.134  46.241  49.336  1.00  0.00    -0.287 N 
HETATM    8  C   UNL     1      23.227  47.121  48.824  1.00  0.00     0.326 C 
HETATM    9  N   UNL     1      22.804  48.130  49.645  1.00  0.00    -0.309 N 
HETATM   10  O   UNL     1      22.877  46.942  47.657  1.00  0.00    -0.247 OA
HETATM   11  H   UNL     1      23.262  48.169  50.553  1.00  0.00     0.170 HD
HETATM   12  H   UNL     1      24.439  45.525  48.695  1.00  0.00     0.172 HD
BRANCH   9  13
HETATM   13  C   UNL     1      21.871  49.145  49.358  1.00  0.00     0.036 A 
HETATM   14  C   UNL     1      20.488  48.981  49.459  1.00  0.00     0.030 A 
HETATM   15  C   UNL     1      19.622  50.036  49.154  1.00  0.00     0.009 A 
HETATM   16  C   UNL     1      20.123  51.274  48.739  1.00  0.00    -0.062 A 
HETATM   17  C   UNL     1      19.178  52.382  48.383  1.00  0.00     0.048 C 
HETATM   18  C   UNL     1      21.507  51.440  48.635  1.00  0.00     0.009 A 
HETATM   19  C   UNL     1      22.373  50.386  48.953  1.00  0.00     0.030 A 
ENDBRANCH   9  13
ENDBRANCH   1   7
BRANCH   3  20
HETATM   20  C   UNL     1      25.342  44.571  54.021  1.00  0.00     0.260 C 
HETATM   21  N   UNL     1      26.603  44.208  54.435  1.00  0.00    -0.352 N 
HETATM   22  H   UNL     1      26.581  43.724  55.327  1.00  0.00     0.163 HD
HETATM   23  O   UNL     1      24.413  44.172  54.727  1.00  0.00    -0.267 OA
BRANCH  21  24
HETATM   24  C   UNL     1      27.896  44.414  53.816  1.00  0.00     0.167 C 
BRANCH  24  25
HETATM   25  C   UNL     1      29.078  44.372  54.743  1.00  0.00     0.037 A 
HETATM   26  C   UNL     1      29.310  45.472  55.578  1.00  0.00     0.127 A 
HETATM   27  F   UNL     1      28.513  46.547  55.492  1.00  0.00    -0.205 F 
HETATM   28  C   UNL     1      30.341  45.482  56.517  1.00  0.00     0.043 A 
HETATM   29  C   UNL     1      31.166  44.369  56.647  1.00  0.00     0.006 A 
HETATM   30  C   UNL     1      30.947  43.256  55.838  1.00  0.00     0.043 A 
HETATM   31  C   UNL     1      29.908  43.264  54.906  1.00  0.00     0.127 A 
HETATM   32  F   UNL     1      29.718  42.165  54.161  1.00  0.00    -0.205 F 
ENDBRANCH  24  25
ENDBRANCH  21  24
ENDBRANCH   3  20
TORSDOF 5
ENDMDL
MODEL 2
REMARK VINA RESULT:     -10.1      1.343      2.259
REMARK  5 active torsions:
REMARK  status: ('A' for Active; 'I' for Inactive)
REMARK    1  A    between atoms: C_5  and  N_6 
REMARK       I    between atoms: N_6  and  C_7 
REMARK       I    between atoms: C_7  and  N_8 
REMARK    2  A    between atoms: N_8  and  C_9 
REMARK    3  A    between atoms: C_11  and  C_12 
REMARK       I    between atoms: C_12  and  N_13 
REMARK    4  A    between atoms: N_13  and  C_14 
REMARK    5  A    between atoms: C_14  and  C_15 
ROOT
HETATM    1  C   UNL     1      25.441  46.804  50.480  1.00  0.00     0.175 A 
HETATM    2  S   UNL     1      25.775  47.002  52.128  1.00  0.00    -0.044 SA
HETATM    3  C   UNL     1      25.405  45.350  52.407  1.00  0.00     0.100 A 
HETATM    4  C   UNL     1      24.942  44.795  51.214  1.00  0.00     0.056 A 
HETATM    5  C   UNL     1      24.434  43.407  51.017  1.00  0.00     0.072 C 
HETATM    6  N   UNL     1      24.986  45.637  50.106  1.00  0.00    -0.228 NA
ENDROOT
BRANCH   1   7
HETATM    7  N   UNL     1      25.696  47.901  49.718  1.00  0.00    -0.287 N 
HETATM    8  C   UNL     1      24.780  48.768  49.199  1.00  0.00     0.326 C 
HETATM    9  N   UNL     1      23.471  48.575  49.545  1.00  0.00    -0.309 N 
HETATM   10  O   UNL     1      25.213  49.664  48.474  1.00  0.00    -0.247 OA
HETATM   11  H   UNL     1      23.308  47.831  50.220  1.00  0.00     0.170 HD
HETATM   12  H   UNL     1      26.652  48.088  49.459  1.00  0.00     0.172 HD
BRANCH   9  13
HETATM   13  C   UNL     1      22.348  49.318  49.133  1.00  0.00     0.036 A 
HETATM   14  C   UNL     1      21.567  48.993  48.023  1.00  0.00     0.030 A 
HETATM   15  C   UNL     1      20.466  49.783  47.672  1.00  0.00     0.009 A 
HETATM   16  C   UNL     1      20.130  50.913  48.424  1.00  0.00    -0.062 A 
HETATM   17  C   UNL     1      18.967  51.766  48.013  1.00  0.00     0.048 C 
HETATM   18  C   UNL     1      20.912  51.241  49.535  1.00  0.00     0.009 A 
HETATM   19  C   UNL     1      22.006  50.442  49.891  1.00  0.00     0.030 A 
ENDBRANCH   9  13
ENDBRANCH   1   7
BRANCH   3  20
HETATM   20  C   UNL     1      25.456  44.708  53.711  1.00  0.00     0.260 C 
HETATM   21  N   UNL     1      26.637  44.342  54.315  1.00  0.00    -0.352 N 
HETATM   22  H   UNL     1      26.482  43.960  55.242  1.00  0.00     0.163 HD
HETATM   23  O   UNL     1      24.429  44.427  54.334  1.00  0.00    -0.267 OA
BRANCH  21  24
HETATM   24  C   UNL     1      28.004  44.426  53.844  1.00  0.00     0.167 C 
BRANCH  24  25
HETATM   25  C   UNL     1      29.064  44.395  54.909  1.00  0.00     0.037 A 
HETATM   26  C   UNL     1      29.939  43.302  54.948  1.00  0.00     0.127 A 
HETATM   27  F   UNL     1      29.777  42.295  54.078  1.00  0.00    -0.205 F 
HETATM   28  C   UNL     1      30.992  43.232  55.859  1.00  0.00     0.043 A 
HETATM   29  C   UNL     1      31.200  44.276  56.755  1.00  0.00     0.006 A 
HETATM   30  C   UNL     1      30.352  45.382  56.727  1.00  0.00     0.043 A 
HETATM   31  C   UNL     1      29.304  45.434  55.806  1.00  0.00     0.127 A 
HETATM   32  F   UNL     1      28.524  46.525  55.798  1.00  0.00    -0.205 F 
ENDBRANCH  24  25
ENDBRANCH  21  24
ENDBRANCH   3  20
TORSDOF 5
ENDMDL
MODEL 3
REMARK VINA RESULT:      -9.5      2.029      3.090
REMARK  5 active torsions:
REMARK  status: ('A' for Active; 'I' for Inactive)
REMARK    1  A    between atoms: C_5  and  N_6 
REMARK       I    between atoms: N_6  and  C_7 
REMARK       I    between atoms: C_7  and  N_8 
REMARK    2  A    between atoms: N_8  and  C_9 
REMARK    3  A    between atoms: C_11  and  C_12 
REMARK       I    between atoms: C_12  and  N_13 
REMARK    4  A    between atoms: N_13  and  C_14 
REMARK    5  A    between atoms: C_14  and  C_15 
ROOT
HETATM    1  C   UNL     1      24.926  46.834  49.756  1.00  0.00     0.175 A 
HETATM    2  S   UNL     1      26.108  46.128  50.743  1.00  0.00    -0.044 SA
HETATM    3  C   UNL     1      25.188  44.681  50.816  1.00  0.00     0.100 A 
HETATM    4  C   UNL     1      23.977  44.894  50.158  1.00  0.00     0.056 A 
HETATM    5  C   UNL     1      22.843  43.933  50.047  1.00  0.00     0.072 C 
HETATM    6  N   UNL     1      23.845  46.133  49.535  1.00  0.00    -0.228 NA
ENDROOT
BRANCH   1   7
HETATM    7  N   UNL     1      25.246  48.073  49.294  1.00  0.00    -0.287 N 
HETATM    8  C   UNL     1      24.381  49.078  48.980  1.00  0.00     0.326 C 
HETATM    9  N   UNL     1      23.054  48.863  49.234  1.00  0.00    -0.309 N 
HETATM   10  O   UNL     1      24.871  50.105  48.509  1.00  0.00    -0.247 OA
HETATM   11  H   UNL     1      22.841  47.984  49.701  1.00  0.00     0.170 HD
HETATM   12  H   UNL     1      26.217  48.276  49.114  1.00  0.00     0.172 HD
BRANCH   9  13
HETATM   13  C   UNL     1      21.973  49.732  48.987  1.00  0.00     0.036 A 
HETATM   14  C   UNL     1      21.373  49.889  47.737  1.00  0.00     0.030 A 
HETATM   15  C   UNL     1      20.304  50.776  47.568  1.00  0.00     0.009 A 
HETATM   16  C   UNL     1      19.818  51.522  48.646  1.00  0.00    -0.062 A 
HETATM   17  C   UNL     1      18.694  52.492  48.438  1.00  0.00     0.048 C 
HETATM   18  C   UNL     1      20.420  51.367  49.898  1.00  0.00     0.009 A 
HETATM   19  C   UNL     1      21.482  50.471  50.068  1.00  0.00     0.030 A 
ENDBRANCH   9  13
ENDBRANCH   1   7
BRANCH   3  20
HETATM   20  C   UNL     1      25.584  43.495  51.560  1.00  0.00     0.260 C 
HETATM   21  N   UNL     1      25.584  43.446  52.935  1.00  0.00    -0.352 N 
HETATM   22  H   UNL     1      25.834  42.524  53.278  1.00  0.00     0.163 HD
HETATM   23  O   UNL     1      25.974  42.474  50.990  1.00  0.00    -0.267 OA
BRANCH  21  24
HETATM   24  C   UNL     1      25.287  44.469  53.917  1.00  0.00     0.167 C 
BRANCH  24  25
HETATM   25  C   UNL     1      26.467  45.248  54.425  1.00  0.00     0.037 A 
HETATM   26  C   UNL     1      27.608  44.544  54.829  1.00  0.00     0.127 A 
HETATM   27  F   UNL     1      27.600  43.204  54.805  1.00  0.00    -0.205 F 
HETATM   28  C   UNL     1      28.769  45.195  55.244  1.00  0.00     0.043 A 
HETATM   29  C   UNL     1      28.814  46.586  55.252  1.00  0.00     0.006 A 
HETATM   30  C   UNL     1      27.696  47.311  54.841  1.00  0.00     0.043 A 
HETATM   31  C   UNL     1      26.544  46.640  54.426  1.00  0.00     0.127 A 
HETATM   32  F   UNL     1      25.498  47.374  54.019  1.00  0.00    -0.205 F 
ENDBRANCH  24  25
ENDBRANCH  21  24
ENDBRANCH   3  20
TORSDOF 5
ENDMDL
MODEL 4
REMARK VINA RESULT:      -9.2      3.517     10.160
REMARK  5 active torsions:
REMARK  status: ('A' for Active; 'I' for Inactive)
REMARK    1  A    between atoms: C_5  and  N_6 
REMARK       I    between atoms: N_6  and  C_7 
REMARK       I    between atoms: C_7  and  N_8 
REMARK    2  A    between atoms: N_8  and  C_9 
REMARK    3  A    between atoms: C_11  and  C_12 
REMARK       I    between atoms: C_12  and  N_13 
REMARK    4  A    between atoms: N_13  and  C_14 
REMARK    5  A    between atoms: C_14  and  C_15 
ROOT
HETATM    1  C   UNL     1      25.198  46.813  50.527  1.00  0.00     0.175 A 
HETATM    2  S   UNL     1      23.921  47.661  49.807  1.00  0.00    -0.044 SA
HETATM    3  C   UNL     1      25.043  48.716  49.049  1.00  0.00     0.100 A 
HETATM    4  C   UNL     1      26.323  48.397  49.501  1.00  0.00     0.056 A 
HETATM    5  C   UNL     1      27.589  49.108  49.164  1.00  0.00     0.072 C 
HETATM    6  N   UNL     1      26.402  47.286  50.338  1.00  0.00    -0.228 NA
ENDROOT
BRANCH   1   7
HETATM    7  N   UNL     1      24.817  45.713  51.228  1.00  0.00    -0.287 N 
HETATM    8  C   UNL     1      25.567  45.014  52.127  1.00  0.00     0.326 C 
HETATM    9  N   UNL     1      26.805  45.512  52.429  1.00  0.00    -0.309 N 
HETATM   10  O   UNL     1      25.059  43.999  52.604  1.00  0.00    -0.247 OA
HETATM   11  H   UNL     1      27.027  46.406  51.998  1.00  0.00     0.170 HD
HETATM   12  H   UNL     1      23.903  45.328  51.048  1.00  0.00     0.172 HD
BRANCH   9  13
HETATM   13  C   UNL     1      27.765  44.972  53.306  1.00  0.00     0.036 A 
HETATM   14  C   UNL     1      28.039  45.491  54.573  1.00  0.00     0.030 A 
HETATM   15  C   UNL     1      29.011  44.901  55.388  1.00  0.00     0.009 A 
HETATM   16  C   UNL     1      29.728  43.784  54.950  1.00  0.00    -0.062 A 
HETATM   17  C   UNL     1      30.789  43.186  55.824  1.00  0.00     0.048 C 
HETATM   18  C   UNL     1      29.456  43.264  53.681  1.00  0.00     0.009 A 
HETATM   19  C   UNL     1      28.474  43.848  52.871  1.00  0.00     0.030 A 
ENDBRANCH   9  13
ENDBRANCH   1   7
BRANCH   3  20
HETATM   20  C   UNL     1      24.670  49.826  48.186  1.00  0.00     0.260 C 
HETATM   21  N   UNL     1      23.522  50.561  48.374  1.00  0.00    -0.352 N 
HETATM   22  H   UNL     1      23.454  51.328  47.714  1.00  0.00     0.163 HD
HETATM   23  O   UNL     1      25.356  50.148  47.213  1.00  0.00    -0.267 OA
BRANCH  21  24
HETATM   24  C   UNL     1      22.450  50.408  49.336  1.00  0.00     0.167 C 
BRANCH  24  25
HETATM   25  C   UNL     1      21.092  50.121  48.760  1.00  0.00     0.037 A 
HETATM   26  C   UNL     1      20.011  50.908  49.175  1.00  0.00     0.127 A 
HETATM   27  F   UNL     1      20.200  51.853  50.107  1.00  0.00    -0.205 F 
HETATM   28  C   UNL     1      18.734  50.753  48.635  1.00  0.00     0.043 A 
HETATM   29  C   UNL     1      18.516  49.798  47.646  1.00  0.00     0.006 A 
HETATM   30  C   UNL     1      19.578  49.012  47.205  1.00  0.00     0.043 A 
HETATM   31  C   UNL     1      20.849  49.185  47.756  1.00  0.00     0.127 A 
HETATM   32  F   UNL     1      21.849  48.422  47.290  1.00  0.00    -0.205 F 
ENDBRANCH  24  25
ENDBRANCH  21  24
ENDBRANCH   3  20
TORSDOF 5
ENDMDL
MODEL 5
REMARK VINA RESULT:      -9.2      2.318      3.501
REMARK  5 active torsions:
REMARK  status: ('A' for Active; 'I' for Inactive)
REMARK    1  A    between atoms: C_5  and  N_6 
REMARK       I    between atoms: N_6  and  C_7 
REMARK       I    between atoms: C_7  and  N_8 
REMARK    2  A    between atoms: N_8  and  C_9 
REMARK    3  A    between atoms: C_11  and  C_12 
REMARK       I    between atoms: C_12  and  N_13 
REMARK    4  A    between atoms: N_13  and  C_14 
REMARK    5  A    between atoms: C_14  and  C_15 
ROOT
HETATM    1  C   UNL     1      23.970  47.035  49.458  1.00  0.00     0.175 A 
HETATM    2  S   UNL     1      24.684  46.233  50.767  1.00  0.00    -0.044 SA
HETATM    3  C   UNL     1      24.041  44.742  50.210  1.00  0.00     0.100 A 
HETATM    4  C   UNL     1      23.226  44.998  49.107  1.00  0.00     0.056 A 
HETATM    5  C   UNL     1      22.405  44.005  48.357  1.00  0.00     0.072 C 
HETATM    6  N   UNL     1      23.208  46.321  48.672  1.00  0.00    -0.228 NA
ENDROOT
BRANCH   1   7
HETATM    7  N   UNL     1      24.281  48.356  49.371  1.00  0.00    -0.287 N 
HETATM    8  C   UNL     1      23.408  49.401  49.309  1.00  0.00     0.326 C 
HETATM    9  N   UNL     1      22.077  49.111  49.435  1.00  0.00    -0.309 N 
HETATM   10  O   UNL     1      23.895  50.522  49.162  1.00  0.00    -0.247 OA
HETATM   11  H   UNL     1      21.865  48.136  49.632  1.00  0.00     0.170 HD
HETATM   12  H   UNL     1      25.254  48.610  49.297  1.00  0.00     0.172 HD
BRANCH   9  13
HETATM   13  C   UNL     1      20.989  50.005  49.391  1.00  0.00     0.036 A 
HETATM   14  C   UNL     1      20.949  51.140  48.581  1.00  0.00     0.030 A 
HETATM   15  C   UNL     1      19.833  51.984  48.594  1.00  0.00     0.009 A 
HETATM   16  C   UNL     1      18.740  51.709  49.419  1.00  0.00    -0.062 A 
HETATM   17  C   UNL     1      17.567  52.643  49.444  1.00  0.00     0.048 C 
HETATM   18  C   UNL     1      18.778  50.573  50.233  1.00  0.00     0.009 A 
HETATM   19  C   UNL     1      19.891  49.723  50.210  1.00  0.00     0.030 A 
ENDBRANCH   9  13
ENDBRANCH   1   7
BRANCH   3  20
HETATM   20  C   UNL     1      24.232  43.465  50.880  1.00  0.00     0.260 C 
HETATM   21  N   UNL     1      25.474  42.988  51.231  1.00  0.00    -0.352 N 
HETATM   22  H   UNL     1      25.410  42.112  51.738  1.00  0.00     0.163 HD
HETATM   23  O   UNL     1      23.282  42.723  51.142  1.00  0.00    -0.267 OA
BRANCH  21  24
HETATM   24  C   UNL     1      26.796  43.534  50.998  1.00  0.00     0.167 C 
BRANCH  24  25
HETATM   25  C   UNL     1      27.750  43.448  52.156  1.00  0.00     0.037 A 
HETATM   26  C   UNL     1      28.704  42.423  52.160  1.00  0.00     0.127 A 
HETATM   27  F   UNL     1      28.708  41.520  51.169  1.00  0.00    -0.205 F 
HETATM   28  C   UNL     1      29.669  42.317  53.160  1.00  0.00     0.043 A 
HETATM   29  C   UNL     1      29.706  43.257  54.186  1.00  0.00     0.006 A 
HETATM   30  C   UNL     1      28.777  44.295  54.197  1.00  0.00     0.043 A 
HETATM   31  C   UNL     1      27.819  44.385  53.185  1.00  0.00     0.127 A 
HETATM   32  F   UNL     1      26.956  45.411  53.221  1.00  0.00    -0.205 F 
ENDBRANCH  24  25
ENDBRANCH  21  24
ENDBRANCH   3  20
TORSDOF 5
ENDMDL
MODEL 6
REMARK VINA RESULT:      -9.1      2.200      2.876
REMARK  5 active torsions:
REMARK  status: ('A' for Active; 'I' for Inactive)
REMARK    1  A    between atoms: C_5  and  N_6 
REMARK       I    between atoms: N_6  and  C_7 
REMARK       I    between atoms: C_7  and  N_8 
REMARK    2  A    between atoms: N_8  and  C_9 
REMARK    3  A    between atoms: C_11  and  C_12 
REMARK       I    between atoms: C_12  and  N_13 
REMARK    4  A    between atoms: N_13  and  C_14 
REMARK    5  A    between atoms: C_14  and  C_15 
ROOT
HETATM    1  C   UNL     1      23.133  45.936  48.815  1.00  0.00     0.175 A 
HETATM    2  S   UNL     1      23.921  44.445  48.963  1.00  0.00    -0.044 SA
HETATM    3  C   UNL     1      25.235  45.214  49.756  1.00  0.00     0.100 A 
HETATM    4  C   UNL     1      25.011  46.591  49.747  1.00  0.00     0.056 A 
HETATM    5  C   UNL     1      25.933  47.646  50.257  1.00  0.00     0.072 C 
HETATM    6  N   UNL     1      23.787  46.994  49.219  1.00  0.00    -0.228 NA
ENDROOT
BRANCH   1   7
HETATM    7  N   UNL     1      21.882  45.861  48.286  1.00  0.00    -0.287 N 
HETATM    8  C   UNL     1      20.895  46.796  48.381  1.00  0.00     0.326 C 
HETATM    9  N   UNL     1      21.210  47.977  48.996  1.00  0.00    -0.309 N 
HETATM   10  O   UNL     1      19.805  46.503  47.889  1.00  0.00    -0.247 OA
HETATM   11  H   UNL     1      22.185  48.074  49.270  1.00  0.00     0.170 HD
HETATM   12  H   UNL     1      21.620  45.013  47.808  1.00  0.00     0.172 HD
BRANCH   9  13
HETATM   13  C   UNL     1      20.369  49.082  49.228  1.00  0.00     0.036 A 
HETATM   14  C   UNL     1      19.272  49.056  50.091  1.00  0.00     0.030 A 
HETATM   15  C   UNL     1      18.480  50.196  50.268  1.00  0.00     0.009 A 
HETATM   16  C   UNL     1      18.769  51.380  49.584  1.00  0.00    -0.062 A 
HETATM   17  C   UNL     1      17.888  52.580  49.761  1.00  0.00     0.048 C 
HETATM   18  C   UNL     1      19.866  51.407  48.718  1.00  0.00     0.009 A 
HETATM   19  C   UNL     1      20.665  50.270  48.551  1.00  0.00     0.030 A 
ENDBRANCH   9  13
ENDBRANCH   1   7
BRANCH   3  20
HETATM   20  C   UNL     1      26.425  44.523  50.229  1.00  0.00     0.260 C 
HETATM   21  N   UNL     1      26.691  44.331  51.566  1.00  0.00    -0.352 N 
HETATM   22  H   UNL     1      27.533  43.783  51.706  1.00  0.00     0.163 HD
HETATM   23  O   UNL     1      27.279  44.098  49.448  1.00  0.00    -0.267 OA
BRANCH  21  24
HETATM   24  C   UNL     1      25.974  44.772  52.745  1.00  0.00     0.167 C 
BRANCH  24  25
HETATM   25  C   UNL     1      26.807  45.438  53.803  1.00  0.00     0.037 A 
HETATM   26  C   UNL     1      26.483  46.746  54.184  1.00  0.00     0.127 A 
HETATM   27  F   UNL     1      25.482  47.386  53.563  1.00  0.00    -0.205 F 
HETATM   28  C   UNL     1      27.160  47.407  55.207  1.00  0.00     0.043 A 
HETATM   29  C   UNL     1      28.186  46.756  55.888  1.00  0.00     0.006 A 
HETATM   30  C   UNL     1      28.519  45.449  55.538  1.00  0.00     0.043 A 
HETATM   31  C   UNL     1      27.826  44.803  54.512  1.00  0.00     0.127 A 
HETATM   32  F   UNL     1      28.164  43.539  54.220  1.00  0.00    -0.205 F 
ENDBRANCH  24  25
ENDBRANCH  21  24
ENDBRANCH   3  20
TORSDOF 5
ENDMDL
MODEL 7
REMARK VINA RESULT:      -9.0      2.552      3.027
REMARK  5 active torsions:
REMARK  status: ('A' for Active; 'I' for Inactive)
REMARK    1  A    between atoms: C_5  and  N_6 
REMARK       I    between atoms: N_6  and  C_7 
REMARK       I    between atoms: C_7  and  N_8 
REMARK    2  A    between atoms: N_8  and  C_9 
REMARK    3  A    between atoms: C_11  and  C_12 
REMARK       I    between atoms: C_12  and  N_13 
REMARK    4  A    between atoms: N_13  and  C_14 
REMARK    5  A    between atoms: C_14  and  C_15 
ROOT
HETATM    1  C   UNL     1      25.408  47.219  50.123  1.00  0.00     0.175 A 
HETATM    2  S   UNL     1      24.962  45.836  49.253  1.00  0.00    -0.044 SA
HETATM    3  C   UNL     1      24.728  44.982  50.723  1.00  0.00     0.100 A 
HETATM    4  C   UNL     1      25.122  45.804  51.778  1.00  0.00     0.056 A 
HETATM    5  C   UNL     1      25.162  45.439  53.224  1.00  0.00     0.072 C 
HETATM    6  N   UNL     1      25.494  47.098  51.422  1.00  0.00    -0.228 NA
ENDROOT
BRANCH   1   7
HETATM    7  N   UNL     1      25.625  48.320  49.355  1.00  0.00    -0.287 N 
HETATM    8  C   UNL     1      24.691  49.211  48.918  1.00  0.00     0.326 C 
HETATM    9  N   UNL     1      23.408  49.040  49.363  1.00  0.00    -0.309 N 
HETATM   10  O   UNL     1      25.085  50.107  48.171  1.00  0.00    -0.247 OA
HETATM   11  H   UNL     1      23.283  48.292  50.040  1.00  0.00     0.170 HD
HETATM   12  H   UNL     1      26.562  48.491  49.025  1.00  0.00     0.172 HD
BRANCH   9  13
HETATM   13  C   UNL     1      22.273  49.811  49.047  1.00  0.00     0.036 A 
HETATM   14  C   UNL     1      21.659  49.812  47.793  1.00  0.00     0.030 A 
HETATM   15  C   UNL     1      20.534  50.608  47.553  1.00  0.00     0.009 A 
HETATM   16  C   UNL     1      20.005  51.420  48.560  1.00  0.00    -0.062 A 
HETATM   17  C   UNL     1      18.820  52.291  48.274  1.00  0.00     0.048 C 
HETATM   18  C   UNL     1      20.620  51.422  49.816  1.00  0.00     0.009 A 
HETATM   19  C   UNL     1      21.739  50.615  50.058  1.00  0.00     0.030 A 
ENDBRANCH   9  13
ENDBRANCH   1   7
BRANCH   3  20
HETATM   20  C   UNL     1      24.311  43.590  50.805  1.00  0.00     0.260 C 
HETATM   21  N   UNL     1      25.186  42.541  50.639  1.00  0.00    -0.352 N 
HETATM   22  H   UNL     1      24.731  41.646  50.785  1.00  0.00     0.163 HD
HETATM   23  O   UNL     1      23.134  43.278  50.998  1.00  0.00    -0.267 OA
BRANCH  21  24
HETATM   24  C   UNL     1      26.596  42.530  50.307  1.00  0.00     0.167 C 
BRANCH  24  25
HETATM   25  C   UNL     1      27.539  42.447  51.474  1.00  0.00     0.037 A 
HETATM   26  C   UNL     1      28.218  43.607  51.867  1.00  0.00     0.127 A 
HETATM   27  F   UNL     1      28.054  44.739  51.167  1.00  0.00    -0.205 F 
HETATM   28  C   UNL     1      29.055  43.631  52.982  1.00  0.00     0.043 A 
HETATM   29  C   UNL     1      29.222  42.478  53.743  1.00  0.00     0.006 A 
HETATM   30  C   UNL     1      28.546  41.314  53.382  1.00  0.00     0.043 A 
HETATM   31  C   UNL     1      27.711  41.311  52.263  1.00  0.00     0.127 A 
HETATM   32  F   UNL     1      27.063  40.177  51.961  1.00  0.00    -0.205 F 
ENDBRANCH  24  25
ENDBRANCH  21  24
ENDBRANCH   3  20
TORSDOF 5
ENDMDL
MODEL 8
REMARK VINA RESULT:      -8.7     12.405     14.206
REMARK  5 active torsions:
REMARK  status: ('A' for Active; 'I' for Inactive)
REMARK    1  A    between atoms: C_5  and  N_6 
REMARK       I    between atoms: N_6  and  C_7 
REMARK       I    between atoms: C_7  and  N_8 
REMARK    2  A    between atoms: N_8  and  C_9 
REMARK    3  A    between atoms: C_11  and  C_12 
REMARK       I    between atoms: C_12  and  N_13 
REMARK    4  A    between atoms: N_13  and  C_14 
REMARK    5  A    between atoms: C_14  and  C_15 
ROOT
HETATM    1  C   UNL     1      31.133  48.116  39.677  1.00  0.00     0.175 A 
HETATM    2  S   UNL     1      32.118  48.508  40.997  1.00  0.00    -0.044 SA
HETATM    3  C   UNL     1      32.390  50.068  40.335  1.00  0.00     0.100 A 
HETATM    4  C   UNL     1      31.783  50.128  39.081  1.00  0.00     0.056 A 
HETATM    5  C   UNL     1      31.835  51.266  38.120  1.00  0.00     0.072 C 
HETATM    6  N   UNL     1      31.045  49.003  38.720  1.00  0.00    -0.228 NA
ENDROOT
BRANCH   1   7
HETATM    7  N   UNL     1      30.530  46.900  39.767  1.00  0.00    -0.287 N 
HETATM    8  C   UNL     1      29.197  46.656  39.916  1.00  0.00     0.326 C 
HETATM    9  N   UNL     1      28.357  47.735  39.887  1.00  0.00    -0.309 N 
HETATM   10  O   UNL     1      28.860  45.479  40.049  1.00  0.00    -0.247 OA
HETATM   11  H   UNL     1      28.806  48.626  39.687  1.00  0.00     0.170 HD
HETATM   12  H   UNL     1      31.116  46.079  39.771  1.00  0.00     0.172 HD
BRANCH   9  13
HETATM   13  C   UNL     1      26.957  47.746  40.032  1.00  0.00     0.036 A 
HETATM   14  C   UNL     1      26.266  46.965  40.960  1.00  0.00     0.030 A 
HETATM   15  C   UNL     1      24.871  47.027  41.044  1.00  0.00     0.009 A 
HETATM   16  C   UNL     1      24.142  47.868  40.199  1.00  0.00    -0.062 A 
HETATM   17  C   UNL     1      22.645  47.896  40.280  1.00  0.00     0.048 C 
HETATM   18  C   UNL     1      24.831  48.650  39.267  1.00  0.00     0.009 A 
HETATM   19  C   UNL     1      26.229  48.596  39.193  1.00  0.00     0.030 A 
ENDBRANCH   9  13
ENDBRANCH   1   7
BRANCH   3  20
HETATM   20  C   UNL     1      33.228  51.085  40.952  1.00  0.00     0.260 C 
HETATM   21  N   UNL     1      32.777  51.912  41.955  1.00  0.00    -0.352 N 
HETATM   22  H   UNL     1      33.513  52.519  42.302  1.00  0.00     0.163 HD
HETATM   23  O   UNL     1      34.388  51.281  40.580  1.00  0.00    -0.267 OA
BRANCH  21  24
HETATM   24  C   UNL     1      31.468  52.031  42.564  1.00  0.00     0.167 C 
BRANCH  24  25
HETATM   25  C   UNL     1      30.316  52.179  41.610  1.00  0.00     0.037 A 
HETATM   26  C   UNL     1      30.271  53.312  40.789  1.00  0.00     0.127 A 
HETATM   27  F   UNL     1      31.217  54.254  40.910  1.00  0.00    -0.205 F 
HETATM   28  C   UNL     1      29.276  53.488  39.828  1.00  0.00     0.043 A 
HETATM   29  C   UNL     1      28.297  52.512  39.662  1.00  0.00     0.006 A 
HETATM   30  C   UNL     1      28.328  51.369  40.457  1.00  0.00     0.043 A 
HETATM   31  C   UNL     1      29.335  51.209  41.411  1.00  0.00     0.127 A 
HETATM   32  F   UNL     1      29.341  50.085  42.142  1.00  0.00    -0.205 F 
ENDBRANCH  24  25
ENDBRANCH  21  24
ENDBRANCH   3  20
TORSDOF 5
ENDMDL
MODEL 9
REMARK VINA RESULT:      -8.6     14.018     16.535
REMARK  5 active torsions:
REMARK  status: ('A' for Active; 'I' for Inactive)
REMARK    1  A    between atoms: C_5  and  N_6 
REMARK       I    between atoms: N_6  and  C_7 
REMARK       I    between atoms: C_7  and  N_8 
REMARK    2  A    between atoms: N_8  and  C_9 
REMARK    3  A    between atoms: C_11  and  C_12 
REMARK       I    between atoms: C_12  and  N_13 
REMARK    4  A    between atoms: N_13  and  C_14 
REMARK    5  A    between atoms: C_14  and  C_15 
ROOT
HETATM    1  C   UNL     1      35.134  51.804  41.743  1.00  0.00     0.175 A 
HETATM    2  S   UNL     1      35.124  50.472  40.697  1.00  0.00    -0.044 SA
HETATM    3  C   UNL     1      33.663  49.919  41.408  1.00  0.00     0.100 A 
HETATM    4  C   UNL     1      33.351  50.754  42.481  1.00  0.00     0.056 A 
HETATM    5  C   UNL     1      32.211  50.597  43.429  1.00  0.00     0.072 C 
HETATM    6  N   UNL     1      34.196  51.848  42.652  1.00  0.00    -0.228 NA
ENDROOT
BRANCH   1   7
HETATM    7  N   UNL     1      36.134  52.695  41.509  1.00  0.00    -0.287 N 
HETATM    8  C   UNL     1      37.003  53.211  42.423  1.00  0.00     0.326 C 
HETATM    9  N   UNL     1      36.929  52.722  43.699  1.00  0.00    -0.309 N 
HETATM   10  O   UNL     1      37.795  54.062  42.019  1.00  0.00    -0.247 OA
HETATM   11  H   UNL     1      36.267  51.962  43.833  1.00  0.00     0.170 HD
HETATM   12  H   UNL     1      36.233  53.063  40.575  1.00  0.00     0.172 HD
BRANCH   9  13
HETATM   13  C   UNL     1      37.700  53.099  44.816  1.00  0.00     0.036 A 
HETATM   14  C   UNL     1      37.471  54.256  45.563  1.00  0.00     0.030 A 
HETATM   15  C   UNL     1      38.283  54.566  46.660  1.00  0.00     0.009 A 
HETATM   16  C   UNL     1      39.339  53.727  47.027  1.00  0.00    -0.062 A 
HETATM   17  C   UNL     1      40.218  54.094  48.184  1.00  0.00     0.048 C 
HETATM   18  C   UNL     1      39.570  52.569  46.279  1.00  0.00     0.009 A 
HETATM   19  C   UNL     1      38.750  52.254  45.189  1.00  0.00     0.030 A 
ENDBRANCH   9  13
ENDBRANCH   1   7
BRANCH   3  20
HETATM   20  C   UNL     1      32.967  48.705  41.012  1.00  0.00     0.260 C 
HETATM   21  N   UNL     1      31.959  48.698  40.075  1.00  0.00    -0.352 N 
HETATM   22  H   UNL     1      31.630  47.757  39.885  1.00  0.00     0.163 HD
HETATM   23  O   UNL     1      33.227  47.614  41.525  1.00  0.00    -0.267 OA
BRANCH  21  24
HETATM   24  C   UNL     1      31.335  49.786  39.351  1.00  0.00     0.167 C 
BRANCH  24  25
HETATM   25  C   UNL     1      30.420  50.665  40.156  1.00  0.00     0.037 A 
HETATM   26  C   UNL     1      30.748  52.019  40.296  1.00  0.00     0.127 A 
HETATM   27  F   UNL     1      31.886  52.482  39.760  1.00  0.00    -0.205 F 
HETATM   28  C   UNL     1      29.916  52.915  40.966  1.00  0.00     0.043 A 
HETATM   29  C   UNL     1      28.715  52.467  41.509  1.00  0.00     0.006 A 
HETATM   30  C   UNL     1      28.359  51.127  41.371  1.00  0.00     0.043 A 
HETATM   31  C   UNL     1      29.204  50.246  40.694  1.00  0.00     0.127 A 
HETATM   32  F   UNL     1      28.815  48.969  40.566  1.00  0.00    -0.205 F 
ENDBRANCH  24  25
ENDBRANCH  21  24
ENDBRANCH   3  20
TORSDOF 5
ENDMDL
MODEL 10
REMARK VINA RESULT:      -8.5      2.609      3.262
REMARK  5 active torsions:
REMARK  status: ('A' for Active; 'I' for Inactive)
REMARK    1  A    between atoms: C_5  and  N_6 
REMARK       I    between atoms: N_6  and  C_7 
REMARK       I    between atoms: C_7  and  N_8 
REMARK    2  A    between atoms: N_8  and  C_9 
REMARK    3  A    between atoms: C_11  and  C_12 
REMARK       I    between atoms: C_12  and  N_13 
REMARK    4  A    between atoms: N_13  and  C_14 
REMARK    5  A    between atoms: C_14  and  C_15 
ROOT
HETATM    1  C   UNL     1      24.889  46.073  50.084  1.00  0.00     0.175 A 
HETATM    2  S   UNL     1      26.490  45.553  49.895  1.00  0.00    -0.044 SA
HETATM    3  C   UNL     1      25.961  43.922  49.856  1.00  0.00     0.100 A 
HETATM    4  C   UNL     1      24.588  43.897  50.104  1.00  0.00     0.056 A 
HETATM    5  C   UNL     1      23.730  42.686  50.239  1.00  0.00     0.072 C 
HETATM    6  N   UNL     1      23.978  45.144  50.215  1.00  0.00    -0.228 NA
ENDROOT
BRANCH   1   7
HETATM    7  N   UNL     1      24.731  47.423  50.073  1.00  0.00    -0.287 N 
HETATM    8  C   UNL     1      23.658  48.119  49.601  1.00  0.00     0.326 C 
HETATM    9  N   UNL     1      22.583  47.391  49.170  1.00  0.00    -0.309 N 
HETATM   10  O   UNL     1      23.742  49.347  49.618  1.00  0.00    -0.247 OA
HETATM   11  H   UNL     1      22.660  46.386  49.305  1.00  0.00     0.170 HD
HETATM   12  H   UNL     1      25.495  47.993  50.402  1.00  0.00     0.172 HD
BRANCH   9  13
HETATM   13  C   UNL     1      21.373  47.871  48.631  1.00  0.00     0.036 A 
HETATM   14  C   UNL     1      20.475  48.675  49.334  1.00  0.00     0.030 A 
HETATM   15  C   UNL     1      19.289  49.111  48.732  1.00  0.00     0.009 A 
HETATM   16  C   UNL     1      18.981  48.748  47.418  1.00  0.00    -0.062 A 
HETATM   17  C   UNL     1      17.690  49.197  46.802  1.00  0.00     0.048 C 
HETATM   18  C   UNL     1      19.878  47.942  46.713  1.00  0.00     0.009 A 
HETATM   19  C   UNL     1      21.070  47.516  47.313  1.00  0.00     0.030 A 
ENDBRANCH   9  13
ENDBRANCH   1   7
BRANCH   3  20
HETATM   20  C   UNL     1      26.846  42.776  49.714  1.00  0.00     0.260 C 
HETATM   21  N   UNL     1      27.212  41.983  50.777  1.00  0.00    -0.352 N 
HETATM   22  H   UNL     1      27.787  41.200  50.482  1.00  0.00     0.163 HD
HETATM   23  O   UNL     1      27.343  42.473  48.626  1.00  0.00    -0.267 OA
BRANCH  21  24
HETATM   24  C   UNL     1      26.905  42.095  52.188  1.00  0.00     0.167 C 
BRANCH  24  25
HETATM   25  C   UNL     1      27.937  42.795  53.026  1.00  0.00     0.037 A 
HETATM   26  C   UNL     1      27.595  44.011  53.630  1.00  0.00     0.127 A 
HETATM   27  F   UNL     1      26.385  44.543  53.404  1.00  0.00    -0.205 F 
HETATM   28  C   UNL     1      28.470  44.686  54.480  1.00  0.00     0.043 A 
HETATM   29  C   UNL     1      29.722  44.142  54.754  1.00  0.00     0.006 A 
HETATM   30  C   UNL     1      30.082  42.926  54.177  1.00  0.00     0.043 A 
HETATM   31  C   UNL     1      29.190  42.264  53.331  1.00  0.00     0.127 A 
HETATM   32  F   UNL     1      29.567  41.086  52.813  1.00  0.00    -0.205 F 
ENDBRANCH  24  25
ENDBRANCH  21  24
ENDBRANCH   3  20
TORSDOF 5
ENDMDL
