MODEL 1
REMARK VINA RESULT:      -9.4      0.000      0.000
REMARK  5 active torsions:
REMARK  status: ('A' for Active; 'I' for Inactive)
REMARK    1  A    between atoms: C_2  and  N_3 
REMARK    2  A    between atoms: C_2  and  C_14 
REMARK       I    between atoms: N_3  and  C_4 
REMARK       I    between atoms: C_4  and  N_5 
REMARK    3  A    between atoms: N_5  and  C_6 
REMARK    4  A    between atoms: C_6  and  C_7 
REMARK    5  A    between atoms: C_16  and  C_17 
ROOT
HETATM    1  C   UNL     1      27.919  49.310  49.217  1.00  0.00     0.041 C 
HETATM    2  C   UNL     1      26.682  48.420  49.180  1.00  0.00     0.153 C 
ENDROOT
BRANCH   2   3
HETATM    3  N   UNL     1      26.470  47.811  50.490  1.00  0.00    -0.332 N 
HETATM    4  C   UNL     1      26.411  46.452  50.645  1.00  0.00     0.317 C 
HETATM    5  N   UNL     1      26.181  46.092  51.939  1.00  0.00    -0.339 N 
HETATM    6  O   UNL     1      26.522  45.670  49.709  1.00  0.00    -0.247 OA
HETATM    7  H   UNL     1      26.385  46.771  52.656  1.00  0.00     0.164 HD
HETATM    8  H   UNL     1      25.979  48.365  51.176  1.00  0.00     0.165 HD
BRANCH   5   9
HETATM    9  C   UNL     1      26.132  44.706  52.351  1.00  0.00     0.162 C 
BRANCH   9  10
HETATM   10  C   UNL     1      27.449  44.265  52.939  1.00  0.00    -0.040 A 
HETATM   11  C   UNL     1      27.795  44.600  54.256  1.00  0.00     0.009 A 
HETATM   12  C   UNL     1      29.016  44.190  54.794  1.00  0.00     0.001 A 
HETATM   13  C   UNL     1      29.905  43.444  54.021  1.00  0.00     0.000 A 
HETATM   14  C   UNL     1      29.574  43.111  52.709  1.00  0.00     0.001 A 
HETATM   15  C   UNL     1      28.354  43.520  52.169  1.00  0.00     0.009 A 
ENDBRANCH   9  10
ENDBRANCH   5   9
ENDBRANCH   2   3
BRANCH   2  16
HETATM   16  C   UNL     1      25.465  49.183  48.758  1.00  0.00     0.145 A 
HETATM   17  N   UNL     1      24.272  49.235  49.314  1.00  0.00    -0.210 NA
HETATM   18  C   UNL     1      23.593  50.174  48.564  1.00  0.00     0.181 A 
HETATM   19  N   UNL     1      24.312  50.675  47.547  1.00  0.00    -0.152 NA
HETATM   20  N   UNL     1      25.484  50.036  47.689  1.00  0.00    -0.261 N 
HETATM   21  H   UNL     1      26.249  50.202  47.037  1.00  0.00     0.190 HD
BRANCH  18  22
HETATM   22  C   UNL     1      22.227  50.590  48.880  1.00  0.00     0.014 A 
HETATM   23  C   UNL     1      21.826  50.749  50.215  1.00  0.00     0.017 A 
HETATM   24  C   UNL     1      20.525  51.160  50.525  1.00  0.00     0.025 A 
HETATM   25  C   UNL     1      19.617  51.418  49.500  1.00  0.00     0.034 A 
HETATM   26 CL   UNL     1      18.018  51.925  49.881  1.00  0.00    -0.084 Cl
HETATM   27  C   UNL     1      19.998  51.267  48.169  1.00  0.00     0.025 A 
HETATM   28  C   UNL     1      21.299  50.854  47.861  1.00  0.00     0.017 A 
ENDBRANCH  18  22
ENDBRANCH   2  16
TORSDOF 5
ENDMDL
MODEL 2
REMARK VINA RESULT:      -9.3      3.741      9.626
REMARK  5 active torsions:
REMARK  status: ('A' for Active; 'I' for Inactive)
REMARK    1  A    between atoms: C_2  and  N_3 
REMARK    2  A    between atoms: C_2  and  C_14 
REMARK       I    between atoms: N_3  and  C_4 
REMARK       I    between atoms: C_4  and  N_5 
REMARK    3  A    between atoms: N_5  and  C_6 
REMARK    4  A    between atoms: C_6  and  C_7 
REMARK    5  A    between atoms: C_16  and  C_17 
ROOT
HETATM    1  C   UNL     1      23.127  45.596  48.849  1.00  0.00     0.041 C 
HETATM    2  C   UNL     1      24.025  46.595  49.569  1.00  0.00     0.153 C 
ENDROOT
BRANCH   2   3
HETATM    3  N   UNL     1      23.249  47.769  49.958  1.00  0.00    -0.332 N 
HETATM    4  C   UNL     1      22.988  48.778  49.071  1.00  0.00     0.317 C 
HETATM    5  N   UNL     1      22.273  49.790  49.639  1.00  0.00    -0.339 N 
HETATM    6  O   UNL     1      23.389  48.768  47.914  1.00  0.00    -0.247 OA
HETATM    7  H   UNL     1      21.761  49.583  50.483  1.00  0.00     0.164 HD
HETATM    8  H   UNL     1      23.260  48.019  50.936  1.00  0.00     0.165 HD
BRANCH   5   9
HETATM    9  C   UNL     1      21.835  50.940  48.878  1.00  0.00     0.162 C 
BRANCH   9  10
HETATM   10  C   UNL     1      20.367  51.208  49.093  1.00  0.00    -0.040 A 
HETATM   11  C   UNL     1      19.724  52.261  48.426  1.00  0.00     0.009 A 
HETATM   12  C   UNL     1      18.365  52.504  48.630  1.00  0.00     0.001 A 
HETATM   13  C   UNL     1      17.634  51.701  49.505  1.00  0.00     0.000 A 
HETATM   14  C   UNL     1      18.264  50.656  50.178  1.00  0.00     0.001 A 
HETATM   15  C   UNL     1      19.623  50.410  49.976  1.00  0.00     0.009 A 
ENDBRANCH   9  10
ENDBRANCH   5   9
ENDBRANCH   2   3
BRANCH   2  16
HETATM   16  C   UNL     1      24.681  45.984  50.769  1.00  0.00     0.145 A 
HETATM   17  N   UNL     1      25.777  46.348  51.403  1.00  0.00    -0.210 NA
HETATM   18  C   UNL     1      25.836  45.496  52.487  1.00  0.00     0.181 A 
HETATM   19  N   UNL     1      24.837  44.601  52.525  1.00  0.00    -0.152 NA
HETATM   20  N   UNL     1      24.125  44.927  51.435  1.00  0.00    -0.261 N 
HETATM   21  H   UNL     1      23.290  44.401  51.182  1.00  0.00     0.190 HD
BRANCH  18  22
HETATM   22  C   UNL     1      26.882  45.594  53.504  1.00  0.00     0.014 A 
HETATM   23  C   UNL     1      27.041  46.775  54.246  1.00  0.00     0.017 A 
HETATM   24  C   UNL     1      28.031  46.871  55.229  1.00  0.00     0.025 A 
HETATM   25  C   UNL     1      28.867  45.785  55.480  1.00  0.00     0.034 A 
HETATM   26 CL   UNL     1      30.083  45.903  56.691  1.00  0.00    -0.084 Cl
HETATM   27  C   UNL     1      28.723  44.605  54.755  1.00  0.00     0.025 A 
HETATM   28  C   UNL     1      27.734  44.511  53.770  1.00  0.00     0.017 A 
ENDBRANCH  18  22
ENDBRANCH   2  16
TORSDOF 5
ENDMDL
MODEL 3
REMARK VINA RESULT:      -9.1      4.035      9.955
REMARK  5 active torsions:
REMARK  status: ('A' for Active; 'I' for Inactive)
REMARK    1  A    between atoms: C_2  and  N_3 
REMARK    2  A    between atoms: C_2  and  C_14 
REMARK       I    between atoms: N_3  and  C_4 
REMARK       I    between atoms: C_4  and  N_5 
REMARK    3  A    between atoms: N_5  and  C_6 
REMARK    4  A    between atoms: C_6  and  C_7 
REMARK    5  A    between atoms: C_16  and  C_17 
ROOT
HETATM    1  C   UNL     1      24.420  43.660  50.955  1.00  0.00     0.041 C 
HETATM    2  C   UNL     1      25.186  44.978  50.949  1.00  0.00     0.153 C 
ENDROOT
BRANCH   2   3
HETATM    3  N   UNL     1      24.261  46.089  50.750  1.00  0.00    -0.332 N 
HETATM    4  C   UNL     1      24.608  47.184  50.005  1.00  0.00     0.317 C 
HETATM    5  N   UNL     1      23.614  48.116  49.966  1.00  0.00    -0.339 N 
HETATM    6  O   UNL     1      25.704  47.306  49.472  1.00  0.00    -0.247 OA
HETATM    7  H   UNL     1      22.678  47.810  50.186  1.00  0.00     0.164 HD
HETATM    8  H   UNL     1      23.561  46.232  51.463  1.00  0.00     0.165 HD
BRANCH   5   9
HETATM    9  C   UNL     1      23.736  49.333  49.194  1.00  0.00     0.162 C 
BRANCH   9  10
HETATM   10  C   UNL     1      22.389  49.976  48.975  1.00  0.00    -0.040 A 
HETATM   11  C   UNL     1      21.765  49.926  47.720  1.00  0.00     0.009 A 
HETATM   12  C   UNL     1      20.518  50.523  47.524  1.00  0.00     0.001 A 
HETATM   13  C   UNL     1      19.885  51.180  48.578  1.00  0.00     0.000 A 
HETATM   14  C   UNL     1      20.499  51.242  49.828  1.00  0.00     0.001 A 
HETATM   15  C   UNL     1      21.744  50.645  50.026  1.00  0.00     0.009 A 
ENDBRANCH   9  10
ENDBRANCH   5   9
ENDBRANCH   2   3
BRANCH   2  16
HETATM   16  C   UNL     1      25.967  45.170  52.212  1.00  0.00     0.145 A 
HETATM   17  N   UNL     1      26.992  44.486  52.678  1.00  0.00    -0.210 NA
HETATM   18  C   UNL     1      27.367  45.175  53.813  1.00  0.00     0.181 A 
HETATM   19  N   UNL     1      26.591  46.237  54.081  1.00  0.00    -0.152 NA
HETATM   20  N   UNL     1      25.719  46.213  53.062  1.00  0.00    -0.261 N 
HETATM   21  H   UNL     1      24.976  46.907  52.996  1.00  0.00     0.190 HD
BRANCH  18  22
HETATM   22  C   UNL     1      28.523  44.785  54.619  1.00  0.00     0.014 A 
HETATM   23  C   UNL     1      29.162  43.556  54.395  1.00  0.00     0.017 A 
HETATM   24  C   UNL     1      30.276  43.182  55.153  1.00  0.00     0.025 A 
HETATM   25  C   UNL     1      30.761  44.037  56.141  1.00  0.00     0.034 A 
HETATM   26 CL   UNL     1      32.132  43.578  57.073  1.00  0.00    -0.084 Cl
HETATM   27  C   UNL     1      30.141  45.262  56.377  1.00  0.00     0.025 A 
HETATM   28  C   UNL     1      29.025  45.633  55.619  1.00  0.00     0.017 A 
ENDBRANCH  18  22
ENDBRANCH   2  16
TORSDOF 5
ENDMDL
MODEL 4
REMARK VINA RESULT:      -9.0      3.989      9.740
REMARK  5 active torsions:
REMARK  status: ('A' for Active; 'I' for Inactive)
REMARK    1  A    between atoms: C_2  and  N_3 
REMARK    2  A    between atoms: C_2  and  C_14 
REMARK       I    between atoms: N_3  and  C_4 
REMARK       I    between atoms: C_4  and  N_5 
REMARK    3  A    between atoms: N_5  and  C_6 
REMARK    4  A    between atoms: C_6  and  C_7 
REMARK    5  A    between atoms: C_16  and  C_17 
ROOT
HETATM    1  C   UNL     1      26.032  42.322  49.367  1.00  0.00     0.041 C 
HETATM    2  C   UNL     1      26.829  43.499  49.917  1.00  0.00     0.153 C 
ENDROOT
BRANCH   2   3
HETATM    3  N   UNL     1      25.980  44.684  49.986  1.00  0.00    -0.332 N 
HETATM    4  C   UNL     1      26.450  45.921  49.635  1.00  0.00     0.317 C 
HETATM    5  N   UNL     1      25.509  46.893  49.796  1.00  0.00    -0.339 N 
HETATM    6  O   UNL     1      27.599  46.114  49.256  1.00  0.00    -0.247 OA
HETATM    7  H   UNL     1      24.543  46.606  49.836  1.00  0.00     0.164 HD
HETATM    8  H   UNL     1      25.219  44.662  50.648  1.00  0.00     0.165 HD
BRANCH   5   9
HETATM    9  C   UNL     1      25.763  48.272  49.438  1.00  0.00     0.162 C 
BRANCH   9  10
HETATM   10  C   UNL     1      24.499  48.960  48.988  1.00  0.00    -0.040 A 
HETATM   11  C   UNL     1      24.553  50.117  48.198  1.00  0.00     0.009 A 
HETATM   12  C   UNL     1      23.378  50.749  47.785  1.00  0.00     0.001 A 
HETATM   13  C   UNL     1      22.139  50.234  48.160  1.00  0.00     0.000 A 
HETATM   14  C   UNL     1      22.073  49.088  48.951  1.00  0.00     0.001 A 
HETATM   15  C   UNL     1      23.245  48.454  49.364  1.00  0.00     0.009 A 
ENDBRANCH   9  10
ENDBRANCH   5   9
ENDBRANCH   2   3
BRANCH   2  16
HETATM   16  C   UNL     1      27.408  43.195  51.264  1.00  0.00     0.145 A 
HETATM   17  N   UNL     1      28.207  43.922  52.018  1.00  0.00    -0.210 NA
HETATM   18  C   UNL     1      28.322  43.194  53.185  1.00  0.00     0.181 A 
HETATM   19  N   UNL     1      27.651  42.031  53.164  1.00  0.00    -0.152 NA
HETATM   20  N   UNL     1      27.086  42.054  51.946  1.00  0.00    -0.261 N 
HETATM   21  H   UNL     1      26.511  41.277  51.625  1.00  0.00     0.190 HD
BRANCH  18  22
HETATM   22  C   UNL     1      29.084  43.675  54.336  1.00  0.00     0.014 A 
HETATM   23  C   UNL     1      28.729  44.875  54.971  1.00  0.00     0.017 A 
HETATM   24  C   UNL     1      29.446  45.335  56.080  1.00  0.00     0.025 A 
HETATM   25  C   UNL     1      30.521  44.594  56.566  1.00  0.00     0.034 A 
HETATM   26 CL   UNL     1      31.401  45.158  57.933  1.00  0.00    -0.084 Cl
HETATM   27  C   UNL     1      30.887  43.399  55.951  1.00  0.00     0.025 A 
HETATM   28  C   UNL     1      30.171  42.942  54.840  1.00  0.00     0.017 A 
ENDBRANCH  18  22
ENDBRANCH   2  16
TORSDOF 5
ENDMDL
MODEL 5
REMARK VINA RESULT:      -9.0      1.530      1.927
REMARK  5 active torsions:
REMARK  status: ('A' for Active; 'I' for Inactive)
REMARK    1  A    between atoms: C_2  and  N_3 
REMARK    2  A    between atoms: C_2  and  C_14 
REMARK       I    between atoms: N_3  and  C_4 
REMARK       I    between atoms: C_4  and  N_5 
REMARK    3  A    between atoms: N_5  and  C_6 
REMARK    4  A    between atoms: C_6  and  C_7 
REMARK    5  A    between atoms: C_16  and  C_17 
ROOT
HETATM    1  C   UNL     1      26.862  48.549  49.575  1.00  0.00     0.041 C 
HETATM    2  C   UNL     1      25.966  47.396  50.010  1.00  0.00     0.153 C 
ENDROOT
BRANCH   2   3
HETATM    3  N   UNL     1      26.134  47.149  51.439  1.00  0.00    -0.332 N 
HETATM    4  C   UNL     1      26.191  45.876  51.941  1.00  0.00     0.317 C 
HETATM    5  N   UNL     1      26.325  45.865  53.298  1.00  0.00    -0.339 N 
HETATM    6  O   UNL     1      26.097  44.878  51.238  1.00  0.00    -0.247 OA
HETATM    7  H   UNL     1      26.671  46.703  53.740  1.00  0.00     0.164 HD
HETATM    8  H   UNL     1      25.809  47.868  52.067  1.00  0.00     0.165 HD
BRANCH   5   9
HETATM    9  C   UNL     1      26.460  44.633  54.044  1.00  0.00     0.162 C 
BRANCH   9  10
HETATM   10  C   UNL     1      27.858  44.474  54.585  1.00  0.00    -0.040 A 
HETATM   11  C   UNL     1      28.439  45.474  55.379  1.00  0.00     0.009 A 
HETATM   12  C   UNL     1      29.735  45.320  55.876  1.00  0.00     0.001 A 
HETATM   13  C   UNL     1      30.464  44.169  55.583  1.00  0.00     0.000 A 
HETATM   14  C   UNL     1      29.899  43.172  54.790  1.00  0.00     0.001 A 
HETATM   15  C   UNL     1      28.605  43.322  54.292  1.00  0.00     0.009 A 
ENDBRANCH   9  10
ENDBRANCH   5   9
ENDBRANCH   2   3
BRANCH   2  16
HETATM   16  C   UNL     1      24.527  47.664  49.694  1.00  0.00     0.145 A 
HETATM   17  N   UNL     1      23.832  48.776  49.824  1.00  0.00    -0.210 NA
HETATM   18  C   UNL     1      22.602  48.468  49.279  1.00  0.00     0.181 A 
HETATM   19  N   UNL     1      22.503  47.200  48.850  1.00  0.00    -0.152 NA
HETATM   20  N   UNL     1      23.725  46.715  49.122  1.00  0.00    -0.261 N 
HETATM   21  H   UNL     1      23.957  45.745  48.917  1.00  0.00     0.190 HD
BRANCH  18  22
HETATM   22  C   UNL     1      21.528  49.454  49.163  1.00  0.00     0.014 A 
HETATM   23  C   UNL     1      20.244  49.164  49.651  1.00  0.00     0.017 A 
HETATM   24  C   UNL     1      19.216  50.107  49.556  1.00  0.00     0.025 A 
HETATM   25  C   UNL     1      19.465  51.349  48.975  1.00  0.00     0.034 A 
HETATM   26 CL   UNL     1      18.200  52.510  48.860  1.00  0.00    -0.084 Cl
HETATM   27  C   UNL     1      20.733  51.655  48.487  1.00  0.00     0.025 A 
HETATM   28  C   UNL     1      21.760  50.710  48.581  1.00  0.00     0.017 A 
ENDBRANCH  18  22
ENDBRANCH   2  16
TORSDOF 5
ENDMDL
MODEL 6
REMARK VINA RESULT:      -8.5      2.113      3.292
REMARK  5 active torsions:
REMARK  status: ('A' for Active; 'I' for Inactive)
REMARK    1  A    between atoms: C_2  and  N_3 
REMARK    2  A    between atoms: C_2  and  C_14 
REMARK       I    between atoms: N_3  and  C_4 
REMARK       I    between atoms: C_4  and  N_5 
REMARK    3  A    between atoms: N_5  and  C_6 
REMARK    4  A    between atoms: C_6  and  C_7 
REMARK    5  A    between atoms: C_16  and  C_17 
ROOT
HETATM    1  C   UNL     1      26.231  43.977  49.912  1.00  0.00     0.041 C 
HETATM    2  C   UNL     1      25.844  44.998  50.976  1.00  0.00     0.153 C 
ENDROOT
BRANCH   2   3
HETATM    3  N   UNL     1      26.957  45.200  51.897  1.00  0.00    -0.332 N 
HETATM    4  C   UNL     1      26.748  45.536  53.208  1.00  0.00     0.317 C 
HETATM    5  N   UNL     1      27.916  45.704  53.889  1.00  0.00    -0.339 N 
HETATM    6  O   UNL     1      25.630  45.695  53.684  1.00  0.00    -0.247 OA
HETATM    7  H   UNL     1      28.748  45.285  53.501  1.00  0.00     0.164 HD
HETATM    8  H   UNL     1      27.837  45.486  51.494  1.00  0.00     0.165 HD
BRANCH   5   9
HETATM    9  C   UNL     1      27.942  46.010  55.303  1.00  0.00     0.162 C 
BRANCH   9  10
HETATM   10  C   UNL     1      29.118  45.354  55.981  1.00  0.00    -0.040 A 
HETATM   11  C   UNL     1      29.533  45.764  57.256  1.00  0.00     0.009 A 
HETATM   12  C   UNL     1      30.623  45.152  57.878  1.00  0.00     0.001 A 
HETATM   13  C   UNL     1      31.313  44.128  57.231  1.00  0.00     0.000 A 
HETATM   14  C   UNL     1      30.913  43.716  55.960  1.00  0.00     0.001 A 
HETATM   15  C   UNL     1      29.824  44.326  55.337  1.00  0.00     0.009 A 
ENDBRANCH   9  10
ENDBRANCH   5   9
ENDBRANCH   2   3
BRANCH   2  16
HETATM   16  C   UNL     1      25.428  46.301  50.367  1.00  0.00     0.145 A 
HETATM   17  N   UNL     1      24.223  46.738  50.060  1.00  0.00    -0.210 NA
HETATM   18  C   UNL     1      24.435  48.034  49.637  1.00  0.00     0.181 A 
HETATM   19  N   UNL     1      25.727  48.400  49.641  1.00  0.00    -0.152 NA
HETATM   20  N   UNL     1      26.331  47.294  50.103  1.00  0.00    -0.261 N 
HETATM   21  H   UNL     1      27.344  47.259  50.205  1.00  0.00     0.190 HD
BRANCH  18  22
HETATM   22  C   UNL     1      23.338  48.921  49.252  1.00  0.00     0.014 A 
HETATM   23  C   UNL     1      22.034  48.419  49.117  1.00  0.00     0.017 A 
HETATM   24  C   UNL     1      20.978  49.263  48.762  1.00  0.00     0.025 A 
HETATM   25  C   UNL     1      21.217  50.619  48.543  1.00  0.00     0.034 A 
HETATM   26 CL   UNL     1      19.917  51.658  48.108  1.00  0.00    -0.084 Cl
HETATM   27  C   UNL     1      22.504  51.136  48.674  1.00  0.00     0.025 A 
HETATM   28  C   UNL     1      23.560  50.289  49.027  1.00  0.00     0.017 A 
ENDBRANCH  18  22
ENDBRANCH   2  16
TORSDOF 5
ENDMDL
MODEL 7
REMARK VINA RESULT:      -8.3      2.341      3.379
REMARK  5 active torsions:
REMARK  status: ('A' for Active; 'I' for Inactive)
REMARK    1  A    between atoms: C_2  and  N_3 
REMARK    2  A    between atoms: C_2  and  C_14 
REMARK       I    between atoms: N_3  and  C_4 
REMARK       I    between atoms: C_4  and  N_5 
REMARK    3  A    between atoms: N_5  and  C_6 
REMARK    4  A    between atoms: C_6  and  C_7 
REMARK    5  A    between atoms: C_16  and  C_17 
ROOT
HETATM    1  C   UNL     1      24.001  50.088  48.101  1.00  0.00     0.041 C 
HETATM    2  C   UNL     1      23.416  48.819  48.711  1.00  0.00     0.153 C 
ENDROOT
BRANCH   2   3
HETATM    3  N   UNL     1      24.147  48.469  49.924  1.00  0.00    -0.332 N 
HETATM    4  C   UNL     1      24.402  47.164  50.254  1.00  0.00     0.317 C 
HETATM    5  N   UNL     1      25.072  47.054  51.435  1.00  0.00    -0.339 N 
HETATM    6  O   UNL     1      24.030  46.220  49.568  1.00  0.00    -0.247 OA
HETATM    7  H   UNL     1      25.568  47.867  51.769  1.00  0.00     0.164 HD
HETATM    8  H   UNL     1      24.104  49.127  50.689  1.00  0.00     0.165 HD
BRANCH   5   9
HETATM    9  C   UNL     1      25.496  45.774  51.959  1.00  0.00     0.162 C 
BRANCH   9  10
HETATM   10  C   UNL     1      26.498  45.945  53.073  1.00  0.00    -0.040 A 
HETATM   11  C   UNL     1      26.657  47.184  53.711  1.00  0.00     0.009 A 
HETATM   12  C   UNL     1      27.587  47.336  54.741  1.00  0.00     0.001 A 
HETATM   13  C   UNL     1      28.370  46.254  55.141  1.00  0.00     0.000 A 
HETATM   14  C   UNL     1      28.225  45.020  54.509  1.00  0.00     0.001 A 
HETATM   15  C   UNL     1      27.296  44.866  53.480  1.00  0.00     0.009 A 
ENDBRANCH   9  10
ENDBRANCH   5   9
ENDBRANCH   2   3
BRANCH   2  16
HETATM   16  C   UNL     1      21.956  48.970  49.008  1.00  0.00     0.145 A 
HETATM   17  N   UNL     1      21.197  50.047  48.963  1.00  0.00    -0.210 NA
HETATM   18  C   UNL     1      19.928  49.573  49.225  1.00  0.00     0.181 A 
HETATM   19  N   UNL     1      19.882  48.252  49.462  1.00  0.00    -0.152 NA
HETATM   20  N   UNL     1      21.169  47.896  49.320  1.00  0.00    -0.261 N 
HETATM   21  H   UNL     1      21.459  46.929  49.458  1.00  0.00     0.190 HD
BRANCH  18  22
HETATM   22  C   UNL     1      18.751  50.440  49.213  1.00  0.00     0.014 A 
HETATM   23  C   UNL     1      17.532  49.974  48.697  1.00  0.00     0.017 A 
HETATM   24  C   UNL     1      16.398  50.793  48.694  1.00  0.00     0.025 A 
HETATM   25  C   UNL     1      16.475  52.085  49.212  1.00  0.00     0.034 A 
HETATM   26 CL   UNL     1      15.080  53.092  49.211  1.00  0.00    -0.084 Cl
HETATM   27  C   UNL     1      17.676  52.564  49.730  1.00  0.00     0.025 A 
HETATM   28  C   UNL     1      18.809  51.744  49.729  1.00  0.00     0.017 A 
ENDBRANCH  18  22
ENDBRANCH   2  16
TORSDOF 5
ENDMDL
MODEL 8
REMARK VINA RESULT:      -8.2      3.979      9.747
REMARK  5 active torsions:
REMARK  status: ('A' for Active; 'I' for Inactive)
REMARK    1  A    between atoms: C_2  and  N_3 
REMARK    2  A    between atoms: C_2  and  C_14 
REMARK       I    between atoms: N_3  and  C_4 
REMARK       I    between atoms: C_4  and  N_5 
REMARK    3  A    between atoms: N_5  and  C_6 
REMARK    4  A    between atoms: C_6  and  C_7 
REMARK    5  A    between atoms: C_16  and  C_17 
ROOT
HETATM    1  C   UNL     1      26.067  47.918  49.608  1.00  0.00     0.041 C 
HETATM    2  C   UNL     1      25.093  47.597  50.736  1.00  0.00     0.153 C 
ENDROOT
BRANCH   2   3
HETATM    3  N   UNL     1      23.799  47.214  50.179  1.00  0.00    -0.332 N 
HETATM    4  C   UNL     1      23.118  48.038  49.324  1.00  0.00     0.317 C 
HETATM    5  N   UNL     1      21.923  47.506  48.941  1.00  0.00    -0.339 N 
HETATM    6  O   UNL     1      23.538  49.136  48.982  1.00  0.00    -0.247 OA
HETATM    7  H   UNL     1      21.801  46.510  49.042  1.00  0.00     0.164 HD
HETATM    8  H   UNL     1      23.245  46.566  50.718  1.00  0.00     0.165 HD
BRANCH   5   9
HETATM    9  C   UNL     1      21.054  48.175  47.997  1.00  0.00     0.162 C 
BRANCH   9  10
HETATM   10  C   UNL     1      20.399  49.381  48.621  1.00  0.00    -0.040 A 
HETATM   11  C   UNL     1      20.540  50.653  48.047  1.00  0.00     0.009 A 
HETATM   12  C   UNL     1      19.931  51.765  48.630  1.00  0.00     0.001 A 
HETATM   13  C   UNL     1      19.179  51.620  49.795  1.00  0.00     0.000 A 
HETATM   14  C   UNL     1      19.037  50.362  50.378  1.00  0.00     0.001 A 
HETATM   15  C   UNL     1      19.644  49.249  49.797  1.00  0.00     0.009 A 
ENDBRANCH   9  10
ENDBRANCH   5   9
ENDBRANCH   2   3
BRANCH   2  16
HETATM   16  C   UNL     1      25.617  46.515  51.628  1.00  0.00     0.145 A 
HETATM   17  N   UNL     1      26.820  46.359  52.142  1.00  0.00    -0.210 NA
HETATM   18  C   UNL     1      26.694  45.258  52.964  1.00  0.00     0.181 A 
HETATM   19  N   UNL     1      25.468  44.711  52.949  1.00  0.00    -0.152 NA
HETATM   20  N   UNL     1      24.810  45.517  52.102  1.00  0.00    -0.261 N 
HETATM   21  H   UNL     1      23.833  45.343  51.871  1.00  0.00     0.190 HD
BRANCH  18  22
HETATM   22  C   UNL     1      27.797  44.765  53.788  1.00  0.00     0.014 A 
HETATM   23  C   UNL     1      28.423  43.548  53.480  1.00  0.00     0.017 A 
HETATM   24  C   UNL     1      29.487  43.077  54.256  1.00  0.00     0.025 A 
HETATM   25  C   UNL     1      29.935  43.823  55.345  1.00  0.00     0.034 A 
HETATM   26 CL   UNL     1      31.246  43.245  56.298  1.00  0.00    -0.084 Cl
HETATM   27  C   UNL     1      29.328  45.035  55.664  1.00  0.00     0.025 A 
HETATM   28  C   UNL     1      28.262  45.503  54.888  1.00  0.00     0.017 A 
ENDBRANCH  18  22
ENDBRANCH   2  16
TORSDOF 5
ENDMDL
MODEL 9
REMARK VINA RESULT:      -8.2      5.698      8.951
REMARK  5 active torsions:
REMARK  status: ('A' for Active; 'I' for Inactive)
REMARK    1  A    between atoms: C_2  and  N_3 
REMARK    2  A    between atoms: C_2  and  C_14 
REMARK       I    between atoms: N_3  and  C_4 
REMARK       I    between atoms: C_4  and  N_5 
REMARK    3  A    between atoms: N_5  and  C_6 
REMARK    4  A    between atoms: C_6  and  C_7 
REMARK    5  A    between atoms: C_16  and  C_17 
ROOT
HETATM    1  C   UNL     1      25.111  46.064  50.067  1.00  0.00     0.041 C 
HETATM    2  C   UNL     1      25.537  44.737  50.683  1.00  0.00     0.153 C 
ENDROOT
BRANCH   2   3
HETATM    3  N   UNL     1      26.398  44.012  49.753  1.00  0.00    -0.332 N 
HETATM    4  C   UNL     1      26.041  42.787  49.256  1.00  0.00     0.317 C 
HETATM    5  N   UNL     1      26.992  42.272  48.427  1.00  0.00    -0.339 N 
HETATM    6  O   UNL     1      24.997  42.224  49.561  1.00  0.00    -0.247 OA
HETATM    7  H   UNL     1      27.659  42.913  48.025  1.00  0.00     0.164 HD
HETATM    8  H   UNL     1      27.387  44.210  49.798  1.00  0.00     0.165 HD
BRANCH   5   9
HETATM    9  C   UNL     1      26.810  41.010  47.743  1.00  0.00     0.162 C 
BRANCH   9  10
HETATM   10  C   UNL     1      27.708  39.944  48.318  1.00  0.00    -0.040 A 
HETATM   11  C   UNL     1      28.106  39.989  49.662  1.00  0.00     0.009 A 
HETATM   12  C   UNL     1      28.937  38.999  50.188  1.00  0.00     0.001 A 
HETATM   13  C   UNL     1      29.384  37.957  49.377  1.00  0.00     0.000 A 
HETATM   14  C   UNL     1      29.000  37.906  48.037  1.00  0.00     0.001 A 
HETATM   15  C   UNL     1      28.168  38.894  47.510  1.00  0.00     0.009 A 
ENDBRANCH   9  10
ENDBRANCH   5   9
ENDBRANCH   2   3
BRANCH   2  16
HETATM   16  C   UNL     1      26.236  44.934  51.993  1.00  0.00     0.145 A 
HETATM   17  N   UNL     1      27.267  44.289  52.499  1.00  0.00    -0.210 NA
HETATM   18  C   UNL     1      27.543  44.966  53.670  1.00  0.00     0.181 A 
HETATM   19  N   UNL     1      26.701  45.981  53.918  1.00  0.00    -0.152 NA
HETATM   20  N   UNL     1      25.889  45.941  52.851  1.00  0.00    -0.261 N 
HETATM   21  H   UNL     1      25.116  46.599  52.760  1.00  0.00     0.190 HD
BRANCH  18  22
HETATM   22  C   UNL     1      28.671  44.612  54.531  1.00  0.00     0.014 A 
HETATM   23  C   UNL     1      29.343  43.393  54.354  1.00  0.00     0.017 A 
HETATM   24  C   UNL     1      30.430  43.054  55.166  1.00  0.00     0.025 A 
HETATM   25  C   UNL     1      30.856  43.934  56.159  1.00  0.00     0.034 A 
HETATM   26 CL   UNL     1      32.195  43.518  57.156  1.00  0.00    -0.084 Cl
HETATM   27  C   UNL     1      30.202  45.150  56.348  1.00  0.00     0.025 A 
HETATM   28  C   UNL     1      29.113  45.486  55.537  1.00  0.00     0.017 A 
ENDBRANCH  18  22
ENDBRANCH   2  16
TORSDOF 5
ENDMDL
MODEL 10
REMARK VINA RESULT:      -8.0      3.878      9.817
REMARK  5 active torsions:
REMARK  status: ('A' for Active; 'I' for Inactive)
REMARK    1  A    between atoms: C_2  and  N_3 
REMARK    2  A    between atoms: C_2  and  C_14 
REMARK       I    between atoms: N_3  and  C_4 
REMARK       I    between atoms: C_4  and  N_5 
REMARK    3  A    between atoms: N_5  and  C_6 
REMARK    4  A    between atoms: C_6  and  C_7 
REMARK    5  A    between atoms: C_16  and  C_17 
ROOT
HETATM    1  C   UNL     1      22.326  46.665  47.854  1.00  0.00     0.041 C 
HETATM    2  C   UNL     1      22.767  47.938  48.568  1.00  0.00     0.153 C 
ENDROOT
BRANCH   2   3
HETATM    3  N   UNL     1      21.667  48.462  49.372  1.00  0.00    -0.332 N 
HETATM    4  C   UNL     1      21.297  49.779  49.303  1.00  0.00     0.317 C 
HETATM    5  N   UNL     1      20.268  50.068  50.149  1.00  0.00    -0.339 N 
HETATM    6  O   UNL     1      21.861  50.592  48.582  1.00  0.00    -0.247 OA
HETATM    7  H   UNL     1      19.702  49.300  50.477  1.00  0.00     0.164 HD
HETATM    8  H   UNL     1      21.462  47.981  50.235  1.00  0.00     0.165 HD
BRANCH   5   9
HETATM    9  C   UNL     1      19.674  51.386  50.210  1.00  0.00     0.162 C 
BRANCH   9  10
HETATM   10  C   UNL     1      18.269  51.376  49.665  1.00  0.00    -0.040 A 
HETATM   11  C   UNL     1      17.793  50.282  48.927  1.00  0.00     0.009 A 
HETATM   12  C   UNL     1      16.490  50.279  48.424  1.00  0.00     0.001 A 
HETATM   13  C   UNL     1      15.652  51.370  48.650  1.00  0.00     0.000 A 
HETATM   14  C   UNL     1      16.116  52.465  49.376  1.00  0.00     0.001 A 
HETATM   15  C   UNL     1      17.417  52.470  49.880  1.00  0.00     0.009 A 
ENDBRANCH   9  10
ENDBRANCH   5   9
ENDBRANCH   2   3
BRANCH   2  16
HETATM   16  C   UNL     1      23.971  47.702  49.426  1.00  0.00     0.145 A 
HETATM   17  N   UNL     1      24.223  46.720  50.268  1.00  0.00    -0.210 NA
HETATM   18  C   UNL     1      25.516  46.960  50.686  1.00  0.00     0.181 A 
HETATM   19  N   UNL     1      26.057  48.070  50.159  1.00  0.00    -0.152 NA
HETATM   20  N   UNL     1      25.067  48.518  49.371  1.00  0.00    -0.261 N 
HETATM   21  H   UNL     1      25.177  49.378  48.836  1.00  0.00     0.190 HD
BRANCH  18  22
HETATM   22  C   UNL     1      26.224  46.061  51.597  1.00  0.00     0.014 A 
HETATM   23  C   UNL     1      26.840  44.899  51.109  1.00  0.00     0.017 A 
HETATM   24  C   UNL     1      27.530  44.041  51.972  1.00  0.00     0.025 A 
HETATM   25  C   UNL     1      27.612  44.343  53.330  1.00  0.00     0.034 A 
HETATM   26 CL   UNL     1      28.462  43.290  54.392  1.00  0.00    -0.084 Cl
HETATM   27  C   UNL     1      27.007  45.493  53.832  1.00  0.00     0.025 A 
HETATM   28  C   UNL     1      26.316  46.348  52.968  1.00  0.00     0.017 A 
ENDBRANCH  18  22
ENDBRANCH   2  16
TORSDOF 5
ENDMDL
