MODEL 1
REMARK VINA RESULT:      -9.2      0.000      0.000
REMARK  3 active torsions:
REMARK  status: ('A' for Active; 'I' for Inactive)
REMARK    1  A    between atoms: S_2  and  C_3 
REMARK    2  A    between atoms: C_6  and  C_7 
REMARK    3  A    between atoms: C_22  and  N_23 
ROOT
HETATM    1  C   UNL     1      27.317  43.060  50.924  1.00  0.00     0.078 C 
HETATM    2  C   UNL     1      27.313  43.186  52.446  1.00  0.00     0.127 C 
HETATM    3  C   UNL     1      28.428  42.369  53.045  1.00  0.00     0.060 C 
HETATM    4  C   UNL     1      29.025  43.108  54.148  1.00  0.00     0.003 A 
HETATM    5  C   UNL     1      28.568  44.419  54.105  1.00  0.00     0.023 A 
HETATM    6  C   UNL     1      29.058  45.386  54.962  1.00  0.00     0.016 A 
HETATM    7  C   UNL     1      30.035  44.994  55.883  1.00  0.00     0.001 A 
HETATM    8  C   UNL     1      30.500  43.665  55.923  1.00  0.00     0.001 A 
HETATM    9  C   UNL     1      30.000  42.704  55.040  1.00  0.00     0.014 A 
HETATM   10  C   UNL     1      27.588  44.566  53.021  1.00  0.00     0.171 C 
HETATM   11  O   UNL     1      27.096  45.628  52.696  1.00  0.00    -0.291 OA
HETATM   12  N   UNL     1      28.871  41.240  52.608  1.00  0.00    -0.231 NA
HETATM   13  C   UNL     1      28.433  40.844  51.367  1.00  0.00     0.165 C 
HETATM   14  C   UNL     1      27.806  41.684  50.520  1.00  0.00     0.067 C 
HETATM   15  N   UNL     1      28.843  39.581  51.039  1.00  0.00    -0.200 NA
HETATM   16  C   UNL     1      28.657  39.174  49.829  1.00  0.00     0.181 C 
HETATM   17  N   UNL     1      28.083  39.951  48.878  1.00  0.00    -0.298 N 
HETATM   18  C   UNL     1      27.706  41.236  49.117  1.00  0.00     0.258 C 
HETATM   19  O   UNL     1      27.362  41.976  48.202  1.00  0.00    -0.267 OA
HETATM   20  H   UNL     1      27.987  39.622  47.932  1.00  0.00     0.171 HD
ENDROOT
BRANCH   1  21
HETATM   21  C   UNL     1      25.911  43.402  50.421  1.00  0.00    -0.048 A 
HETATM   22  C   UNL     1      25.721  44.535  49.617  1.00  0.00     0.009 A 
HETATM   23  C   UNL     1      24.448  44.886  49.148  1.00  0.00     0.019 A 
HETATM   24  C   UNL     1      23.331  44.113  49.468  1.00  0.00    -0.000 A 
HETATM   25  C   UNL     1      23.515  42.987  50.281  1.00  0.00     0.019 A 
HETATM   26  C   UNL     1      24.783  42.640  50.762  1.00  0.00     0.009 A 
BRANCH  24  27
HETATM   27  S   UNL     1      21.663  44.440  48.908  1.00  0.00    -0.134 SA
HETATM   28  C   UNL     1      21.808  46.042  48.072  1.00  0.00     0.095 C 
ENDBRANCH  24  27
ENDBRANCH   1  21
BRANCH  16  29
HETATM   29  N   UNL     1      29.057  37.935  49.452  1.00  0.00    -0.272 NA
HETATM   30  H   UNL     1      29.308  37.372  50.260  1.00  0.00     0.127 HD
HETATM   31  H   UNL     1      29.759  37.895  48.725  1.00  0.00     0.127 HD
ENDBRANCH  16  29
TORSDOF 3
ENDMDL
MODEL 2
REMARK VINA RESULT:      -8.9      1.610      2.401
REMARK  3 active torsions:
REMARK  status: ('A' for Active; 'I' for Inactive)
REMARK    1  A    between atoms: S_2  and  C_3 
REMARK    2  A    between atoms: C_6  and  C_7 
REMARK    3  A    between atoms: C_22  and  N_23 
ROOT
HETATM    1  C   UNL     1      26.297  44.279  51.017  1.00  0.00     0.078 C 
HETATM    2  C   UNL     1      25.921  44.746  52.422  1.00  0.00     0.127 C 
HETATM    3  C   UNL     1      26.968  44.316  53.417  1.00  0.00     0.060 C 
HETATM    4  C   UNL     1      27.184  45.388  54.378  1.00  0.00     0.003 A 
HETATM    5  C   UNL     1      26.572  46.542  53.904  1.00  0.00     0.023 A 
HETATM    6  C   UNL     1      26.711  47.755  54.552  1.00  0.00     0.016 A 
HETATM    7  C   UNL     1      27.491  47.779  55.712  1.00  0.00     0.001 A 
HETATM    8  C   UNL     1      28.114  46.608  56.190  1.00  0.00     0.001 A 
HETATM    9  C   UNL     1      27.970  45.393  55.514  1.00  0.00     0.014 A 
HETATM   10  C   UNL     1      25.861  46.246  52.654  1.00  0.00     0.171 C 
HETATM   11  O   UNL     1      25.316  47.092  51.971  1.00  0.00    -0.291 OA
HETATM   12  N   UNL     1      27.651  43.225  53.387  1.00  0.00    -0.231 NA
HETATM   13  C   UNL     1      27.574  42.480  52.235  1.00  0.00     0.165 C 
HETATM   14  C   UNL     1      27.052  42.967  51.093  1.00  0.00     0.067 C 
HETATM   15  N   UNL     1      28.220  41.277  52.337  1.00  0.00    -0.200 NA
HETATM   16  C   UNL     1      28.379  40.578  51.265  1.00  0.00     0.181 C 
HETATM   17  N   UNL     1      27.940  40.992  50.051  1.00  0.00    -0.298 N 
HETATM   18  C   UNL     1      27.344  42.201  49.865  1.00  0.00     0.258 C 
HETATM   19  O   UNL     1      27.124  42.633  48.739  1.00  0.00    -0.267 OA
HETATM   20  H   UNL     1      28.113  40.444  49.226  1.00  0.00     0.171 HD
ENDROOT
BRANCH   1  21
HETATM   21  C   UNL     1      25.013  44.220  50.183  1.00  0.00    -0.048 A 
HETATM   22  C   UNL     1      24.034  43.263  50.488  1.00  0.00     0.009 A 
HETATM   23  C   UNL     1      22.853  43.170  49.740  1.00  0.00     0.019 A 
HETATM   24  C   UNL     1      22.617  44.033  48.668  1.00  0.00    -0.000 A 
HETATM   25  C   UNL     1      23.598  44.982  48.353  1.00  0.00     0.019 A 
HETATM   26  C   UNL     1      24.786  45.069  49.090  1.00  0.00     0.009 A 
BRANCH  24  27
HETATM   27  S   UNL     1      21.140  44.033  47.658  1.00  0.00    -0.134 SA
HETATM   28  C   UNL     1      20.107  45.310  48.424  1.00  0.00     0.095 C 
ENDBRANCH  24  27
ENDBRANCH   1  21
BRANCH  16  29
HETATM   29  N   UNL     1      29.022  39.386  51.312  1.00  0.00    -0.272 NA
HETATM   30  H   UNL     1      29.398  39.137  50.401  1.00  0.00     0.127 HD
HETATM   31  H   UNL     1      28.515  38.622  51.738  1.00  0.00     0.127 HD
ENDBRANCH  16  29
TORSDOF 3
ENDMDL
MODEL 3
REMARK VINA RESULT:      -8.9      3.473      5.076
REMARK  3 active torsions:
REMARK  status: ('A' for Active; 'I' for Inactive)
REMARK    1  A    between atoms: S_2  and  C_3 
REMARK    2  A    between atoms: C_6  and  C_7 
REMARK    3  A    between atoms: C_22  and  N_23 
ROOT
HETATM    1  C   UNL     1      26.736  42.889  52.063  1.00  0.00     0.078 C 
HETATM    2  C   UNL     1      28.170  43.214  52.474  1.00  0.00     0.127 C 
HETATM    3  C   UNL     1      28.226  44.542  53.182  1.00  0.00     0.060 C 
HETATM    4  C   UNL     1      29.161  44.453  54.295  1.00  0.00     0.003 A 
HETATM    5  C   UNL     1      29.474  43.116  54.507  1.00  0.00     0.023 A 
HETATM    6  C   UNL     1      30.251  42.715  55.577  1.00  0.00     0.016 A 
HETATM    7  C   UNL     1      30.718  43.710  56.443  1.00  0.00     0.001 A 
HETATM    8  C   UNL     1      30.396  45.065  56.228  1.00  0.00     0.001 A 
HETATM    9  C   UNL     1      29.599  45.449  55.146  1.00  0.00     0.014 A 
HETATM   10  C   UNL     1      28.820  42.287  53.487  1.00  0.00     0.171 C 
HETATM   11  O   UNL     1      28.846  41.072  53.488  1.00  0.00    -0.291 OA
HETATM   12  N   UNL     1      27.500  45.576  52.931  1.00  0.00    -0.231 NA
HETATM   13  C   UNL     1      26.435  45.391  52.083  1.00  0.00     0.165 C 
HETATM   14  C   UNL     1      25.987  44.167  51.742  1.00  0.00     0.067 C 
HETATM   15  N   UNL     1      25.800  46.561  51.766  1.00  0.00    -0.200 NA
HETATM   16  C   UNL     1      24.677  46.494  51.134  1.00  0.00     0.181 C 
HETATM   17  N   UNL     1      24.105  45.316  50.785  1.00  0.00    -0.298 N 
HETATM   18  C   UNL     1      24.649  44.114  51.120  1.00  0.00     0.258 C 
HETATM   19  O   UNL     1      24.028  43.070  50.959  1.00  0.00    -0.267 OA
HETATM   20  H   UNL     1      23.209  45.292  50.329  1.00  0.00     0.171 HD
ENDROOT
BRANCH   1  21
HETATM   21  C   UNL     1      26.795  41.886  50.905  1.00  0.00    -0.048 A 
HETATM   22  C   UNL     1      27.218  42.317  49.640  1.00  0.00     0.009 A 
HETATM   23  C   UNL     1      27.273  41.432  48.554  1.00  0.00     0.019 A 
HETATM   24  C   UNL     1      26.909  40.093  48.705  1.00  0.00    -0.000 A 
HETATM   25  C   UNL     1      26.474  39.663  49.966  1.00  0.00     0.019 A 
HETATM   26  C   UNL     1      26.405  40.547  51.049  1.00  0.00     0.009 A 
BRANCH  24  27
HETATM   27  S   UNL     1      26.963  38.863  47.407  1.00  0.00    -0.134 SA
HETATM   28  C   UNL     1      28.314  37.769  47.920  1.00  0.00     0.095 C 
ENDBRANCH  24  27
ENDBRANCH   1  21
BRANCH  16  29
HETATM   29  N   UNL     1      24.004  47.624  50.808  1.00  0.00    -0.272 NA
HETATM   30  H   UNL     1      24.337  48.005  49.927  1.00  0.00     0.127 HD
HETATM   31  H   UNL     1      23.941  48.329  51.531  1.00  0.00     0.127 HD
ENDBRANCH  16  29
TORSDOF 3
ENDMDL
MODEL 4
REMARK VINA RESULT:      -8.5      2.938      5.804
REMARK  3 active torsions:
REMARK  status: ('A' for Active; 'I' for Inactive)
REMARK    1  A    between atoms: S_2  and  C_3 
REMARK    2  A    between atoms: C_6  and  C_7 
REMARK    3  A    between atoms: C_22  and  N_23 
ROOT
HETATM    1  C   UNL     1      26.019  44.995  51.364  1.00  0.00     0.078 C 
HETATM    2  C   UNL     1      26.746  44.052  50.407  1.00  0.00     0.127 C 
HETATM    3  C   UNL     1      27.562  43.047  51.177  1.00  0.00     0.060 C 
HETATM    4  C   UNL     1      27.458  41.747  50.529  1.00  0.00     0.003 A 
HETATM    5  C   UNL     1      26.432  41.797  49.594  1.00  0.00     0.023 A 
HETATM    6  C   UNL     1      26.023  40.670  48.905  1.00  0.00     0.016 A 
HETATM    7  C   UNL     1      26.688  39.471  49.182  1.00  0.00     0.001 A 
HETATM    8  C   UNL     1      27.727  39.422  50.133  1.00  0.00     0.001 A 
HETATM    9  C   UNL     1      28.117  40.570  50.827  1.00  0.00     0.014 A 
HETATM   10  C   UNL     1      25.880  43.156  49.536  1.00  0.00     0.171 C 
HETATM   11  O   UNL     1      24.909  43.463  48.872  1.00  0.00    -0.291 OA
HETATM   12  N   UNL     1      28.180  43.251  52.289  1.00  0.00    -0.231 NA
HETATM   13  C   UNL     1      27.900  44.427  52.942  1.00  0.00     0.165 C 
HETATM   14  C   UNL     1      26.851  45.206  52.613  1.00  0.00     0.067 C 
HETATM   15  N   UNL     1      28.693  44.626  54.040  1.00  0.00    -0.200 NA
HETATM   16  C   UNL     1      28.398  45.594  54.839  1.00  0.00     0.181 C 
HETATM   17  N   UNL     1      27.336  46.410  54.635  1.00  0.00    -0.298 N 
HETATM   18  C   UNL     1      26.470  46.235  53.599  1.00  0.00     0.258 C 
HETATM   19  O   UNL     1      25.419  46.864  53.539  1.00  0.00    -0.267 OA
HETATM   20  H   UNL     1      27.106  47.133  55.297  1.00  0.00     0.171 HD
ENDROOT
BRANCH   1  21
HETATM   21  C   UNL     1      25.694  46.282  50.598  1.00  0.00    -0.048 A 
HETATM   22  C   UNL     1      24.355  46.621  50.355  1.00  0.00     0.009 A 
HETATM   23  C   UNL     1      24.019  47.783  49.648  1.00  0.00     0.019 A 
HETATM   24  C   UNL     1      25.012  48.639  49.168  1.00  0.00    -0.000 A 
HETATM   25  C   UNL     1      26.350  48.296  49.399  1.00  0.00     0.019 A 
HETATM   26  C   UNL     1      26.690  47.129  50.093  1.00  0.00     0.009 A 
BRANCH  24  27
HETATM   27  S   UNL     1      24.710  50.162  48.279  1.00  0.00    -0.134 SA
HETATM   28  C   UNL     1      23.166  50.773  49.006  1.00  0.00     0.095 C 
ENDBRANCH  24  27
ENDBRANCH   1  21
BRANCH  16  29
HETATM   29  N   UNL     1      29.147  45.823  55.945  1.00  0.00    -0.272 NA
HETATM   30  H   UNL     1      28.564  46.108  56.727  1.00  0.00     0.127 HD
HETATM   31  H   UNL     1      29.947  46.430  55.824  1.00  0.00     0.127 HD
ENDBRANCH  16  29
TORSDOF 3
ENDMDL
MODEL 5
REMARK VINA RESULT:      -8.5      2.119      5.354
REMARK  3 active torsions:
REMARK  status: ('A' for Active; 'I' for Inactive)
REMARK    1  A    between atoms: S_2  and  C_3 
REMARK    2  A    between atoms: C_6  and  C_7 
REMARK    3  A    between atoms: C_22  and  N_23 
ROOT
HETATM    1  C   UNL     1      26.891  42.728  52.005  1.00  0.00     0.078 C 
HETATM    2  C   UNL     1      27.476  41.901  50.862  1.00  0.00     0.127 C 
HETATM    3  C   UNL     1      28.582  41.012  51.368  1.00  0.00     0.060 C 
HETATM    4  C   UNL     1      28.493  39.716  50.711  1.00  0.00     0.003 A 
HETATM    5  C   UNL     1      27.269  39.631  50.057  1.00  0.00     0.023 A 
HETATM    6  C   UNL     1      26.855  38.465  49.443  1.00  0.00     0.016 A 
HETATM    7  C   UNL     1      27.719  37.366  49.500  1.00  0.00     0.001 A 
HETATM    8  C   UNL     1      28.958  37.452  50.166  1.00  0.00     0.001 A 
HETATM    9  C   UNL     1      29.353  38.638  50.791  1.00  0.00     0.014 A 
HETATM   10  C   UNL     1      26.548  40.902  50.192  1.00  0.00     0.171 C 
HETATM   11  O   UNL     1      25.411  41.079  49.797  1.00  0.00    -0.291 OA
HETATM   12  N   UNL     1      29.422  41.291  52.303  1.00  0.00    -0.231 NA
HETATM   13  C   UNL     1      29.161  42.412  53.053  1.00  0.00     0.165 C 
HETATM   14  C   UNL     1      27.970  43.041  53.022  1.00  0.00     0.067 C 
HETATM   15  N   UNL     1      30.168  42.708  53.933  1.00  0.00    -0.200 NA
HETATM   16  C   UNL     1      29.954  43.621  54.819  1.00  0.00     0.181 C 
HETATM   17  N   UNL     1      28.777  44.285  54.914  1.00  0.00    -0.298 N 
HETATM   18  C   UNL     1      27.713  44.001  54.113  1.00  0.00     0.258 C 
HETATM   19  O   UNL     1      26.607  44.480  54.336  1.00  0.00    -0.267 OA
HETATM   20  H   UNL     1      28.625  44.964  55.640  1.00  0.00     0.171 HD
ENDROOT
BRANCH   1  21
HETATM   21  C   UNL     1      26.221  43.964  51.396  1.00  0.00    -0.048 A 
HETATM   22  C   UNL     1      24.838  44.142  51.540  1.00  0.00     0.009 A 
HETATM   23  C   UNL     1      24.188  45.253  50.987  1.00  0.00     0.019 A 
HETATM   24  C   UNL     1      24.904  46.218  50.277  1.00  0.00    -0.000 A 
HETATM   25  C   UNL     1      26.284  46.037  50.120  1.00  0.00     0.019 A 
HETATM   26  C   UNL     1      26.935  44.921  50.660  1.00  0.00     0.009 A 
BRANCH  24  27
HETATM   27  S   UNL     1      24.195  47.691  49.549  1.00  0.00    -0.134 SA
HETATM   28  C   UNL     1      25.643  48.718  49.184  1.00  0.00     0.095 C 
ENDBRANCH  24  27
ENDBRANCH   1  21
BRANCH  16  29
HETATM   29  N   UNL     1      30.916  43.942  55.718  1.00  0.00    -0.272 NA
HETATM   30  H   UNL     1      31.131  43.151  56.319  1.00  0.00     0.127 HD
HETATM   31  H   UNL     1      30.767  44.793  56.245  1.00  0.00     0.127 HD
ENDBRANCH  16  29
TORSDOF 3
ENDMDL
MODEL 6
REMARK VINA RESULT:      -8.5      3.684      5.498
REMARK  3 active torsions:
REMARK  status: ('A' for Active; 'I' for Inactive)
REMARK    1  A    between atoms: S_2  and  C_3 
REMARK    2  A    between atoms: C_6  and  C_7 
REMARK    3  A    between atoms: C_22  and  N_23 
ROOT
HETATM    1  C   UNL     1      25.628  43.228  51.172  1.00  0.00     0.078 C 
HETATM    2  C   UNL     1      26.762  44.106  51.696  1.00  0.00     0.127 C 
HETATM    3  C   UNL     1      26.260  45.497  51.986  1.00  0.00     0.060 C 
HETATM    4  C   UNL     1      26.877  45.984  53.212  1.00  0.00     0.003 A 
HETATM    5  C   UNL     1      27.497  44.918  53.852  1.00  0.00     0.023 A 
HETATM    6  C   UNL     1      28.067  45.056  55.103  1.00  0.00     0.016 A 
HETATM    7  C   UNL     1      28.001  46.317  55.705  1.00  0.00     0.001 A 
HETATM    8  C   UNL     1      27.370  47.397  55.055  1.00  0.00     0.001 A 
HETATM    9  C   UNL     1      26.789  47.233  53.794  1.00  0.00     0.014 A 
HETATM   10  C   UNL     1      27.380  43.709  53.027  1.00  0.00     0.171 C 
HETATM   11  O   UNL     1      27.750  42.608  53.386  1.00  0.00    -0.291 OA
HETATM   12  N   UNL     1      25.355  46.137  51.330  1.00  0.00    -0.231 NA
HETATM   13  C   UNL     1      24.630  45.414  50.413  1.00  0.00     0.165 C 
HETATM   14  C   UNL     1      24.649  44.068  50.377  1.00  0.00     0.067 C 
HETATM   15  N   UNL     1      23.786  46.195  49.670  1.00  0.00    -0.200 NA
HETATM   16  C   UNL     1      22.921  45.609  48.914  1.00  0.00     0.181 C 
HETATM   17  N   UNL     1      22.815  44.260  48.836  1.00  0.00    -0.298 N 
HETATM   18  C   UNL     1      23.579  43.424  49.590  1.00  0.00     0.258 C 
HETATM   19  O   UNL     1      23.341  42.222  49.642  1.00  0.00    -0.267 OA
HETATM   20  H   UNL     1      22.104  43.831  48.268  1.00  0.00     0.171 HD
ENDROOT
BRANCH   1  21
HETATM   21  C   UNL     1      26.255  42.074  50.383  1.00  0.00    -0.048 A 
HETATM   22  C   UNL     1      26.921  42.342  49.178  1.00  0.00     0.009 A 
HETATM   23  C   UNL     1      27.495  41.311  48.423  1.00  0.00     0.019 A 
HETATM   24  C   UNL     1      27.422  39.985  48.851  1.00  0.00    -0.000 A 
HETATM   25  C   UNL     1      26.746  39.712  50.048  1.00  0.00     0.019 A 
HETATM   26  C   UNL     1      26.159  40.738  50.799  1.00  0.00     0.009 A 
BRANCH  24  27
HETATM   27  S   UNL     1      28.137  38.589  47.992  1.00  0.00    -0.134 SA
HETATM   28  C   UNL     1      29.592  38.180  48.993  1.00  0.00     0.095 C 
ENDBRANCH  24  27
ENDBRANCH   1  21
BRANCH  16  29
HETATM   29  N   UNL     1      22.056  46.338  48.168  1.00  0.00    -0.272 NA
HETATM   30  H   UNL     1      22.225  46.201  47.176  1.00  0.00     0.127 HD
HETATM   31  H   UNL     1      21.974  47.317  48.411  1.00  0.00     0.127 HD
ENDBRANCH  16  29
TORSDOF 3
ENDMDL
MODEL 7
REMARK VINA RESULT:      -8.1      3.444      5.338
REMARK  3 active torsions:
REMARK  status: ('A' for Active; 'I' for Inactive)
REMARK    1  A    between atoms: S_2  and  C_3 
REMARK    2  A    between atoms: C_6  and  C_7 
REMARK    3  A    between atoms: C_22  and  N_23 
ROOT
HETATM    1  C   UNL     1      26.350  41.948  50.523  1.00  0.00     0.078 C 
HETATM    2  C   UNL     1      27.621  42.611  51.048  1.00  0.00     0.127 C 
HETATM    3  C   UNL     1      27.283  43.864  51.814  1.00  0.00     0.060 C 
HETATM    4  C   UNL     1      28.143  43.957  52.985  1.00  0.00     0.003 A 
HETATM    5  C   UNL     1      28.786  42.738  53.164  1.00  0.00     0.023 A 
HETATM    6  C   UNL     1      29.578  42.491  54.269  1.00  0.00     0.016 A 
HETATM    7  C   UNL     1      29.714  43.520  55.206  1.00  0.00     0.001 A 
HETATM    8  C   UNL     1      29.059  44.755  55.025  1.00  0.00     0.001 A 
HETATM    9  C   UNL     1      28.252  44.981  53.906  1.00  0.00     0.014 A 
HETATM   10  C   UNL     1      28.434  41.828  52.066  1.00  0.00     0.171 C 
HETATM   11  O   UNL     1      28.779  40.664  52.018  1.00  0.00    -0.291 OA
HETATM   12  N   UNL     1      26.326  44.686  51.554  1.00  0.00    -0.231 NA
HETATM   13  C   UNL     1      25.398  44.279  50.626  1.00  0.00     0.165 C 
HETATM   14  C   UNL     1      25.310  43.003  50.203  1.00  0.00     0.067 C 
HETATM   15  N   UNL     1      24.496  45.260  50.313  1.00  0.00    -0.200 NA
HETATM   16  C   UNL     1      23.469  44.939  49.601  1.00  0.00     0.181 C 
HETATM   17  N   UNL     1      23.251  43.676  49.163  1.00  0.00    -0.298 N 
HETATM   18  C   UNL     1      24.072  42.640  49.486  1.00  0.00     0.258 C 
HETATM   19  O   UNL     1      23.759  41.481  49.237  1.00  0.00    -0.267 OA
HETATM   20  H   UNL     1      22.420  43.446  48.643  1.00  0.00     0.171 HD
ENDROOT
BRANCH   1  21
HETATM   21  C   UNL     1      26.739  41.065  49.332  1.00  0.00    -0.048 A 
HETATM   22  C   UNL     1      26.573  39.676  49.419  1.00  0.00     0.009 A 
HETATM   23  C   UNL     1      26.929  38.835  48.355  1.00  0.00     0.019 A 
HETATM   24  C   UNL     1      27.457  39.362  47.175  1.00  0.00    -0.000 A 
HETATM   25  C   UNL     1      27.635  40.749  47.090  1.00  0.00     0.019 A 
HETATM   26  C   UNL     1      27.293  41.590  48.156  1.00  0.00     0.009 A 
BRANCH  24  27
HETATM   27  S   UNL     1      27.921  38.398  45.741  1.00  0.00    -0.134 SA
HETATM   28  C   UNL     1      28.833  37.002  46.451  1.00  0.00     0.095 C 
ENDBRANCH  24  27
ENDBRANCH   1  21
BRANCH  16  29
HETATM   29  N   UNL     1      22.542  45.872  49.275  1.00  0.00    -0.272 NA
HETATM   30  H   UNL     1      22.295  46.439  50.082  1.00  0.00     0.127 HD
HETATM   31  H   UNL     1      21.726  45.536  48.780  1.00  0.00     0.127 HD
ENDBRANCH  16  29
TORSDOF 3
ENDMDL
MODEL 8
REMARK VINA RESULT:      -8.1      6.117      8.775
REMARK  3 active torsions:
REMARK  status: ('A' for Active; 'I' for Inactive)
REMARK    1  A    between atoms: S_2  and  C_3 
REMARK    2  A    between atoms: C_6  and  C_7 
REMARK    3  A    between atoms: C_22  and  N_23 
ROOT
HETATM    1  C   UNL     1      21.450  48.346  48.021  1.00  0.00     0.078 C 
HETATM    2  C   UNL     1      22.452  48.128  49.153  1.00  0.00     0.127 C 
HETATM    3  C   UNL     1      23.070  46.758  49.052  1.00  0.00     0.060 C 
HETATM    4  C   UNL     1      24.486  46.846  49.380  1.00  0.00     0.003 A 
HETATM    5  C   UNL     1      24.856  48.186  49.401  1.00  0.00     0.023 A 
HETATM    6  C   UNL     1      26.172  48.571  49.569  1.00  0.00     0.016 A 
HETATM    7  C   UNL     1      27.125  47.559  49.722  1.00  0.00     0.001 A 
HETATM    8  C   UNL     1      26.749  46.201  49.697  1.00  0.00     0.001 A 
HETATM    9  C   UNL     1      25.413  45.831  49.515  1.00  0.00     0.014 A 
HETATM   10  C   UNL     1      23.676  49.028  49.169  1.00  0.00     0.171 C 
HETATM   11  O   UNL     1      23.724  50.236  49.043  1.00  0.00    -0.291 OA
HETATM   12  N   UNL     1      22.489  45.683  48.646  1.00  0.00    -0.231 NA
HETATM   13  C   UNL     1      21.259  45.833  48.052  1.00  0.00     0.165 C 
HETATM   14  C   UNL     1      20.790  47.032  47.655  1.00  0.00     0.067 C 
HETATM   15  N   UNL     1      20.656  44.637  47.771  1.00  0.00    -0.200 NA
HETATM   16  C   UNL     1      19.590  44.647  47.045  1.00  0.00     0.181 C 
HETATM   17  N   UNL     1      19.056  45.789  46.547  1.00  0.00    -0.298 N 
HETATM   18  C   UNL     1      19.636  47.007  46.735  1.00  0.00     0.258 C 
HETATM   19  O   UNL     1      19.244  47.996  46.126  1.00  0.00    -0.267 OA
HETATM   20  H   UNL     1      18.247  45.763  45.950  1.00  0.00     0.171 HD
ENDROOT
BRANCH   1  21
HETATM   21  C   UNL     1      20.473  49.441  48.463  1.00  0.00    -0.048 A 
HETATM   22  C   UNL     1      20.523  50.700  47.849  1.00  0.00     0.009 A 
HETATM   23  C   UNL     1      19.653  51.730  48.234  1.00  0.00     0.019 A 
HETATM   24  C   UNL     1      18.709  51.527  49.242  1.00  0.00    -0.000 A 
HETATM   25  C   UNL     1      18.665  50.273  49.866  1.00  0.00     0.019 A 
HETATM   26  C   UNL     1      19.541  49.247  49.493  1.00  0.00     0.009 A 
BRANCH  24  27
HETATM   27  S   UNL     1      17.529  52.749  49.802  1.00  0.00    -0.134 SA
HETATM   28  C   UNL     1      15.927  51.997  49.411  1.00  0.00     0.095 C 
ENDBRANCH  24  27
ENDBRANCH   1  21
BRANCH  16  29
HETATM   29  N   UNL     1      18.963  43.487  46.730  1.00  0.00    -0.272 NA
HETATM   30  H   UNL     1      19.625  42.718  46.676  1.00  0.00     0.127 HD
HETATM   31  H   UNL     1      18.346  43.517  45.930  1.00  0.00     0.127 HD
ENDBRANCH  16  29
TORSDOF 3
ENDMDL
MODEL 9
REMARK VINA RESULT:      -7.7      1.943      5.327
REMARK  3 active torsions:
REMARK  status: ('A' for Active; 'I' for Inactive)
REMARK    1  A    between atoms: S_2  and  C_3 
REMARK    2  A    between atoms: C_6  and  C_7 
REMARK    3  A    between atoms: C_22  and  N_23 
ROOT
HETATM    1  C   UNL     1      25.632  42.622  51.042  1.00  0.00     0.078 C 
HETATM    2  C   UNL     1      26.487  41.893  50.007  1.00  0.00     0.127 C 
HETATM    3  C   UNL     1      27.715  41.309  50.655  1.00  0.00     0.060 C 
HETATM    4  C   UNL     1      27.977  39.995  50.087  1.00  0.00     0.003 A 
HETATM    5  C   UNL     1      26.867  39.597  49.352  1.00  0.00     0.023 A 
HETATM    6  C   UNL     1      26.782  38.337  48.792  1.00  0.00     0.016 A 
HETATM    7  C   UNL     1      27.861  37.470  48.991  1.00  0.00     0.001 A 
HETATM    8  C   UNL     1      28.985  37.873  49.739  1.00  0.00     0.001 A 
HETATM    9  C   UNL     1      29.048  39.149  50.307  1.00  0.00     0.014 A 
HETATM   10  C   UNL     1      25.869  40.674  49.342  1.00  0.00     0.171 C 
HETATM   11  O   UNL     1      24.762  40.564  48.853  1.00  0.00    -0.291 OA
HETATM   12  N   UNL     1      28.385  41.822  51.629  1.00  0.00    -0.231 NA
HETATM   13  C   UNL     1      27.813  42.890  52.276  1.00  0.00     0.165 C 
HETATM   14  C   UNL     1      26.519  43.227  52.112  1.00  0.00     0.067 C 
HETATM   15  N   UNL     1      28.646  43.455  53.204  1.00  0.00    -0.200 NA
HETATM   16  C   UNL     1      28.155  44.339  54.005  1.00  0.00     0.181 C 
HETATM   17  N   UNL     1      26.855  44.719  53.966  1.00  0.00    -0.298 N 
HETATM   18  C   UNL     1      25.957  44.157  53.111  1.00  0.00     0.258 C 
HETATM   19  O   UNL     1      24.756  44.380  53.216  1.00  0.00    -0.267 OA
HETATM   20  H   UNL     1      26.490  45.382  54.629  1.00  0.00     0.171 HD
ENDROOT
BRANCH   1  21
HETATM   21  C   UNL     1      24.758  43.638  50.299  1.00  0.00    -0.048 A 
HETATM   22  C   UNL     1      23.381  43.404  50.175  1.00  0.00     0.009 A 
HETATM   23  C   UNL     1      22.552  44.304  49.492  1.00  0.00     0.019 A 
HETATM   24  C   UNL     1      23.077  45.463  48.917  1.00  0.00    -0.000 A 
HETATM   25  C   UNL     1      24.454  45.692  49.029  1.00  0.00     0.019 A 
HETATM   26  C   UNL     1      25.288  44.789  49.699  1.00  0.00     0.009 A 
BRANCH  24  27
HETATM   27  S   UNL     1      22.119  46.699  48.047  1.00  0.00    -0.134 SA
HETATM   28  C   UNL     1      20.410  46.301  48.499  1.00  0.00     0.095 C 
ENDBRANCH  24  27
ENDBRANCH   1  21
BRANCH  16  29
HETATM   29  N   UNL     1      28.937  44.919  54.949  1.00  0.00    -0.272 NA
HETATM   30  H   UNL     1      29.270  44.231  55.619  1.00  0.00     0.127 HD
HETATM   31  H   UNL     1      28.555  45.739  55.402  1.00  0.00     0.127 HD
ENDBRANCH  16  29
TORSDOF 3
ENDMDL
MODEL 10
REMARK VINA RESULT:      -7.7      2.723      6.250
REMARK  3 active torsions:
REMARK  status: ('A' for Active; 'I' for Inactive)
REMARK    1  A    between atoms: S_2  and  C_3 
REMARK    2  A    between atoms: C_6  and  C_7 
REMARK    3  A    between atoms: C_22  and  N_23 
ROOT
HETATM    1  C   UNL     1      26.968  42.053  51.978  1.00  0.00     0.078 C 
HETATM    2  C   UNL     1      26.407  42.944  50.872  1.00  0.00     0.127 C 
HETATM    3  C   UNL     1      26.209  42.151  49.607  1.00  0.00     0.060 C 
HETATM    4  C   UNL     1      24.966  42.566  48.971  1.00  0.00     0.003 A 
HETATM    5  C   UNL     1      24.243  43.340  49.870  1.00  0.00     0.023 A 
HETATM    6  C   UNL     1      22.964  43.778  49.584  1.00  0.00     0.016 A 
HETATM    7  C   UNL     1      22.421  43.414  48.347  1.00  0.00     0.001 A 
HETATM    8  C   UNL     1      23.154  42.626  47.438  1.00  0.00     0.001 A 
HETATM    9  C   UNL     1      24.443  42.184  47.751  1.00  0.00     0.014 A 
HETATM   10  C   UNL     1      25.024  43.531  51.098  1.00  0.00     0.171 C 
HETATM   11  O   UNL     1      24.596  44.090  52.090  1.00  0.00    -0.291 OA
HETATM   12  N   UNL     1      26.948  41.185  49.184  1.00  0.00    -0.231 NA
HETATM   13  C   UNL     1      27.880  40.690  50.064  1.00  0.00     0.165 C 
HETATM   14  C   UNL     1      27.860  40.985  51.378  1.00  0.00     0.067 C 
HETATM   15  N   UNL     1      28.708  39.762  49.493  1.00  0.00    -0.200 NA
HETATM   16  C   UNL     1      29.495  39.091  50.265  1.00  0.00     0.181 C 
HETATM   17  N   UNL     1      29.525  39.266  51.608  1.00  0.00    -0.298 N 
HETATM   18  C   UNL     1      28.688  40.127  52.249  1.00  0.00     0.258 C 
HETATM   19  O   UNL     1      28.603  40.135  53.472  1.00  0.00    -0.267 OA
HETATM   20  H   UNL     1      30.120  38.700  52.189  1.00  0.00     0.171 HD
ENDROOT
BRANCH   1  21
HETATM   21  C   UNL     1      27.667  42.956  53.000  1.00  0.00    -0.048 A 
HETATM   22  C   UNL     1      26.950  43.429  54.108  1.00  0.00     0.009 A 
HETATM   23  C   UNL     1      27.551  44.267  55.057  1.00  0.00     0.019 A 
HETATM   24  C   UNL     1      28.886  44.653  54.925  1.00  0.00    -0.000 A 
HETATM   25  C   UNL     1      29.601  44.192  53.812  1.00  0.00     0.019 A 
HETATM   26  C   UNL     1      29.000  43.366  52.855  1.00  0.00     0.009 A 
BRANCH  24  27
HETATM   27  S   UNL     1      29.771  45.692  56.081  1.00  0.00    -0.134 SA
HETATM   28  C   UNL     1      30.889  44.535  56.915  1.00  0.00     0.095 C 
ENDBRANCH  24  27
ENDBRANCH   1  21
BRANCH  16  29
HETATM   29  N   UNL     1      30.326  38.153  49.748  1.00  0.00    -0.272 NA
HETATM   30  H   UNL     1      30.091  37.950  48.780  1.00  0.00     0.127 HD
HETATM   31  H   UNL     1      30.443  37.311  50.297  1.00  0.00     0.127 HD
ENDBRANCH  16  29
TORSDOF 3
ENDMDL
