MODEL 1
REMARK VINA RESULT:      -8.7      0.000      0.000
REMARK  3 active torsions:
REMARK  status: ('A' for Active; 'I' for Inactive)
REMARK    1  A    between atoms: C_6  and  C_7 
REMARK       I    between atoms: C_7  and  N_8 
REMARK    2  A    between atoms: N_8  and  C_9 
REMARK    3  A    between atoms: C_11  and  C_12 
REMARK       I    between atoms: C_12  and  N_13 
ROOT
HETATM    1  C   UNL     1      27.239  44.270  53.517  1.00  0.00     0.258 C 
HETATM    2  N   UNL     1      27.539  44.613  52.213  1.00  0.00    -0.307 N 
HETATM    3  O   UNL     1      26.142  44.061  54.015  1.00  0.00    -0.267 OA
HETATM    4  H   UNL     1      28.512  44.720  51.968  1.00  0.00     0.170 HD
ENDROOT
BRANCH   2   5
HETATM    5  C   UNL     1      26.593  44.831  51.205  1.00  0.00     0.131 A 
HETATM    6  N   UNL     1      26.084  46.056  51.012  1.00  0.00    -0.226 NA
HETATM    7  C   UNL     1      25.174  46.215  50.016  1.00  0.00     0.126 A 
HETATM    8  C   UNL     1      24.750  45.191  49.187  1.00  0.00     0.037 A 
HETATM    9  C   UNL     1      25.287  43.927  49.397  1.00  0.00     0.006 A 
HETATM   10  C   UNL     1      26.218  43.743  50.422  1.00  0.00     0.050 A 
BRANCH   7  11
HETATM   11  C   UNL     1      24.631  47.599  49.855  1.00  0.00     0.268 C 
HETATM   12  N   UNL     1      23.265  47.675  49.801  1.00  0.00    -0.365 N 
HETATM   13  H   UNL     1      22.719  46.818  49.881  1.00  0.00     0.159 HD
HETATM   14  H   UNL     1      22.805  48.566  49.696  1.00  0.00     0.159 HD
HETATM   15  O   UNL     1      25.348  48.588  49.774  1.00  0.00    -0.266 OA
ENDBRANCH   7  11
ENDBRANCH   2   5
BRANCH   1  16
HETATM   16  C   UNL     1      28.450  44.134  54.371  1.00  0.00     0.044 A 
HETATM   17  C   UNL     1      29.160  42.915  54.401  1.00  0.00    -0.045 A 
HETATM   18  C   UNL     1      30.262  42.797  55.261  1.00  0.00     0.014 A 
HETATM   19  C   UNL     1      28.772  41.736  53.551  1.00  0.00     0.049 C 
HETATM   20  C   UNL     1      30.675  43.872  56.057  1.00  0.00    -0.061 A 
HETATM   21  C   UNL     1      31.890  43.743  56.931  1.00  0.00     0.048 C 
HETATM   22  C   UNL     1      29.991  45.091  55.975  1.00  0.00     0.014 A 
HETATM   23  C   UNL     1      28.869  45.235  55.146  1.00  0.00    -0.045 A 
HETATM   24  C   UNL     1      28.166  46.564  55.080  1.00  0.00     0.049 C 
ENDBRANCH   1  16
TORSDOF 3
ENDMDL
MODEL 2
REMARK VINA RESULT:      -8.7      0.093      1.901
REMARK  3 active torsions:
REMARK  status: ('A' for Active; 'I' for Inactive)
REMARK    1  A    between atoms: C_6  and  C_7 
REMARK       I    between atoms: C_7  and  N_8 
REMARK    2  A    between atoms: N_8  and  C_9 
REMARK    3  A    between atoms: C_11  and  C_12 
REMARK       I    between atoms: C_12  and  N_13 
ROOT
HETATM    1  C   UNL     1      27.176  44.248  53.501  1.00  0.00     0.258 C 
HETATM    2  N   UNL     1      27.493  44.591  52.202  1.00  0.00    -0.307 N 
HETATM    3  O   UNL     1      26.072  44.042  53.986  1.00  0.00    -0.267 OA
HETATM    4  H   UNL     1      28.470  44.694  51.969  1.00  0.00     0.170 HD
ENDROOT
BRANCH   2   5
HETATM    5  C   UNL     1      26.561  44.814  51.182  1.00  0.00     0.131 A 
HETATM    6  N   UNL     1      26.043  46.036  50.999  1.00  0.00    -0.226 NA
HETATM    7  C   UNL     1      25.147  46.201  49.991  1.00  0.00     0.126 A 
HETATM    8  C   UNL     1      24.745  45.184  49.142  1.00  0.00     0.037 A 
HETATM    9  C   UNL     1      25.292  43.923  49.342  1.00  0.00     0.006 A 
HETATM   10  C   UNL     1      26.209  43.733  50.378  1.00  0.00     0.050 A 
BRANCH   7  11
HETATM   11  C   UNL     1      24.592  47.581  49.842  1.00  0.00     0.268 C 
HETATM   12  N   UNL     1      23.226  47.646  49.770  1.00  0.00    -0.365 N 
HETATM   13  H   UNL     1      22.688  46.782  49.832  1.00  0.00     0.159 HD
HETATM   14  H   UNL     1      22.759  48.533  49.671  1.00  0.00     0.159 HD
HETATM   15  O   UNL     1      25.300  48.578  49.783  1.00  0.00    -0.266 OA
ENDBRANCH   7  11
ENDBRANCH   2   5
BRANCH   1  16
HETATM   16  C   UNL     1      28.376  44.106  54.370  1.00  0.00     0.044 A 
HETATM   17  C   UNL     1      28.802  45.189  55.168  1.00  0.00    -0.045 A 
HETATM   18  C   UNL     1      29.971  45.046  55.930  1.00  0.00     0.014 A 
HETATM   19  C   UNL     1      28.053  46.492  55.224  1.00  0.00     0.049 C 
HETATM   20  C   UNL     1      30.692  43.846  55.929  1.00  0.00    -0.061 A 
HETATM   21  C   UNL     1      31.910  43.695  56.794  1.00  0.00     0.048 C 
HETATM   22  C   UNL     1      30.225  42.765  55.171  1.00  0.00     0.014 A 
HETATM   23  C   UNL     1      29.075  42.882  54.377  1.00  0.00    -0.045 A 
HETATM   24  C   UNL     1      28.603  41.694  53.584  1.00  0.00     0.049 C 
ENDBRANCH   1  16
TORSDOF 3
ENDMDL
MODEL 3
REMARK VINA RESULT:      -8.4      1.815      2.874
REMARK  3 active torsions:
REMARK  status: ('A' for Active; 'I' for Inactive)
REMARK    1  A    between atoms: C_6  and  C_7 
REMARK       I    between atoms: C_7  and  N_8 
REMARK    2  A    between atoms: N_8  and  C_9 
REMARK    3  A    between atoms: C_11  and  C_12 
REMARK       I    between atoms: C_12  and  N_13 
ROOT
HETATM    1  C   UNL     1      26.890  44.683  53.872  1.00  0.00     0.258 C 
HETATM    2  N   UNL     1      27.088  45.161  52.592  1.00  0.00    -0.307 N 
HETATM    3  O   UNL     1      25.832  44.468  54.448  1.00  0.00    -0.267 OA
HETATM    4  H   UNL     1      28.039  45.250  52.267  1.00  0.00     0.170 HD
ENDROOT
BRANCH   2   5
HETATM    5  C   UNL     1      26.069  45.540  51.712  1.00  0.00     0.131 A 
HETATM    6  N   UNL     1      25.104  44.671  51.383  1.00  0.00    -0.226 NA
HETATM    7  C   UNL     1      24.134  45.090  50.530  1.00  0.00     0.126 A 
HETATM    8  C   UNL     1      24.081  46.364  49.988  1.00  0.00     0.037 A 
HETATM    9  C   UNL     1      25.086  47.255  50.339  1.00  0.00     0.006 A 
HETATM   10  C   UNL     1      26.096  46.839  51.208  1.00  0.00     0.050 A 
BRANCH   7  11
HETATM   11  C   UNL     1      23.092  44.074  50.189  1.00  0.00     0.268 C 
HETATM   12  N   UNL     1      22.070  44.541  49.406  1.00  0.00    -0.365 N 
HETATM   13  H   UNL     1      22.086  45.515  49.105  1.00  0.00     0.159 HD
HETATM   14  H   UNL     1      21.321  43.929  49.121  1.00  0.00     0.159 HD
HETATM   15  O   UNL     1      23.143  42.915  50.580  1.00  0.00    -0.266 OA
ENDBRANCH   7  11
ENDBRANCH   2   5
BRANCH   1  16
HETATM   16  C   UNL     1      28.164  44.390  54.583  1.00  0.00     0.044 A 
HETATM   17  C   UNL     1      28.765  45.379  55.390  1.00  0.00    -0.045 A 
HETATM   18  C   UNL     1      29.996  45.096  55.999  1.00  0.00     0.014 A 
HETATM   19  C   UNL     1      28.137  46.728  55.614  1.00  0.00     0.049 C 
HETATM   20  C   UNL     1      30.612  43.849  55.839  1.00  0.00    -0.061 A 
HETATM   21  C   UNL     1      31.903  43.547  56.544  1.00  0.00     0.048 C 
HETATM   22  C   UNL     1      29.975  42.862  55.077  1.00  0.00     0.014 A 
HETATM   23  C   UNL     1      28.757  43.120  54.432  1.00  0.00    -0.045 A 
HETATM   24  C   UNL     1      28.102  42.030  53.629  1.00  0.00     0.049 C 
ENDBRANCH   1  16
TORSDOF 3
ENDMDL
MODEL 4
REMARK VINA RESULT:      -8.4      1.783      2.209
REMARK  3 active torsions:
REMARK  status: ('A' for Active; 'I' for Inactive)
REMARK    1  A    between atoms: C_6  and  C_7 
REMARK       I    between atoms: C_7  and  N_8 
REMARK    2  A    between atoms: N_8  and  C_9 
REMARK    3  A    between atoms: C_11  and  C_12 
REMARK       I    between atoms: C_12  and  N_13 
ROOT
HETATM    1  C   UNL     1      27.098  44.526  53.848  1.00  0.00     0.258 C 
HETATM    2  N   UNL     1      27.296  45.054  52.588  1.00  0.00    -0.307 N 
HETATM    3  O   UNL     1      26.042  44.235  54.394  1.00  0.00    -0.267 OA
HETATM    4  H   UNL     1      28.248  45.205  52.288  1.00  0.00     0.170 HD
ENDROOT
BRANCH   2   5
HETATM    5  C   UNL     1      26.276  45.403  51.697  1.00  0.00     0.131 A 
HETATM    6  N   UNL     1      25.683  44.463  50.949  1.00  0.00    -0.226 NA
HETATM    7  C   UNL     1      24.694  44.854  50.104  1.00  0.00     0.126 A 
HETATM    8  C   UNL     1      24.260  46.162  49.977  1.00  0.00     0.037 A 
HETATM    9  C   UNL     1      24.881  47.126  50.760  1.00  0.00     0.006 A 
HETATM   10  C   UNL     1      25.906  46.744  51.628  1.00  0.00     0.050 A 
BRANCH   7  11
HETATM   11  C   UNL     1      24.078  43.765  49.285  1.00  0.00     0.268 C 
HETATM   12  N   UNL     1      24.329  43.845  47.942  1.00  0.00    -0.365 N 
HETATM   13  H   UNL     1      24.908  44.608  47.593  1.00  0.00     0.159 HD
HETATM   14  H   UNL     1      23.959  43.155  47.308  1.00  0.00     0.159 HD
HETATM   15  O   UNL     1      23.399  42.871  49.774  1.00  0.00    -0.266 OA
ENDBRANCH   7  11
ENDBRANCH   2   5
BRANCH   1  16
HETATM   16  C   UNL     1      28.371  44.282  54.580  1.00  0.00     0.044 A 
HETATM   17  C   UNL     1      29.032  43.043  54.452  1.00  0.00    -0.045 A 
HETATM   18  C   UNL     1      30.198  42.820  55.201  1.00  0.00     0.014 A 
HETATM   19  C   UNL     1      28.527  41.949  53.551  1.00  0.00     0.049 C 
HETATM   20  C   UNL     1      30.719  43.813  56.038  1.00  0.00    -0.061 A 
HETATM   21  C   UNL     1      31.998  43.575  56.789  1.00  0.00     0.048 C 
HETATM   22  C   UNL     1      30.078  45.056  56.111  1.00  0.00     0.014 A 
HETATM   23  C   UNL     1      28.896  45.303  55.398  1.00  0.00    -0.045 A 
HETATM   24  C   UNL     1      28.243  46.654  55.498  1.00  0.00     0.049 C 
ENDBRANCH   1  16
TORSDOF 3
ENDMDL
MODEL 5
REMARK VINA RESULT:      -7.9      3.226      4.871
REMARK  3 active torsions:
REMARK  status: ('A' for Active; 'I' for Inactive)
REMARK    1  A    between atoms: C_6  and  C_7 
REMARK       I    between atoms: C_7  and  N_8 
REMARK    2  A    between atoms: N_8  and  C_9 
REMARK    3  A    between atoms: C_11  and  C_12 
REMARK       I    between atoms: C_12  and  N_13 
ROOT
HETATM    1  C   UNL     1      27.773  43.813  52.244  1.00  0.00     0.258 C 
HETATM    2  N   UNL     1      26.956  42.706  52.360  1.00  0.00    -0.307 N 
HETATM    3  O   UNL     1      28.112  44.404  51.228  1.00  0.00    -0.267 OA
HETATM    4  H   UNL     1      26.758  42.365  53.289  1.00  0.00     0.170 HD
ENDROOT
BRANCH   2   5
HETATM    5  C   UNL     1      26.386  42.014  51.285  1.00  0.00     0.131 A 
HETATM    6  N   UNL     1      26.859  40.812  50.931  1.00  0.00    -0.226 NA
HETATM    7  C   UNL     1      26.267  40.180  49.884  1.00  0.00     0.126 A 
HETATM    8  C   UNL     1      25.202  40.702  49.170  1.00  0.00     0.037 A 
HETATM    9  C   UNL     1      24.721  41.949  49.549  1.00  0.00     0.006 A 
HETATM   10  C   UNL     1      25.323  42.617  50.617  1.00  0.00     0.050 A 
BRANCH   7  11
HETATM   11  C   UNL     1      26.844  38.848  49.526  1.00  0.00     0.268 C 
HETATM   12  N   UNL     1      26.325  37.791  50.224  1.00  0.00    -0.365 N 
HETATM   13  H   UNL     1      25.595  37.967  50.914  1.00  0.00     0.159 HD
HETATM   14  H   UNL     1      26.648  36.852  50.050  1.00  0.00     0.159 HD
HETATM   15  O   UNL     1      27.715  38.710  48.677  1.00  0.00    -0.266 OA
ENDBRANCH   7  11
ENDBRANCH   2   5
BRANCH   1  16
HETATM   16  C   UNL     1      28.254  44.316  53.559  1.00  0.00     0.044 A 
HETATM   17  C   UNL     1      27.527  45.313  54.243  1.00  0.00    -0.045 A 
HETATM   18  C   UNL     1      28.036  45.811  55.451  1.00  0.00     0.014 A 
HETATM   19  C   UNL     1      26.230  45.867  53.718  1.00  0.00     0.049 C 
HETATM   20  C   UNL     1      29.228  45.313  55.992  1.00  0.00    -0.061 A 
HETATM   21  C   UNL     1      29.729  45.822  57.313  1.00  0.00     0.048 C 
HETATM   22  C   UNL     1      29.909  44.287  55.326  1.00  0.00     0.014 A 
HETATM   23  C   UNL     1      29.442  43.785  54.102  1.00  0.00    -0.045 A 
HETATM   24  C   UNL     1      30.199  42.677  53.423  1.00  0.00     0.049 C 
ENDBRANCH   1  16
TORSDOF 3
ENDMDL
MODEL 6
REMARK VINA RESULT:      -7.9      2.544      3.433
REMARK  3 active torsions:
REMARK  status: ('A' for Active; 'I' for Inactive)
REMARK    1  A    between atoms: C_6  and  C_7 
REMARK       I    between atoms: C_7  and  N_8 
REMARK    2  A    between atoms: N_8  and  C_9 
REMARK    3  A    between atoms: C_11  and  C_12 
REMARK       I    between atoms: C_12  and  N_13 
ROOT
HETATM    1  C   UNL     1      27.576  43.991  52.194  1.00  0.00     0.258 C 
HETATM    2  N   UNL     1      26.567  43.059  52.330  1.00  0.00    -0.307 N 
HETATM    3  O   UNL     1      27.994  44.517  51.172  1.00  0.00    -0.267 OA
HETATM    4  H   UNL     1      26.333  42.753  53.263  1.00  0.00     0.170 HD
ENDROOT
BRANCH   2   5
HETATM    5  C   UNL     1      25.847  42.498  51.269  1.00  0.00     0.131 A 
HETATM    6  N   UNL     1      24.722  43.082  50.835  1.00  0.00    -0.226 NA
HETATM    7  C   UNL     1      24.064  42.500  49.799  1.00  0.00     0.126 A 
HETATM    8  C   UNL     1      24.492  41.348  49.162  1.00  0.00     0.037 A 
HETATM    9  C   UNL     1      25.661  40.754  49.621  1.00  0.00     0.006 A 
HETATM   10  C   UNL     1      26.346  41.333  50.691  1.00  0.00     0.050 A 
BRANCH   7  11
HETATM   11  C   UNL     1      22.809  43.188  49.365  1.00  0.00     0.268 C 
HETATM   12  N   UNL     1      22.424  44.233  50.160  1.00  0.00    -0.365 N 
HETATM   13  H   UNL     1      23.000  44.480  50.964  1.00  0.00     0.159 HD
HETATM   14  H   UNL     1      21.591  44.761  49.947  1.00  0.00     0.159 HD
HETATM   15  O   UNL     1      22.171  42.842  48.379  1.00  0.00    -0.266 OA
ENDBRANCH   7  11
ENDBRANCH   2   5
BRANCH   1  16
HETATM   16  C   UNL     1      28.180  44.382  53.497  1.00  0.00     0.044 A 
HETATM   17  C   UNL     1      27.607  45.424  54.257  1.00  0.00    -0.045 A 
HETATM   18  C   UNL     1      28.233  45.811  55.451  1.00  0.00     0.014 A 
HETATM   19  C   UNL     1      26.355  46.140  53.828  1.00  0.00     0.049 C 
HETATM   20  C   UNL     1      29.388  45.162  55.904  1.00  0.00    -0.061 A 
HETATM   21  C   UNL     1      30.012  45.555  57.212  1.00  0.00     0.048 C 
HETATM   22  C   UNL     1      29.912  44.095  55.164  1.00  0.00     0.014 A 
HETATM   23  C   UNL     1      29.327  43.700  53.952  1.00  0.00    -0.045 A 
HETATM   24  C   UNL     1      29.917  42.544  53.190  1.00  0.00     0.049 C 
ENDBRANCH   1  16
TORSDOF 3
ENDMDL
MODEL 7
REMARK VINA RESULT:      -7.9      1.525      2.051
REMARK  3 active torsions:
REMARK  status: ('A' for Active; 'I' for Inactive)
REMARK    1  A    between atoms: C_6  and  C_7 
REMARK       I    between atoms: C_7  and  N_8 
REMARK    2  A    between atoms: N_8  and  C_9 
REMARK    3  A    between atoms: C_11  and  C_12 
REMARK       I    between atoms: C_12  and  N_13 
ROOT
HETATM    1  C   UNL     1      25.814  44.828  52.592  1.00  0.00     0.258 C 
HETATM    2  N   UNL     1      26.033  45.467  51.388  1.00  0.00    -0.307 N 
HETATM    3  O   UNL     1      24.748  44.519  53.107  1.00  0.00    -0.267 OA
HETATM    4  H   UNL     1      26.990  45.617  51.105  1.00  0.00     0.170 HD
ENDROOT
BRANCH   2   5
HETATM    5  C   UNL     1      25.027  45.929  50.532  1.00  0.00     0.131 A 
HETATM    6  N   UNL     1      24.898  47.241  50.292  1.00  0.00    -0.226 NA
HETATM    7  C   UNL     1      23.909  47.637  49.449  1.00  0.00     0.126 A 
HETATM    8  C   UNL     1      23.036  46.766  48.820  1.00  0.00     0.037 A 
HETATM    9  C   UNL     1      23.183  45.409  49.076  1.00  0.00     0.006 A 
HETATM   10  C   UNL     1      24.189  44.984  49.947  1.00  0.00     0.050 A 
BRANCH   7  11
HETATM   11  C   UNL     1      23.803  49.112  49.228  1.00  0.00     0.268 C 
HETATM   12  N   UNL     1      24.669  49.616  48.295  1.00  0.00    -0.365 N 
HETATM   13  H   UNL     1      25.304  48.979  47.816  1.00  0.00     0.159 HD
HETATM   14  H   UNL     1      24.670  50.600  48.075  1.00  0.00     0.159 HD
HETATM   15  O   UNL     1      23.007  49.818  49.834  1.00  0.00    -0.266 OA
ENDBRANCH   7  11
ENDBRANCH   2   5
BRANCH   1  16
HETATM   16  C   UNL     1      27.076  44.479  53.299  1.00  0.00     0.044 A 
HETATM   17  C   UNL     1      27.720  43.253  53.030  1.00  0.00    -0.045 A 
HETATM   18  C   UNL     1      28.876  42.924  53.755  1.00  0.00     0.014 A 
HETATM   19  C   UNL     1      27.208  42.283  52.000  1.00  0.00     0.049 C 
HETATM   20  C   UNL     1      29.404  43.802  54.709  1.00  0.00    -0.061 A 
HETATM   21  C   UNL     1      30.671  43.455  55.435  1.00  0.00     0.048 C 
HETATM   22  C   UNL     1      28.781  45.037  54.925  1.00  0.00     0.014 A 
HETATM   23  C   UNL     1      27.609  45.387  54.237  1.00  0.00    -0.045 A 
HETATM   24  C   UNL     1      26.975  46.727  54.493  1.00  0.00     0.049 C 
ENDBRANCH   1  16
TORSDOF 3
ENDMDL
MODEL 8
REMARK VINA RESULT:      -7.8      4.547      9.405
REMARK  3 active torsions:
REMARK  status: ('A' for Active; 'I' for Inactive)
REMARK    1  A    between atoms: C_6  and  C_7 
REMARK       I    between atoms: C_7  and  N_8 
REMARK    2  A    between atoms: N_8  and  C_9 
REMARK    3  A    between atoms: C_11  and  C_12 
REMARK       I    between atoms: C_12  and  N_13 
ROOT
HETATM    1  C   UNL     1      22.504  48.045  48.552  1.00  0.00     0.258 C 
HETATM    2  N   UNL     1      23.217  47.875  49.722  1.00  0.00    -0.307 N 
HETATM    3  O   UNL     1      22.579  47.400  47.515  1.00  0.00    -0.267 OA
HETATM    4  H   UNL     1      23.001  48.487  50.495  1.00  0.00     0.170 HD
ENDROOT
BRANCH   2   5
HETATM    5  C   UNL     1      24.223  46.922  49.916  1.00  0.00     0.131 A 
HETATM    6  N   UNL     1      23.910  45.685  50.323  1.00  0.00    -0.226 NA
HETATM    7  C   UNL     1      24.923  44.796  50.490  1.00  0.00     0.126 A 
HETATM    8  C   UNL     1      26.256  45.092  50.257  1.00  0.00     0.037 A 
HETATM    9  C   UNL     1      26.566  46.378  49.833  1.00  0.00     0.006 A 
HETATM   10  C   UNL     1      25.537  47.307  49.664  1.00  0.00     0.050 A 
BRANCH   7  11
HETATM   11  C   UNL     1      24.516  43.435  50.958  1.00  0.00     0.268 C 
HETATM   12  N   UNL     1      25.519  42.705  51.537  1.00  0.00    -0.365 N 
HETATM   13  H   UNL     1      26.446  43.120  51.622  1.00  0.00     0.159 HD
HETATM   14  H   UNL     1      25.341  41.776  51.886  1.00  0.00     0.159 HD
HETATM   15  O   UNL     1      23.378  43.003  50.831  1.00  0.00    -0.266 OA
ENDBRANCH   7  11
ENDBRANCH   2   5
BRANCH   1  16
HETATM   16  C   UNL     1      21.519  49.157  48.632  1.00  0.00     0.044 A 
HETATM   17  C   UNL     1      21.934  50.486  48.401  1.00  0.00    -0.045 A 
HETATM   18  C   UNL     1      20.997  51.520  48.543  1.00  0.00     0.014 A 
HETATM   19  C   UNL     1      23.347  50.833  48.016  1.00  0.00     0.049 C 
HETATM   20  C   UNL     1      19.665  51.247  48.878  1.00  0.00    -0.061 A 
HETATM   21  C   UNL     1      18.665  52.363  48.972  1.00  0.00     0.048 C 
HETATM   22  C   UNL     1      19.260  49.918  49.053  1.00  0.00     0.014 A 
HETATM   23  C   UNL     1      20.176  48.862  48.945  1.00  0.00    -0.045 A 
HETATM   24  C   UNL     1      19.698  47.448  49.132  1.00  0.00     0.049 C 
ENDBRANCH   1  16
TORSDOF 3
ENDMDL
MODEL 9
REMARK VINA RESULT:      -7.8      3.333      4.774
REMARK  3 active torsions:
REMARK  status: ('A' for Active; 'I' for Inactive)
REMARK    1  A    between atoms: C_6  and  C_7 
REMARK       I    between atoms: C_7  and  N_8 
REMARK    2  A    between atoms: N_8  and  C_9 
REMARK    3  A    between atoms: C_11  and  C_12 
REMARK       I    between atoms: C_12  and  N_13 
ROOT
HETATM    1  C   UNL     1      27.664  43.767  52.043  1.00  0.00     0.258 C 
HETATM    2  N   UNL     1      26.880  42.639  52.185  1.00  0.00    -0.307 N 
HETATM    3  O   UNL     1      28.010  44.328  51.013  1.00  0.00    -0.267 OA
HETATM    4  H   UNL     1      26.668  42.330  53.122  1.00  0.00     0.170 HD
ENDROOT
BRANCH   2   5
HETATM    5  C   UNL     1      26.361  41.886  51.126  1.00  0.00     0.131 A 
HETATM    6  N   UNL     1      26.863  40.675  50.851  1.00  0.00    -0.226 NA
HETATM    7  C   UNL     1      26.320  39.983  49.816  1.00  0.00     0.126 A 
HETATM    8  C   UNL     1      25.276  40.452  49.037  1.00  0.00     0.037 A 
HETATM    9  C   UNL     1      24.764  41.708  49.335  1.00  0.00     0.006 A 
HETATM   10  C   UNL     1      25.316  42.438  50.390  1.00  0.00     0.050 A 
BRANCH   7  11
HETATM   11  C   UNL     1      26.928  38.643  49.546  1.00  0.00     0.268 C 
HETATM   12  N   UNL     1      26.275  37.590  50.128  1.00  0.00    -0.365 N 
HETATM   13  H   UNL     1      25.438  37.772  50.680  1.00  0.00     0.159 HD
HETATM   14  H   UNL     1      26.608  36.647  50.001  1.00  0.00     0.159 HD
HETATM   15  O   UNL     1      27.933  38.497  48.863  1.00  0.00    -0.266 OA
ENDBRANCH   7  11
ENDBRANCH   2   5
BRANCH   1  16
HETATM   16  C   UNL     1      28.094  44.338  53.348  1.00  0.00     0.044 A 
HETATM   17  C   UNL     1      29.274  43.874  53.967  1.00  0.00    -0.045 A 
HETATM   18  C   UNL     1      29.622  44.388  55.226  1.00  0.00     0.014 A 
HETATM   19  C   UNL     1      30.166  42.843  53.331  1.00  0.00     0.049 C 
HETATM   20  C   UNL     1      28.836  45.364  55.850  1.00  0.00    -0.061 A 
HETATM   21  C   UNL     1      29.256  45.940  57.172  1.00  0.00     0.048 C 
HETATM   22  C   UNL     1      27.698  45.850  55.197  1.00  0.00     0.014 A 
HETATM   23  C   UNL     1      27.305  45.339  53.951  1.00  0.00    -0.045 A 
HETATM   24  C   UNL     1      26.079  45.895  53.279  1.00  0.00     0.049 C 
ENDBRANCH   1  16
TORSDOF 3
ENDMDL
MODEL 10
REMARK VINA RESULT:      -7.8      4.572      9.322
REMARK  3 active torsions:
REMARK  status: ('A' for Active; 'I' for Inactive)
REMARK    1  A    between atoms: C_6  and  C_7 
REMARK       I    between atoms: C_7  and  N_8 
REMARK    2  A    between atoms: N_8  and  C_9 
REMARK    3  A    between atoms: C_11  and  C_12 
REMARK       I    between atoms: C_12  and  N_13 
ROOT
HETATM    1  C   UNL     1      22.496  48.053  48.565  1.00  0.00     0.258 C 
HETATM    2  N   UNL     1      23.195  47.849  49.738  1.00  0.00    -0.307 N 
HETATM    3  O   UNL     1      22.587  47.442  47.509  1.00  0.00    -0.267 OA
HETATM    4  H   UNL     1      22.967  48.435  50.527  1.00  0.00     0.170 HD
ENDROOT
BRANCH   2   5
HETATM    5  C   UNL     1      24.201  46.892  49.915  1.00  0.00     0.131 A 
HETATM    6  N   UNL     1      23.888  45.649  50.302  1.00  0.00    -0.226 NA
HETATM    7  C   UNL     1      24.901  44.757  50.453  1.00  0.00     0.126 A 
HETATM    8  C   UNL     1      26.234  45.056  50.223  1.00  0.00     0.037 A 
HETATM    9  C   UNL     1      26.543  46.349  49.820  1.00  0.00     0.006 A 
HETATM   10  C   UNL     1      25.515  47.281  49.668  1.00  0.00     0.050 A 
BRANCH   7  11
HETATM   11  C   UNL     1      24.495  43.389  50.900  1.00  0.00     0.268 C 
HETATM   12  N   UNL     1      25.511  42.628  51.413  1.00  0.00    -0.365 N 
HETATM   13  H   UNL     1      26.447  43.027  51.468  1.00  0.00     0.159 HD
HETATM   14  H   UNL     1      25.334  41.692  51.743  1.00  0.00     0.159 HD
HETATM   15  O   UNL     1      23.346  42.977  50.812  1.00  0.00    -0.266 OA
ENDBRANCH   7  11
ENDBRANCH   2   5
BRANCH   1  16
HETATM   16  C   UNL     1      21.507  49.160  48.667  1.00  0.00     0.044 A 
HETATM   17  C   UNL     1      20.159  48.877  48.970  1.00  0.00    -0.045 A 
HETATM   18  C   UNL     1      19.238  49.935  49.000  1.00  0.00     0.014 A 
HETATM   19  C   UNL     1      19.673  47.481  49.253  1.00  0.00     0.049 C 
HETATM   20  C   UNL     1      19.644  51.254  48.764  1.00  0.00    -0.061 A 
HETATM   21  C   UNL     1      18.652  52.377  48.854  1.00  0.00     0.048 C 
HETATM   22  C   UNL     1      20.996  51.522  48.517  1.00  0.00     0.014 A 
HETATM   23  C   UNL     1      21.939  50.486  48.453  1.00  0.00    -0.045 A 
HETATM   24  C   UNL     1      23.383  50.817  48.193  1.00  0.00     0.049 C 
ENDBRANCH   1  16
TORSDOF 3
ENDMDL
