MODEL 1
REMARK VINA RESULT:      -8.3      0.000      0.000
REMARK  5 active torsions:
REMARK  status: ('A' for Active; 'I' for Inactive)
REMARK    1  A    between atoms: C_2  and  C_3 
REMARK    2  A    between atoms: C_7  and  C_8 
REMARK    3  A    between atoms: C_8  and  N_9 
REMARK       I    between atoms: N_9  and  C_10 
REMARK       I    between atoms: C_10  and  N_11 
REMARK    4  A    between atoms: N_11  and  C_12 
REMARK    5  A    between atoms: C_14  and  C_15 
ROOT
HETATM    1  N   UNL     1      26.476  44.255  52.133  1.00  0.00    -0.333 N 
HETATM    2  C   UNL     1      27.190  43.825  53.250  1.00  0.00     0.322 C 
HETATM    3  N   UNL     1      28.292  44.595  53.545  1.00  0.00    -0.309 N 
HETATM    4  O   UNL     1      26.851  42.816  53.863  1.00  0.00    -0.247 OA
HETATM    5  C   UNL     1      26.463  45.620  51.618  1.00  0.00     0.155 C 
HETATM    6  H   UNL     1      28.607  45.193  52.798  1.00  0.00     0.170 HD
ENDROOT
BRANCH   1   7
HETATM    7  C   UNL     1      25.547  43.316  51.518  1.00  0.00     0.185 C 
BRANCH   7   8
HETATM    8  C   UNL     1      26.265  42.391  50.612  1.00  0.00     0.047 A 
HETATM    9  N   UNL     1      26.713  42.786  49.383  1.00  0.00    -0.280 N 
HETATM   10  N   UNL     1      27.319  41.805  48.694  1.00  0.00    -0.178 NA
HETATM   11  H   UNL     1      26.639  43.714  48.967  1.00  0.00     0.189 HD
HETATM   12  C   UNL     1      27.248  40.735  49.498  1.00  0.00     0.064 A 
HETATM   13  C   UNL     1      26.598  41.060  50.717  1.00  0.00     0.058 A 
BRANCH  12  14
HETATM   14  C   UNL     1      27.802  39.380  49.082  1.00  0.00    -0.005 C 
HETATM   15  C   UNL     1      28.361  39.390  47.644  1.00  0.00     0.021 C 
HETATM   16  C   UNL     1      26.686  38.317  49.152  1.00  0.00     0.021 C 
HETATM   17  C   UNL     1      28.944  38.965  50.033  1.00  0.00     0.021 C 
ENDBRANCH  12  14
ENDBRANCH   7   8
ENDBRANCH   1   7
BRANCH   3  18
HETATM   18  C   UNL     1      29.186  44.453  54.626  1.00  0.00     0.037 A 
HETATM   19  C   UNL     1      29.144  45.235  55.783  1.00  0.00     0.045 A 
HETATM   20  C   UNL     1      30.069  45.031  56.825  1.00  0.00     0.050 A 
HETATM   21  C   UNL     1      31.035  44.023  56.694  1.00  0.00     0.016 A 
HETATM   22  C   UNL     1      31.091  43.249  55.539  1.00  0.00     0.003 A 
HETATM   23  C   UNL     1      30.174  43.467  54.510  1.00  0.00     0.029 A 
BRANCH  20  24
HETATM   24  C   UNL     1      29.996  45.855  58.086  1.00  0.00     0.417 C 
HETATM   25  F   UNL     1      30.987  46.783  58.191  1.00  0.00    -0.166 F 
HETATM   26  F   UNL     1      28.824  46.541  58.189  1.00  0.00    -0.166 F 
HETATM   27  F   UNL     1      30.081  45.098  59.217  1.00  0.00    -0.166 F 
ENDBRANCH  20  24
ENDBRANCH   3  18
TORSDOF 5
ENDMDL
MODEL 2
REMARK VINA RESULT:      -8.3      6.215      8.884
REMARK  5 active torsions:
REMARK  status: ('A' for Active; 'I' for Inactive)
REMARK    1  A    between atoms: C_2  and  C_3 
REMARK    2  A    between atoms: C_7  and  C_8 
REMARK    3  A    between atoms: C_8  and  N_9 
REMARK       I    between atoms: N_9  and  C_10 
REMARK       I    between atoms: C_10  and  N_11 
REMARK    4  A    between atoms: N_11  and  C_12 
REMARK    5  A    between atoms: C_14  and  C_15 
ROOT
HETATM    1  N   UNL     1      23.593  47.800  49.105  1.00  0.00    -0.333 N 
HETATM    2  C   UNL     1      24.668  47.661  49.982  1.00  0.00     0.322 C 
HETATM    3  N   UNL     1      24.521  46.643  50.895  1.00  0.00    -0.309 N 
HETATM    4  O   UNL     1      25.625  48.430  49.930  1.00  0.00    -0.247 OA
HETATM    5  C   UNL     1      22.663  46.738  48.741  1.00  0.00     0.155 C 
HETATM    6  H   UNL     1      23.580  46.302  51.008  1.00  0.00     0.170 HD
ENDROOT
BRANCH   1   7
HETATM    7  C   UNL     1      23.472  49.055  48.374  1.00  0.00     0.185 C 
BRANCH   7   8
HETATM    8  C   UNL     1      22.215  49.750  48.735  1.00  0.00     0.047 A 
HETATM    9  N   UNL     1      21.967  50.176  50.009  1.00  0.00    -0.280 N 
HETATM   10  N   UNL     1      20.766  50.762  50.152  1.00  0.00    -0.178 NA
HETATM   11  H   UNL     1      22.583  50.100  50.818  1.00  0.00     0.189 HD
HETATM   12  C   UNL     1      20.214  50.700  48.933  1.00  0.00     0.064 A 
HETATM   13  C   UNL     1      21.093  50.075  48.010  1.00  0.00     0.058 A 
BRANCH  12  14
HETATM   14  C   UNL     1      18.817  51.236  48.655  1.00  0.00    -0.005 C 
HETATM   15  C   UNL     1      18.075  50.415  47.579  1.00  0.00     0.021 C 
HETATM   16  C   UNL     1      18.907  52.695  48.162  1.00  0.00     0.021 C 
HETATM   17  C   UNL     1      17.973  51.199  49.946  1.00  0.00     0.021 C 
ENDBRANCH  12  14
ENDBRANCH   7   8
ENDBRANCH   1   7
BRANCH   3  18
HETATM   18  C   UNL     1      25.441  46.219  51.877  1.00  0.00     0.037 A 
HETATM   19  C   UNL     1      25.872  47.016  52.941  1.00  0.00     0.045 A 
HETATM   20  C   UNL     1      26.791  46.521  53.886  1.00  0.00     0.050 A 
HETATM   21  C   UNL     1      27.268  45.210  53.755  1.00  0.00     0.016 A 
HETATM   22  C   UNL     1      26.853  44.414  52.690  1.00  0.00     0.003 A 
HETATM   23  C   UNL     1      25.949  44.920  51.755  1.00  0.00     0.029 A 
BRANCH  20  24
HETATM   24  C   UNL     1      27.224  47.375  55.052  1.00  0.00     0.417 C 
HETATM   25  F   UNL     1      27.737  46.661  56.091  1.00  0.00    -0.166 F 
HETATM   26  F   UNL     1      28.184  48.277  54.704  1.00  0.00    -0.166 F 
HETATM   27  F   UNL     1      26.202  48.107  55.578  1.00  0.00    -0.166 F 
ENDBRANCH  20  24
ENDBRANCH   3  18
TORSDOF 5
ENDMDL
MODEL 3
REMARK VINA RESULT:      -8.2      1.670      2.401
REMARK  5 active torsions:
REMARK  status: ('A' for Active; 'I' for Inactive)
REMARK    1  A    between atoms: C_2  and  C_3 
REMARK    2  A    between atoms: C_7  and  C_8 
REMARK    3  A    between atoms: C_8  and  N_9 
REMARK       I    between atoms: N_9  and  C_10 
REMARK       I    between atoms: C_10  and  N_11 
REMARK    4  A    between atoms: N_11  and  C_12 
REMARK    5  A    between atoms: C_14  and  C_15 
ROOT
HETATM    1  N   UNL     1      26.992  43.588  51.642  1.00  0.00    -0.333 N 
HETATM    2  C   UNL     1      27.282  43.685  53.002  1.00  0.00     0.322 C 
HETATM    3  N   UNL     1      28.353  44.498  53.293  1.00  0.00    -0.309 N 
HETATM    4  O   UNL     1      26.634  43.050  53.830  1.00  0.00    -0.247 OA
HETATM    5  C   UNL     1      27.332  44.589  50.637  1.00  0.00     0.155 C 
HETATM    6  H   UNL     1      28.956  44.706  52.513  1.00  0.00     0.170 HD
ENDROOT
BRANCH   1   7
HETATM    7  C   UNL     1      26.151  42.482  51.205  1.00  0.00     0.185 C 
BRANCH   7   8
HETATM    8  C   UNL     1      26.979  41.306  50.852  1.00  0.00     0.047 A 
HETATM    9  N   UNL     1      28.123  40.998  51.533  1.00  0.00    -0.280 N 
HETATM   10  N   UNL     1      28.753  39.911  51.055  1.00  0.00    -0.178 NA
HETATM   11  H   UNL     1      28.517  41.489  52.334  1.00  0.00     0.189 HD
HETATM   12  C   UNL     1      27.999  39.512  50.022  1.00  0.00     0.064 A 
HETATM   13  C   UNL     1      26.870  40.357  49.862  1.00  0.00     0.058 A 
BRANCH  12  14
HETATM   14  C   UNL     1      28.377  38.308  49.170  1.00  0.00    -0.005 C 
HETATM   15  C   UNL     1      27.442  37.104  49.409  1.00  0.00     0.021 C 
HETATM   16  C   UNL     1      29.817  37.867  49.501  1.00  0.00     0.021 C 
HETATM   17  C   UNL     1      28.301  38.678  47.674  1.00  0.00     0.021 C 
ENDBRANCH  12  14
ENDBRANCH   7   8
ENDBRANCH   1   7
BRANCH   3  18
HETATM   18  C   UNL     1      28.866  44.837  54.563  1.00  0.00     0.037 A 
HETATM   19  C   UNL     1      29.865  44.115  55.221  1.00  0.00     0.045 A 
HETATM   20  C   UNL     1      30.330  44.517  56.487  1.00  0.00     0.050 A 
HETATM   21  C   UNL     1      29.783  45.661  57.085  1.00  0.00     0.016 A 
HETATM   22  C   UNL     1      28.777  46.378  56.441  1.00  0.00     0.003 A 
HETATM   23  C   UNL     1      28.319  45.964  55.190  1.00  0.00     0.029 A 
BRANCH  20  24
HETATM   24  C   UNL     1      31.434  43.754  57.175  1.00  0.00     0.417 C 
HETATM   25  F   UNL     1      31.826  44.306  58.357  1.00  0.00    -0.166 F 
HETATM   26  F   UNL     1      31.077  42.471  57.459  1.00  0.00    -0.166 F 
HETATM   27  F   UNL     1      32.564  43.664  56.418  1.00  0.00    -0.166 F 
ENDBRANCH  20  24
ENDBRANCH   3  18
TORSDOF 5
ENDMDL
MODEL 4
REMARK VINA RESULT:      -8.1      4.972      7.514
REMARK  5 active torsions:
REMARK  status: ('A' for Active; 'I' for Inactive)
REMARK    1  A    between atoms: C_2  and  C_3 
REMARK    2  A    between atoms: C_7  and  C_8 
REMARK    3  A    between atoms: C_8  and  N_9 
REMARK       I    between atoms: N_9  and  C_10 
REMARK       I    between atoms: C_10  and  N_11 
REMARK    4  A    between atoms: N_11  and  C_12 
REMARK    5  A    between atoms: C_14  and  C_15 
ROOT
HETATM    1  N   UNL     1      23.619  44.928  49.749  1.00  0.00    -0.333 N 
HETATM    2  C   UNL     1      24.790  45.305  50.404  1.00  0.00     0.322 C 
HETATM    3  N   UNL     1      24.825  44.963  51.736  1.00  0.00    -0.309 N 
HETATM    4  O   UNL     1      25.671  45.923  49.811  1.00  0.00    -0.247 OA
HETATM    5  C   UNL     1      22.743  43.834  50.156  1.00  0.00     0.155 C 
HETATM    6  H   UNL     1      23.932  44.734  52.142  1.00  0.00     0.170 HD
ENDROOT
BRANCH   1   7
HETATM    7  C   UNL     1      23.319  45.565  48.473  1.00  0.00     0.185 C 
BRANCH   7   8
HETATM    8  C   UNL     1      22.608  46.847  48.686  1.00  0.00     0.047 A 
HETATM    9  N   UNL     1      21.263  46.897  48.921  1.00  0.00    -0.280 N 
HETATM   10  N   UNL     1      20.792  48.147  49.065  1.00  0.00    -0.178 NA
HETATM   11  H   UNL     1      20.620  46.111  49.001  1.00  0.00     0.189 HD
HETATM   12  C   UNL     1      21.866  48.933  48.903  1.00  0.00     0.064 A 
HETATM   13  C   UNL     1      23.031  48.156  48.668  1.00  0.00     0.058 A 
BRANCH  12  14
HETATM   14  C   UNL     1      21.768  50.450  48.963  1.00  0.00    -0.005 C 
HETATM   15  C   UNL     1      21.519  50.966  50.397  1.00  0.00     0.021 C 
HETATM   16  C   UNL     1      20.603  50.933  48.075  1.00  0.00     0.021 C 
HETATM   17  C   UNL     1      23.078  51.083  48.452  1.00  0.00     0.021 C 
ENDBRANCH  12  14
ENDBRANCH   7   8
ENDBRANCH   1   7
BRANCH   3  18
HETATM   18  C   UNL     1      25.877  45.160  52.655  1.00  0.00     0.037 A 
HETATM   19  C   UNL     1      26.948  44.279  52.818  1.00  0.00     0.045 A 
HETATM   20  C   UNL     1      27.966  44.546  53.754  1.00  0.00     0.050 A 
HETATM   21  C   UNL     1      27.897  45.717  54.523  1.00  0.00     0.016 A 
HETATM   22  C   UNL     1      26.825  46.593  54.375  1.00  0.00     0.003 A 
HETATM   23  C   UNL     1      25.819  46.312  53.450  1.00  0.00     0.029 A 
BRANCH  20  24
HETATM   24  C   UNL     1      29.137  43.609  53.900  1.00  0.00     0.417 C 
HETATM   25  F   UNL     1      30.059  44.023  54.812  1.00  0.00    -0.166 F 
HETATM   26  F   UNL     1      28.757  42.360  54.289  1.00  0.00    -0.166 F 
HETATM   27  F   UNL     1      29.825  43.439  52.734  1.00  0.00    -0.166 F 
ENDBRANCH  20  24
ENDBRANCH   3  18
TORSDOF 5
ENDMDL
MODEL 5
REMARK VINA RESULT:      -8.1      6.068      8.590
REMARK  5 active torsions:
REMARK  status: ('A' for Active; 'I' for Inactive)
REMARK    1  A    between atoms: C_2  and  C_3 
REMARK    2  A    between atoms: C_7  and  C_8 
REMARK    3  A    between atoms: C_8  and  N_9 
REMARK       I    between atoms: N_9  and  C_10 
REMARK       I    between atoms: C_10  and  N_11 
REMARK    4  A    between atoms: N_11  and  C_12 
REMARK    5  A    between atoms: C_14  and  C_15 
ROOT
HETATM    1  N   UNL     1      24.132  47.567  49.463  1.00  0.00    -0.333 N 
HETATM    2  C   UNL     1      25.164  47.538  50.400  1.00  0.00     0.322 C 
HETATM    3  N   UNL     1      24.968  46.643  51.426  1.00  0.00    -0.309 N 
HETATM    4  O   UNL     1      26.126  48.295  50.299  1.00  0.00    -0.247 OA
HETATM    5  C   UNL     1      23.216  46.466  49.189  1.00  0.00     0.155 C 
HETATM    6  H   UNL     1      24.021  46.318  51.534  1.00  0.00     0.170 HD
ENDROOT
BRANCH   1   7
HETATM    7  C   UNL     1      24.053  48.720  48.575  1.00  0.00     0.185 C 
BRANCH   7   8
HETATM    8  C   UNL     1      22.764  49.427  48.755  1.00  0.00     0.047 A 
HETATM    9  N   UNL     1      22.388  49.948  49.961  1.00  0.00    -0.280 N 
HETATM   10  N   UNL     1      21.178  50.530  49.937  1.00  0.00    -0.178 NA
HETATM   11  H   UNL     1      22.920  49.941  50.830  1.00  0.00     0.189 HD
HETATM   12  C   UNL     1      20.750  50.368  48.677  1.00  0.00     0.064 A 
HETATM   13  C   UNL     1      21.719  49.684  47.898  1.00  0.00     0.058 A 
BRANCH  12  14
HETATM   14  C   UNL     1      19.387  50.867  48.221  1.00  0.00    -0.005 C 
HETATM   15  C   UNL     1      19.220  52.389  48.424  1.00  0.00     0.021 C 
HETATM   16  C   UNL     1      18.277  50.156  49.021  1.00  0.00     0.021 C 
HETATM   17  C   UNL     1      19.191  50.565  46.721  1.00  0.00     0.021 C 
ENDBRANCH  12  14
ENDBRANCH   7   8
ENDBRANCH   1   7
BRANCH   3  18
HETATM   18  C   UNL     1      25.838  46.345  52.496  1.00  0.00     0.037 A 
HETATM   19  C   UNL     1      26.694  45.242  52.524  1.00  0.00     0.045 A 
HETATM   20  C   UNL     1      27.539  45.012  53.626  1.00  0.00     0.050 A 
HETATM   21  C   UNL     1      27.519  45.911  54.702  1.00  0.00     0.016 A 
HETATM   22  C   UNL     1      26.659  47.006  54.687  1.00  0.00     0.003 A 
HETATM   23  C   UNL     1      25.820  47.217  53.591  1.00  0.00     0.029 A 
BRANCH  20  24
HETATM   24  C   UNL     1      28.486  43.838  53.634  1.00  0.00     0.417 C 
HETATM   25  F   UNL     1      29.477  43.942  54.562  1.00  0.00    -0.166 F 
HETATM   26  F   UNL     1      27.850  42.661  53.890  1.00  0.00    -0.166 F 
HETATM   27  F   UNL     1      29.119  43.664  52.439  1.00  0.00    -0.166 F 
ENDBRANCH  20  24
ENDBRANCH   3  18
TORSDOF 5
ENDMDL
MODEL 6
REMARK VINA RESULT:      -8.1      4.827      7.425
REMARK  5 active torsions:
REMARK  status: ('A' for Active; 'I' for Inactive)
REMARK    1  A    between atoms: C_2  and  C_3 
REMARK    2  A    between atoms: C_7  and  C_8 
REMARK    3  A    between atoms: C_8  and  N_9 
REMARK       I    between atoms: N_9  and  C_10 
REMARK       I    between atoms: C_10  and  N_11 
REMARK    4  A    between atoms: N_11  and  C_12 
REMARK    5  A    between atoms: C_14  and  C_15 
ROOT
HETATM    1  N   UNL     1      23.499  44.889  49.722  1.00  0.00    -0.333 N 
HETATM    2  C   UNL     1      24.638  45.217  50.455  1.00  0.00     0.322 C 
HETATM    3  N   UNL     1      24.590  44.831  51.774  1.00  0.00    -0.309 N 
HETATM    4  O   UNL     1      25.565  45.834  49.934  1.00  0.00    -0.247 OA
HETATM    5  C   UNL     1      22.579  43.803  50.042  1.00  0.00     0.155 C 
HETATM    6  H   UNL     1      23.671  44.610  52.121  1.00  0.00     0.170 HD
ENDROOT
BRANCH   1   7
HETATM    7  C   UNL     1      23.286  45.575  48.454  1.00  0.00     0.185 C 
BRANCH   7   8
HETATM    8  C   UNL     1      22.575  46.856  48.668  1.00  0.00     0.047 A 
HETATM    9  N   UNL     1      21.239  46.901  48.953  1.00  0.00    -0.280 N 
HETATM   10  N   UNL     1      20.764  48.151  49.089  1.00  0.00    -0.178 NA
HETATM   11  H   UNL     1      20.605  46.113  49.072  1.00  0.00     0.189 HD
HETATM   12  C   UNL     1      21.825  48.940  48.872  1.00  0.00     0.064 A 
HETATM   13  C   UNL     1      22.986  48.167  48.608  1.00  0.00     0.058 A 
BRANCH  12  14
HETATM   14  C   UNL     1      21.717  50.458  48.905  1.00  0.00    -0.005 C 
HETATM   15  C   UNL     1      23.023  51.149  48.459  1.00  0.00     0.021 C 
HETATM   16  C   UNL     1      21.397  50.926  50.340  1.00  0.00     0.021 C 
HETATM   17  C   UNL     1      20.587  50.926  47.965  1.00  0.00     0.021 C 
ENDBRANCH  12  14
ENDBRANCH   7   8
ENDBRANCH   1   7
BRANCH   3  18
HETATM   18  C   UNL     1      25.592  44.974  52.757  1.00  0.00     0.037 A 
HETATM   19  C   UNL     1      25.903  46.182  53.387  1.00  0.00     0.045 A 
HETATM   20  C   UNL     1      26.914  46.247  54.364  1.00  0.00     0.050 A 
HETATM   21  C   UNL     1      27.608  45.078  54.708  1.00  0.00     0.016 A 
HETATM   22  C   UNL     1      27.312  43.873  54.076  1.00  0.00     0.003 A 
HETATM   23  C   UNL     1      26.313  43.824  53.103  1.00  0.00     0.029 A 
BRANCH  20  24
HETATM   24  C   UNL     1      27.220  47.547  55.064  1.00  0.00     0.417 C 
HETATM   25  F   UNL     1      26.195  48.442  55.025  1.00  0.00    -0.166 F 
HETATM   26  F   UNL     1      27.515  47.368  56.382  1.00  0.00    -0.166 F 
HETATM   27  F   UNL     1      28.294  48.194  54.529  1.00  0.00    -0.166 F 
ENDBRANCH  20  24
ENDBRANCH   3  18
TORSDOF 5
ENDMDL
MODEL 7
REMARK VINA RESULT:      -8.0      6.923      9.963
REMARK  5 active torsions:
REMARK  status: ('A' for Active; 'I' for Inactive)
REMARK    1  A    between atoms: C_2  and  C_3 
REMARK    2  A    between atoms: C_7  and  C_8 
REMARK    3  A    between atoms: C_8  and  N_9 
REMARK       I    between atoms: N_9  and  C_10 
REMARK       I    between atoms: C_10  and  N_11 
REMARK    4  A    between atoms: N_11  and  C_12 
REMARK    5  A    between atoms: C_14  and  C_15 
ROOT
HETATM    1  N   UNL     1      24.433  46.356  49.560  1.00  0.00    -0.333 N 
HETATM    2  C   UNL     1      23.908  47.646  49.586  1.00  0.00     0.322 C 
HETATM    3  N   UNL     1      22.635  47.747  49.075  1.00  0.00    -0.309 N 
HETATM    4  O   UNL     1      24.577  48.589  50.001  1.00  0.00    -0.247 OA
HETATM    5  C   UNL     1      23.644  45.129  49.551  1.00  0.00     0.155 C 
HETATM    6  H   UNL     1      22.338  46.967  48.511  1.00  0.00     0.170 HD
ENDROOT
BRANCH   1   7
HETATM    7  C   UNL     1      25.874  46.205  49.711  1.00  0.00     0.185 C 
BRANCH   7   8
HETATM    8  C   UNL     1      26.222  45.902  51.118  1.00  0.00     0.047 A 
HETATM    9  N   UNL     1      26.049  46.816  52.118  1.00  0.00    -0.280 N 
HETATM   10  N   UNL     1      26.443  46.372  53.323  1.00  0.00    -0.178 NA
HETATM   11  H   UNL     1      25.660  47.755  52.037  1.00  0.00     0.189 HD
HETATM   12  C   UNL     1      26.900  45.133  53.092  1.00  0.00     0.064 A 
HETATM   13  C   UNL     1      26.776  44.795  51.719  1.00  0.00     0.058 A 
BRANCH  12  14
HETATM   14  C   UNL     1      27.476  44.269  54.204  1.00  0.00    -0.005 C 
HETATM   15  C   UNL     1      28.333  45.084  55.197  1.00  0.00     0.021 C 
HETATM   16  C   UNL     1      28.368  43.166  53.599  1.00  0.00     0.021 C 
HETATM   17  C   UNL     1      26.333  43.604  54.999  1.00  0.00     0.021 C 
ENDBRANCH  12  14
ENDBRANCH   7   8
ENDBRANCH   1   7
BRANCH   3  18
HETATM   18  C   UNL     1      21.817  48.894  49.001  1.00  0.00     0.037 A 
HETATM   19  C   UNL     1      20.511  48.956  49.492  1.00  0.00     0.045 A 
HETATM   20  C   UNL     1      19.756  50.140  49.386  1.00  0.00     0.050 A 
HETATM   21  C   UNL     1      20.334  51.268  48.787  1.00  0.00     0.016 A 
HETATM   22  C   UNL     1      21.631  51.210  48.284  1.00  0.00     0.003 A 
HETATM   23  C   UNL     1      22.365  50.028  48.387  1.00  0.00     0.029 A 
BRANCH  20  24
HETATM   24  C   UNL     1      18.359  50.210  49.950  1.00  0.00     0.417 C 
HETATM   25  F   UNL     1      17.968  51.470  50.287  1.00  0.00    -0.166 F 
HETATM   26  F   UNL     1      17.424  49.747  49.075  1.00  0.00    -0.166 F 
HETATM   27  F   UNL     1      18.208  49.464  51.081  1.00  0.00    -0.166 F 
ENDBRANCH  20  24
ENDBRANCH   3  18
TORSDOF 5
ENDMDL
MODEL 8
REMARK VINA RESULT:      -7.6      1.453      2.024
REMARK  5 active torsions:
REMARK  status: ('A' for Active; 'I' for Inactive)
REMARK    1  A    between atoms: C_2  and  C_3 
REMARK    2  A    between atoms: C_7  and  C_8 
REMARK    3  A    between atoms: C_8  and  N_9 
REMARK       I    between atoms: N_9  and  C_10 
REMARK       I    between atoms: C_10  and  N_11 
REMARK    4  A    between atoms: N_11  and  C_12 
REMARK    5  A    between atoms: C_14  and  C_15 
ROOT
HETATM    1  N   UNL     1      26.363  43.418  50.268  1.00  0.00    -0.333 N 
HETATM    2  C   UNL     1      26.944  43.142  51.505  1.00  0.00     0.322 C 
HETATM    3  N   UNL     1      27.941  44.019  51.866  1.00  0.00    -0.309 N 
HETATM    4  O   UNL     1      26.591  42.166  52.162  1.00  0.00    -0.247 OA
HETATM    5  C   UNL     1      26.330  44.728  49.628  1.00  0.00     0.155 C 
HETATM    6  H   UNL     1      28.315  44.574  51.114  1.00  0.00     0.170 HD
ENDROOT
BRANCH   1   7
HETATM    7  C   UNL     1      25.592  42.359  49.630  1.00  0.00     0.185 C 
BRANCH   7   8
HETATM    8  C   UNL     1      26.492  41.329  49.061  1.00  0.00     0.047 A 
HETATM    9  N   UNL     1      27.300  41.588  47.990  1.00  0.00    -0.280 N 
HETATM   10  N   UNL     1      28.026  40.527  47.600  1.00  0.00    -0.178 NA
HETATM   11  H   UNL     1      27.401  42.470  47.491  1.00  0.00     0.189 HD
HETATM   12  C   UNL     1      27.665  39.545  48.438  1.00  0.00     0.064 A 
HETATM   13  C   UNL     1      26.706  40.007  49.377  1.00  0.00     0.058 A 
BRANCH  12  14
HETATM   14  C   UNL     1      28.241  38.141  48.326  1.00  0.00    -0.005 C 
HETATM   15  C   UNL     1      29.659  38.038  48.926  1.00  0.00     0.021 C 
HETATM   16  C   UNL     1      28.320  37.726  46.843  1.00  0.00     0.021 C 
HETATM   17  C   UNL     1      27.336  37.140  49.075  1.00  0.00     0.021 C 
ENDBRANCH  12  14
ENDBRANCH   7   8
ENDBRANCH   1   7
BRANCH   3  18
HETATM   18  C   UNL     1      28.685  44.040  53.064  1.00  0.00     0.037 A 
HETATM   19  C   UNL     1      28.494  44.972  54.087  1.00  0.00     0.045 A 
HETATM   20  C   UNL     1      29.274  44.928  55.259  1.00  0.00     0.050 A 
HETATM   21  C   UNL     1      30.247  43.928  55.394  1.00  0.00     0.016 A 
HETATM   22  C   UNL     1      30.452  43.003  54.374  1.00  0.00     0.003 A 
HETATM   23  C   UNL     1      29.678  43.064  53.214  1.00  0.00     0.029 A 
BRANCH  20  24
HETATM   24  C   UNL     1      29.038  45.915  56.373  1.00  0.00     0.417 C 
HETATM   25  F   UNL     1      28.421  47.060  55.968  1.00  0.00    -0.166 F 
HETATM   26  F   UNL     1      28.261  45.400  57.366  1.00  0.00    -0.166 F 
HETATM   27  F   UNL     1      30.193  46.315  56.978  1.00  0.00    -0.166 F 
ENDBRANCH  20  24
ENDBRANCH   3  18
TORSDOF 5
ENDMDL
MODEL 9
REMARK VINA RESULT:      -7.4      2.065      3.083
REMARK  5 active torsions:
REMARK  status: ('A' for Active; 'I' for Inactive)
REMARK    1  A    between atoms: C_2  and  C_3 
REMARK    2  A    between atoms: C_7  and  C_8 
REMARK    3  A    between atoms: C_8  and  N_9 
REMARK       I    between atoms: N_9  and  C_10 
REMARK       I    between atoms: C_10  and  N_11 
REMARK    4  A    between atoms: N_11  and  C_12 
REMARK    5  A    between atoms: C_14  and  C_15 
ROOT
HETATM    1  N   UNL     1      28.003  41.841  51.520  1.00  0.00    -0.333 N 
HETATM    2  C   UNL     1      28.470  42.141  52.798  1.00  0.00     0.322 C 
HETATM    3  N   UNL     1      28.682  43.482  53.019  1.00  0.00    -0.309 N 
HETATM    4  O   UNL     1      28.696  41.248  53.611  1.00  0.00    -0.247 OA
HETATM    5  C   UNL     1      27.270  42.759  50.656  1.00  0.00     0.155 C 
HETATM    6  H   UNL     1      28.739  44.048  52.188  1.00  0.00     0.170 HD
ENDROOT
BRANCH   1   7
HETATM    7  C   UNL     1      28.112  40.461  51.064  1.00  0.00     0.185 C 
BRANCH   7   8
HETATM    8  C   UNL     1      27.508  40.307  49.721  1.00  0.00     0.047 A 
HETATM    9  N   UNL     1      26.225  39.869  49.552  1.00  0.00    -0.280 N 
HETATM   10  N   UNL     1      25.859  39.769  48.263  1.00  0.00    -0.178 NA
HETATM   11  H   UNL     1      25.552  39.632  50.279  1.00  0.00     0.189 HD
HETATM   12  C   UNL     1      26.948  40.141  47.575  1.00  0.00     0.064 A 
HETATM   13  C   UNL     1      28.006  40.493  48.452  1.00  0.00     0.058 A 
BRANCH  12  14
HETATM   14  C   UNL     1      26.973  40.146  46.053  1.00  0.00    -0.005 C 
HETATM   15  C   UNL     1      27.092  38.724  45.463  1.00  0.00     0.021 C 
HETATM   16  C   UNL     1      28.177  40.970  45.554  1.00  0.00     0.021 C 
HETATM   17  C   UNL     1      25.676  40.778  45.507  1.00  0.00     0.021 C 
ENDBRANCH  12  14
ENDBRANCH   7   8
ENDBRANCH   1   7
BRANCH   3  18
HETATM   18  C   UNL     1      29.105  44.109  54.211  1.00  0.00     0.037 A 
HETATM   19  C   UNL     1      30.041  43.563  55.092  1.00  0.00     0.045 A 
HETATM   20  C   UNL     1      30.417  44.250  56.262  1.00  0.00     0.050 A 
HETATM   21  C   UNL     1      29.846  45.501  56.533  1.00  0.00     0.016 A 
HETATM   22  C   UNL     1      28.903  46.046  55.666  1.00  0.00     0.003 A 
HETATM   23  C   UNL     1      28.532  45.350  54.514  1.00  0.00     0.029 A 
BRANCH  20  24
HETATM   24  C   UNL     1      31.454  43.671  57.190  1.00  0.00     0.417 C 
HETATM   25  F   UNL     1      31.185  42.394  57.582  1.00  0.00    -0.166 F 
HETATM   26  F   UNL     1      32.694  43.638  56.627  1.00  0.00    -0.166 F 
HETATM   27  F   UNL     1      31.591  44.387  58.342  1.00  0.00    -0.166 F 
ENDBRANCH  20  24
ENDBRANCH   3  18
TORSDOF 5
ENDMDL
MODEL 10
REMARK VINA RESULT:      -7.2      3.066      4.931
REMARK  5 active torsions:
REMARK  status: ('A' for Active; 'I' for Inactive)
REMARK    1  A    between atoms: C_2  and  C_3 
REMARK    2  A    between atoms: C_7  and  C_8 
REMARK    3  A    between atoms: C_8  and  N_9 
REMARK       I    between atoms: N_9  and  C_10 
REMARK       I    between atoms: C_10  and  N_11 
REMARK    4  A    between atoms: N_11  and  C_12 
REMARK    5  A    between atoms: C_14  and  C_15 
ROOT
HETATM    1  N   UNL     1      28.226  39.321  49.818  1.00  0.00    -0.333 N 
HETATM    2  C   UNL     1      27.999  40.483  50.553  1.00  0.00     0.322 C 
HETATM    3  N   UNL     1      28.727  40.564  51.718  1.00  0.00    -0.309 N 
HETATM    4  O   UNL     1      27.180  41.317  50.174  1.00  0.00    -0.247 OA
HETATM    5  C   UNL     1      29.440  38.514  49.876  1.00  0.00     0.155 C 
HETATM    6  H   UNL     1      29.119  39.693  52.038  1.00  0.00     0.170 HD
ENDROOT
BRANCH   1   7
HETATM    7  C   UNL     1      27.249  38.960  48.799  1.00  0.00     0.185 C 
BRANCH   7   8
HETATM    8  C   UNL     1      27.642  39.514  47.482  1.00  0.00     0.047 A 
HETATM    9  N   UNL     1      28.040  40.813  47.335  1.00  0.00    -0.280 N 
HETATM   10  N   UNL     1      28.333  41.142  46.066  1.00  0.00    -0.178 NA
HETATM   11  H   UNL     1      28.138  41.516  48.066  1.00  0.00     0.189 HD
HETATM   12  C   UNL     1      28.103  40.022  45.366  1.00  0.00     0.064 A 
HETATM   13  C   UNL     1      27.671  38.972  46.218  1.00  0.00     0.058 A 
BRANCH  12  14
HETATM   14  C   UNL     1      28.288  39.965  43.857  1.00  0.00    -0.005 C 
HETATM   15  C   UNL     1      28.629  38.544  43.360  1.00  0.00     0.021 C 
HETATM   16  C   UNL     1      29.437  40.905  43.437  1.00  0.00     0.021 C 
HETATM   17  C   UNL     1      26.993  40.417  43.151  1.00  0.00     0.021 C 
ENDBRANCH  12  14
ENDBRANCH   7   8
ENDBRANCH   1   7
BRANCH   3  18
HETATM   18  C   UNL     1      28.758  41.623  52.650  1.00  0.00     0.037 A 
HETATM   19  C   UNL     1      27.618  42.249  53.159  1.00  0.00     0.045 A 
HETATM   20  C   UNL     1      27.727  43.298  54.092  1.00  0.00     0.050 A 
HETATM   21  C   UNL     1      29.000  43.708  54.514  1.00  0.00     0.016 A 
HETATM   22  C   UNL     1      30.141  43.097  54.001  1.00  0.00     0.003 A 
HETATM   23  C   UNL     1      30.018  42.064  53.070  1.00  0.00     0.029 A 
BRANCH  20  24
HETATM   24  C   UNL     1      26.491  43.945  54.664  1.00  0.00     0.417 C 
HETATM   25  F   UNL     1      25.565  44.282  53.724  1.00  0.00    -0.166 F 
HETATM   26  F   UNL     1      25.849  43.139  55.554  1.00  0.00    -0.166 F 
HETATM   27  F   UNL     1      26.764  45.098  55.340  1.00  0.00    -0.166 F 
ENDBRANCH  20  24
ENDBRANCH   3  18
TORSDOF 5
ENDMDL
