MODEL 1
REMARK VINA RESULT:      -9.2      0.000      0.000
REMARK  5 active torsions:
REMARK  status: ('A' for Active; 'I' for Inactive)
REMARK    1  A    between atoms: O_2  and  C_3 
REMARK    2  A    between atoms: C_5  and  C_15 
REMARK    3  A    between atoms: C_8  and  C_9 
REMARK       I    between atoms: C_15  and  N_17 
REMARK    4  A    between atoms: N_17  and  C_18 
REMARK    5  A    between atoms: C_20  and  C_21 
ROOT
HETATM    1  C   UNL     1      28.446  44.369  54.718  1.00  0.00     0.080 A 
HETATM    2  C   UNL     1      27.403  44.955  53.987  1.00  0.00     0.054 A 
HETATM    3  C   UNL     1      27.141  46.329  54.085  1.00  0.00     0.034 A 
HETATM    4  C   UNL     1      27.934  47.129  54.910  1.00  0.00     0.018 A 
HETATM    5  C   UNL     1      28.968  46.550  55.651  1.00  0.00     0.016 A 
HETATM    6  C   UNL     1      29.235  45.171  55.569  1.00  0.00     0.010 A 
ENDROOT
BRANCH   3   7
HETATM    7  C   UNL     1      26.040  46.895  53.259  1.00  0.00     0.252 C 
HETATM    8  O   UNL     1      25.420  47.874  53.662  1.00  0.00    -0.268 OA
HETATM    9  N   UNL     1      25.800  46.277  52.047  1.00  0.00    -0.352 N 
HETATM   10  H   UNL     1      26.457  45.592  51.695  1.00  0.00     0.163 HD
BRANCH   9  11
HETATM   11  C   UNL     1      24.762  46.726  51.167  1.00  0.00     0.094 A 
HETATM   12  C   UNL     1      24.370  45.894  49.982  1.00  0.00     0.037 A 
HETATM   13  C   UNL     1      25.083  47.207  49.766  1.00  0.00     0.043 A 
BRANCH  13  14
HETATM   14  C   UNL     1      24.331  48.375  49.171  1.00  0.00    -0.052 A 
HETATM   15  C   UNL     1      25.005  49.481  48.626  1.00  0.00     0.007 A 
HETATM   16  C   UNL     1      24.307  50.556  48.067  1.00  0.00     0.001 A 
HETATM   17  C   UNL     1      22.916  50.542  48.034  1.00  0.00     0.000 A 
HETATM   18  C   UNL     1      22.224  49.453  48.557  1.00  0.00     0.001 A 
HETATM   19  C   UNL     1      22.927  48.383  49.115  1.00  0.00     0.007 A 
ENDBRANCH  13  14
ENDBRANCH   9  11
ENDBRANCH   3   7
BRANCH   1  20
HETATM   20  O   UNL     1      28.748  43.031  54.657  1.00  0.00    -0.355 OA
HETATM   21  C   UNL     1      28.175  42.274  53.598  1.00  0.00     0.210 C 
ENDBRANCH   1  20
BRANCH   6  22
HETATM   22  C   UNL     1      30.325  44.614  56.362  1.00  0.00     0.013 A 
HETATM   23  C   UNL     1      30.734  44.868  57.693  1.00  0.00     0.152 A 
HETATM   24  N   UNL     1      31.797  44.145  58.056  1.00  0.00    -0.187 NA
HETATM   25  N   UNL     1      32.058  43.406  56.968  1.00  0.00    -0.289 N 
HETATM   26  H   UNL     1      32.830  42.749  57.008  1.00  0.00     0.188 HD
HETATM   27  C   UNL     1      31.215  43.654  55.924  1.00  0.00     0.123 A 
ENDBRANCH   6  22
TORSDOF 5
ENDMDL
MODEL 2
REMARK VINA RESULT:      -9.0      3.008      5.124
REMARK  5 active torsions:
REMARK  status: ('A' for Active; 'I' for Inactive)
REMARK    1  A    between atoms: O_2  and  C_3 
REMARK    2  A    between atoms: C_5  and  C_15 
REMARK    3  A    between atoms: C_8  and  C_9 
REMARK       I    between atoms: C_15  and  N_17 
REMARK    4  A    between atoms: N_17  and  C_18 
REMARK    5  A    between atoms: C_20  and  C_21 
ROOT
HETATM    1  C   UNL     1      25.968  46.421  52.041  1.00  0.00     0.080 A 
HETATM    2  C   UNL     1      25.097  47.151  51.220  1.00  0.00     0.054 A 
HETATM    3  C   UNL     1      24.399  46.525  50.178  1.00  0.00     0.034 A 
HETATM    4  C   UNL     1      24.560  45.156  49.959  1.00  0.00     0.018 A 
HETATM    5  C   UNL     1      25.435  44.424  50.766  1.00  0.00     0.016 A 
HETATM    6  C   UNL     1      26.149  45.041  51.808  1.00  0.00     0.010 A 
ENDROOT
BRANCH   3   7
HETATM    7  C   UNL     1      23.466  47.351  49.363  1.00  0.00     0.252 C 
HETATM    8  O   UNL     1      22.938  46.866  48.367  1.00  0.00    -0.268 OA
HETATM    9  N   UNL     1      23.231  48.637  49.811  1.00  0.00    -0.352 N 
HETATM   10  H   UNL     1      23.554  48.914  50.729  1.00  0.00     0.163 HD
BRANCH   9  11
HETATM   11  C   UNL     1      22.358  49.529  49.108  1.00  0.00     0.094 A 
HETATM   12  C   UNL     1      22.827  50.907  48.743  1.00  0.00     0.037 A 
HETATM   13  C   UNL     1      21.759  50.739  49.798  1.00  0.00     0.043 A 
BRANCH  13  14
HETATM   14  C   UNL     1      20.340  51.162  49.498  1.00  0.00    -0.052 A 
HETATM   15  C   UNL     1      20.044  52.047  48.447  1.00  0.00     0.007 A 
HETATM   16  C   UNL     1      18.729  52.428  48.165  1.00  0.00     0.001 A 
HETATM   17  C   UNL     1      17.679  51.924  48.926  1.00  0.00     0.000 A 
HETATM   18  C   UNL     1      17.943  51.037  49.966  1.00  0.00     0.001 A 
HETATM   19  C   UNL     1      19.260  50.661  50.243  1.00  0.00     0.007 A 
ENDBRANCH  13  14
ENDBRANCH   9  11
ENDBRANCH   3   7
BRANCH   1  20
HETATM   20  O   UNL     1      26.674  46.981  53.076  1.00  0.00    -0.355 OA
HETATM   21  C   UNL     1      25.934  47.482  54.183  1.00  0.00     0.210 C 
ENDBRANCH   1  20
BRANCH   6  22
HETATM   22  C   UNL     1      27.051  44.233  52.622  1.00  0.00     0.013 A 
HETATM   23  C   UNL     1      26.892  43.673  53.912  1.00  0.00     0.152 A 
HETATM   24  N   UNL     1      27.967  42.990  54.317  1.00  0.00    -0.187 NA
HETATM   25  N   UNL     1      28.810  43.090  53.278  1.00  0.00    -0.289 N 
HETATM   26  H   UNL     1      29.709  42.625  53.344  1.00  0.00     0.188 HD
HETATM   27  C   UNL     1      28.315  43.830  52.243  1.00  0.00     0.123 A 
ENDBRANCH   6  22
TORSDOF 5
ENDMDL
MODEL 3
REMARK VINA RESULT:      -8.9      3.019      9.865
REMARK  5 active torsions:
REMARK  status: ('A' for Active; 'I' for Inactive)
REMARK    1  A    between atoms: O_2  and  C_3 
REMARK    2  A    between atoms: C_5  and  C_15 
REMARK    3  A    between atoms: C_8  and  C_9 
REMARK       I    between atoms: C_15  and  N_17 
REMARK    4  A    between atoms: N_17  and  C_18 
REMARK    5  A    between atoms: C_20  and  C_21 
ROOT
HETATM    1  C   UNL     1      23.812  47.902  49.484  1.00  0.00     0.080 A 
HETATM    2  C   UNL     1      24.961  47.252  49.955  1.00  0.00     0.054 A 
HETATM    3  C   UNL     1      25.088  45.859  49.860  1.00  0.00     0.034 A 
HETATM    4  C   UNL     1      24.066  45.107  49.278  1.00  0.00     0.018 A 
HETATM    5  C   UNL     1      22.912  45.747  48.816  1.00  0.00     0.016 A 
HETATM    6  C   UNL     1      22.767  47.142  48.914  1.00  0.00     0.010 A 
ENDROOT
BRANCH   3   7
HETATM    7  C   UNL     1      26.347  45.233  50.352  1.00  0.00     0.252 C 
HETATM    8  O   UNL     1      27.241  44.965  49.556  1.00  0.00    -0.268 OA
HETATM    9  N   UNL     1      26.435  45.015  51.713  1.00  0.00    -0.352 N 
HETATM   10  H   UNL     1      25.742  45.419  52.331  1.00  0.00     0.163 HD
BRANCH   9  11
HETATM   11  C   UNL     1      27.594  44.414  52.303  1.00  0.00     0.094 A 
HETATM   12  C   UNL     1      27.612  42.941  52.589  1.00  0.00     0.037 A 
HETATM   13  C   UNL     1      27.571  43.921  53.737  1.00  0.00     0.043 A 
BRANCH  13  14
HETATM   14  C   UNL     1      28.786  44.090  54.619  1.00  0.00    -0.052 A 
HETATM   15  C   UNL     1      29.001  45.267  55.356  1.00  0.00     0.007 A 
HETATM   16  C   UNL     1      30.121  45.416  56.180  1.00  0.00     0.001 A 
HETATM   17  C   UNL     1      31.047  44.383  56.290  1.00  0.00     0.000 A 
HETATM   18  C   UNL     1      30.852  43.202  55.580  1.00  0.00     0.001 A 
HETATM   19  C   UNL     1      29.731  43.060  54.758  1.00  0.00     0.007 A 
ENDBRANCH  13  14
ENDBRANCH   9  11
ENDBRANCH   3   7
BRANCH   1  20
HETATM   20  O   UNL     1      23.636  49.262  49.548  1.00  0.00    -0.355 OA
HETATM   21  C   UNL     1      24.350  50.063  48.615  1.00  0.00     0.210 C 
ENDBRANCH   1  20
BRANCH   6  22
HETATM   22  C   UNL     1      21.545  47.763  48.418  1.00  0.00     0.013 A 
HETATM   23  C   UNL     1      20.581  48.572  49.065  1.00  0.00     0.152 A 
HETATM   24  N   UNL     1      19.588  48.947  48.253  1.00  0.00    -0.187 NA
HETATM   25  N   UNL     1      19.925  48.400  47.075  1.00  0.00    -0.289 N 
HETATM   26  H   UNL     1      19.318  48.565  46.279  1.00  0.00     0.188 HD
HETATM   27  C   UNL     1      21.080  47.674  47.121  1.00  0.00     0.123 A 
ENDBRANCH   6  22
TORSDOF 5
ENDMDL
MODEL 4
REMARK VINA RESULT:      -8.8      4.031     10.699
REMARK  5 active torsions:
REMARK  status: ('A' for Active; 'I' for Inactive)
REMARK    1  A    between atoms: O_2  and  C_3 
REMARK    2  A    between atoms: C_5  and  C_15 
REMARK    3  A    between atoms: C_8  and  C_9 
REMARK       I    between atoms: C_15  and  N_17 
REMARK    4  A    between atoms: N_17  and  C_18 
REMARK    5  A    between atoms: C_20  and  C_21 
ROOT
HETATM    1  C   UNL     1      20.769  49.177  48.819  1.00  0.00     0.080 A 
HETATM    2  C   UNL     1      21.951  48.522  49.193  1.00  0.00     0.054 A 
HETATM    3  C   UNL     1      23.188  49.177  49.118  1.00  0.00     0.034 A 
HETATM    4  C   UNL     1      23.247  50.501  48.680  1.00  0.00     0.018 A 
HETATM    5  C   UNL     1      22.075  51.157  48.296  1.00  0.00     0.016 A 
HETATM    6  C   UNL     1      20.828  50.509  48.356  1.00  0.00     0.010 A 
ENDROOT
BRANCH   3   7
HETATM    7  C   UNL     1      24.402  48.435  49.558  1.00  0.00     0.252 C 
HETATM    8  O   UNL     1      25.466  48.611  48.973  1.00  0.00    -0.268 OA
HETATM    9  N   UNL     1      24.250  47.594  50.644  1.00  0.00    -0.352 N 
HETATM   10  H   UNL     1      23.397  47.629  51.188  1.00  0.00     0.163 HD
BRANCH   9  11
HETATM   11  C   UNL     1      25.343  46.823  51.155  1.00  0.00     0.094 A 
HETATM   12  C   UNL     1      25.229  45.330  51.250  1.00  0.00     0.037 A 
HETATM   13  C   UNL     1      25.257  46.155  52.514  1.00  0.00     0.043 A 
BRANCH  13  14
HETATM   14  C   UNL     1      26.470  46.102  53.414  1.00  0.00    -0.052 A 
HETATM   15  C   UNL     1      26.904  47.231  54.128  1.00  0.00     0.007 A 
HETATM   16  C   UNL     1      28.020  47.176  54.969  1.00  0.00     0.001 A 
HETATM   17  C   UNL     1      28.722  45.984  55.119  1.00  0.00     0.000 A 
HETATM   18  C   UNL     1      28.305  44.847  54.431  1.00  0.00     0.001 A 
HETATM   19  C   UNL     1      27.190  44.909  53.593  1.00  0.00     0.007 A 
ENDBRANCH  13  14
ENDBRANCH   9  11
ENDBRANCH   3   7
BRANCH   1  20
HETATM   20  O   UNL     1      19.531  48.586  48.875  1.00  0.00    -0.355 OA
HETATM   21  C   UNL     1      18.932  48.431  50.156  1.00  0.00     0.210 C 
ENDBRANCH   1  20
BRANCH   6  22
HETATM   22  C   UNL     1      19.633  51.236  47.944  1.00  0.00     0.013 A 
HETATM   23  C   UNL     1      18.757  51.044  46.849  1.00  0.00     0.152 A 
HETATM   24  N   UNL     1      17.763  51.938  46.817  1.00  0.00    -0.187 NA
HETATM   25  N   UNL     1      17.984  52.689  47.906  1.00  0.00    -0.289 N 
HETATM   26  H   UNL     1      17.335  53.441  48.109  1.00  0.00     0.188 HD
HETATM   27  C   UNL     1      19.094  52.319  48.609  1.00  0.00     0.123 A 
ENDBRANCH   6  22
TORSDOF 5
ENDMDL
MODEL 5
REMARK VINA RESULT:      -8.8      3.256      4.952
REMARK  5 active torsions:
REMARK  status: ('A' for Active; 'I' for Inactive)
REMARK    1  A    between atoms: O_2  and  C_3 
REMARK    2  A    between atoms: C_5  and  C_15 
REMARK    3  A    between atoms: C_8  and  C_9 
REMARK       I    between atoms: C_15  and  N_17 
REMARK    4  A    between atoms: N_17  and  C_18 
REMARK    5  A    between atoms: C_20  and  C_21 
ROOT
HETATM    1  C   UNL     1      25.342  44.342  50.927  1.00  0.00     0.080 A 
HETATM    2  C   UNL     1      24.475  45.150  50.178  1.00  0.00     0.054 A 
HETATM    3  C   UNL     1      24.445  46.539  50.368  1.00  0.00     0.034 A 
HETATM    4  C   UNL     1      25.296  47.129  51.304  1.00  0.00     0.018 A 
HETATM    5  C   UNL     1      26.156  46.329  52.061  1.00  0.00     0.016 A 
HETATM    6  C   UNL     1      26.189  44.934  51.888  1.00  0.00     0.010 A 
ENDROOT
BRANCH   3   7
HETATM    7  C   UNL     1      23.523  47.344  49.520  1.00  0.00     0.252 C 
HETATM    8  O   UNL     1      23.017  46.836  48.524  1.00  0.00    -0.268 OA
HETATM    9  N   UNL     1      23.273  48.637  49.938  1.00  0.00    -0.352 N 
HETATM   10  H   UNL     1      23.577  48.934  50.856  1.00  0.00     0.163 HD
BRANCH   9  11
HETATM   11  C   UNL     1      22.409  49.509  49.201  1.00  0.00     0.094 A 
HETATM   12  C   UNL     1      22.880  50.880  48.813  1.00  0.00     0.037 A 
HETATM   13  C   UNL     1      21.796  50.733  49.854  1.00  0.00     0.043 A 
BRANCH  13  14
HETATM   14  C   UNL     1      20.381  51.145  49.522  1.00  0.00    -0.052 A 
HETATM   15  C   UNL     1      20.100  52.011  48.451  1.00  0.00     0.007 A 
HETATM   16  C   UNL     1      18.788  52.381  48.140  1.00  0.00     0.001 A 
HETATM   17  C   UNL     1      17.727  51.886  48.890  1.00  0.00     0.000 A 
HETATM   18  C   UNL     1      17.977  51.018  49.950  1.00  0.00     0.001 A 
HETATM   19  C   UNL     1      19.290  50.652  50.256  1.00  0.00     0.007 A 
ENDBRANCH  13  14
ENDBRANCH   9  11
ENDBRANCH   3   7
BRANCH   1  20
HETATM   20  O   UNL     1      25.415  42.979  50.780  1.00  0.00    -0.355 OA
HETATM   21  C   UNL     1      26.004  42.476  49.586  1.00  0.00     0.210 C 
ENDBRANCH   1  20
BRANCH   6  22
HETATM   22  C   UNL     1      27.103  44.142  52.703  1.00  0.00     0.013 A 
HETATM   23  C   UNL     1      28.406  43.659  52.438  1.00  0.00     0.152 A 
HETATM   24  N   UNL     1      28.916  42.958  53.456  1.00  0.00    -0.187 NA
HETATM   25  N   UNL     1      27.952  43.012  54.386  1.00  0.00    -0.289 N 
HETATM   26  H   UNL     1      28.118  42.556  55.277  1.00  0.00     0.188 HD
HETATM   27  C   UNL     1      26.842  43.698  53.984  1.00  0.00     0.123 A 
ENDBRANCH   6  22
TORSDOF 5
ENDMDL
MODEL 6
REMARK VINA RESULT:      -8.3      3.050      4.691
REMARK  5 active torsions:
REMARK  status: ('A' for Active; 'I' for Inactive)
REMARK    1  A    between atoms: O_2  and  C_3 
REMARK    2  A    between atoms: C_5  and  C_15 
REMARK    3  A    between atoms: C_8  and  C_9 
REMARK       I    between atoms: C_15  and  N_17 
REMARK    4  A    between atoms: N_17  and  C_18 
REMARK    5  A    between atoms: C_20  and  C_21 
ROOT
HETATM    1  C   UNL     1      25.957  44.979  52.218  1.00  0.00     0.080 A 
HETATM    2  C   UNL     1      25.011  45.753  51.531  1.00  0.00     0.054 A 
HETATM    3  C   UNL     1      24.899  45.678  50.135  1.00  0.00     0.034 A 
HETATM    4  C   UNL     1      25.729  44.814  49.419  1.00  0.00     0.018 A 
HETATM    5  C   UNL     1      26.682  44.048  50.095  1.00  0.00     0.016 A 
HETATM    6  C   UNL     1      26.812  44.121  51.493  1.00  0.00     0.010 A 
ENDROOT
BRANCH   3   7
HETATM    7  C   UNL     1      23.853  46.502  49.469  1.00  0.00     0.252 C 
HETATM    8  O   UNL     1      22.852  45.959  49.013  1.00  0.00    -0.268 OA
HETATM    9  N   UNL     1      24.075  47.865  49.432  1.00  0.00    -0.352 N 
HETATM   10  H   UNL     1      24.827  48.265  49.979  1.00  0.00     0.163 HD
BRANCH   9  11
HETATM   11  C   UNL     1      23.144  48.761  48.813  1.00  0.00     0.094 A 
HETATM   12  C   UNL     1      23.631  50.034  48.187  1.00  0.00     0.037 A 
HETATM   13  C   UNL     1      22.805  50.095  49.450  1.00  0.00     0.043 A 
BRANCH  13  14
HETATM   14  C   UNL     1      21.393  50.628  49.393  1.00  0.00    -0.052 A 
HETATM   15  C   UNL     1      20.425  50.244  50.337  1.00  0.00     0.007 A 
HETATM   16  C   UNL     1      19.121  50.747  50.289  1.00  0.00     0.001 A 
HETATM   17  C   UNL     1      18.760  51.654  49.298  1.00  0.00     0.000 A 
HETATM   18  C   UNL     1      19.703  52.060  48.357  1.00  0.00     0.001 A 
HETATM   19  C   UNL     1      21.004  51.553  48.410  1.00  0.00     0.007 A 
ENDBRANCH  13  14
ENDBRANCH   9  11
ENDBRANCH   3   7
BRANCH   1  20
HETATM   20  O   UNL     1      26.108  45.011  53.582  1.00  0.00    -0.355 OA
HETATM   21  C   UNL     1      25.098  44.391  54.370  1.00  0.00     0.210 C 
ENDBRANCH   1  20
BRANCH   6  22
HETATM   22  C   UNL     1      27.822  43.302  52.153  1.00  0.00     0.013 A 
HETATM   23  C   UNL     1      29.175  43.568  52.472  1.00  0.00     0.152 A 
HETATM   24  N   UNL     1      29.775  42.542  53.085  1.00  0.00    -0.187 NA
HETATM   25  N   UNL     1      28.801  41.625  53.184  1.00  0.00    -0.289 N 
HETATM   26  H   UNL     1      29.016  40.745  53.641  1.00  0.00     0.188 HD
HETATM   27  C   UNL     1      27.617  42.024  52.634  1.00  0.00     0.123 A 
ENDBRANCH   6  22
TORSDOF 5
ENDMDL
MODEL 7
REMARK VINA RESULT:      -8.2      5.658      9.959
REMARK  5 active torsions:
REMARK  status: ('A' for Active; 'I' for Inactive)
REMARK    1  A    between atoms: O_2  and  C_3 
REMARK    2  A    between atoms: C_5  and  C_15 
REMARK    3  A    between atoms: C_8  and  C_9 
REMARK       I    between atoms: C_15  and  N_17 
REMARK    4  A    between atoms: N_17  and  C_18 
REMARK    5  A    between atoms: C_20  and  C_21 
ROOT
HETATM    1  C   UNL     1      26.776  39.482  48.769  1.00  0.00     0.080 A 
HETATM    2  C   UNL     1      26.709  40.453  49.778  1.00  0.00     0.054 A 
HETATM    3  C   UNL     1      27.682  40.510  50.786  1.00  0.00     0.034 A 
HETATM    4  C   UNL     1      28.740  39.599  50.780  1.00  0.00     0.018 A 
HETATM    5  C   UNL     1      28.807  38.621  49.785  1.00  0.00     0.016 A 
HETATM    6  C   UNL     1      27.832  38.546  48.774  1.00  0.00     0.010 A 
ENDROOT
BRANCH   3   7
HETATM    7  C   UNL     1      27.571  41.585  51.810  1.00  0.00     0.252 C 
HETATM    8  O   UNL     1      26.595  42.328  51.804  1.00  0.00    -0.268 OA
HETATM    9  N   UNL     1      28.590  41.659  52.739  1.00  0.00    -0.352 N 
HETATM   10  H   UNL     1      29.269  40.911  52.797  1.00  0.00     0.163 HD
BRANCH   9  11
HETATM   11  C   UNL     1      28.597  42.654  53.769  1.00  0.00     0.094 A 
HETATM   12  C   UNL     1      28.511  44.108  53.408  1.00  0.00     0.037 A 
HETATM   13  C   UNL     1      29.798  43.557  53.972  1.00  0.00     0.043 A 
BRANCH  13  14
HETATM   14  C   UNL     1      30.230  43.947  55.366  1.00  0.00    -0.052 A 
HETATM   15  C   UNL     1      31.104  43.142  56.117  1.00  0.00     0.007 A 
HETATM   16  C   UNL     1      31.510  43.511  57.403  1.00  0.00     0.001 A 
HETATM   17  C   UNL     1      31.056  44.701  57.963  1.00  0.00     0.000 A 
HETATM   18  C   UNL     1      30.198  45.523  57.236  1.00  0.00     0.001 A 
HETATM   19  C   UNL     1      29.795  45.148  55.952  1.00  0.00     0.007 A 
ENDBRANCH  13  14
ENDBRANCH   9  11
ENDBRANCH   3   7
BRANCH   1  20
HETATM   20  O   UNL     1      25.853  39.382  47.758  1.00  0.00    -0.355 OA
HETATM   21  C   UNL     1      25.378  40.591  47.178  1.00  0.00     0.210 C 
ENDBRANCH   1  20
BRANCH   6  22
HETATM   22  C   UNL     1      27.946  37.507  47.757  1.00  0.00     0.013 A 
HETATM   23  C   UNL     1      28.784  37.402  46.622  1.00  0.00     0.152 A 
HETATM   24  N   UNL     1      28.580  36.279  45.928  1.00  0.00    -0.187 NA
HETATM   25  N   UNL     1      27.627  35.647  46.629  1.00  0.00    -0.289 N 
HETATM   26  H   UNL     1      27.310  34.741  46.301  1.00  0.00     0.188 HD
HETATM   27  C   UNL     1      27.206  36.342  47.727  1.00  0.00     0.123 A 
ENDBRANCH   6  22
TORSDOF 5
ENDMDL
MODEL 8
REMARK VINA RESULT:      -8.1      4.518      9.390
REMARK  5 active torsions:
REMARK  status: ('A' for Active; 'I' for Inactive)
REMARK    1  A    between atoms: O_2  and  C_3 
REMARK    2  A    between atoms: C_5  and  C_15 
REMARK    3  A    between atoms: C_8  and  C_9 
REMARK       I    between atoms: C_15  and  N_17 
REMARK    4  A    between atoms: N_17  and  C_18 
REMARK    5  A    between atoms: C_20  and  C_21 
ROOT
HETATM    1  C   UNL     1      26.392  40.475  50.037  1.00  0.00     0.080 A 
HETATM    2  C   UNL     1      26.942  40.923  51.246  1.00  0.00     0.054 A 
HETATM    3  C   UNL     1      26.773  42.251  51.663  1.00  0.00     0.034 A 
HETATM    4  C   UNL     1      26.037  43.137  50.875  1.00  0.00     0.018 A 
HETATM    5  C   UNL     1      25.495  42.701  49.664  1.00  0.00     0.016 A 
HETATM    6  C   UNL     1      25.666  41.375  49.228  1.00  0.00     0.010 A 
ENDROOT
BRANCH   3   7
HETATM    7  C   UNL     1      27.356  42.656  52.972  1.00  0.00     0.252 C 
HETATM    8  O   UNL     1      28.063  41.866  53.591  1.00  0.00    -0.268 OA
HETATM    9  N   UNL     1      27.075  43.938  53.402  1.00  0.00    -0.352 N 
HETATM   10  H   UNL     1      26.638  44.594  52.767  1.00  0.00     0.163 HD
BRANCH   9  11
HETATM   11  C   UNL     1      27.574  44.439  54.647  1.00  0.00     0.094 A 
HETATM   12  C   UNL     1      27.628  45.918  54.895  1.00  0.00     0.037 A 
HETATM   13  C   UNL     1      28.914  45.146  54.723  1.00  0.00     0.043 A 
BRANCH  13  14
HETATM   14  C   UNL     1      29.821  44.932  55.912  1.00  0.00    -0.052 A 
HETATM   15  C   UNL     1      29.743  45.750  57.051  1.00  0.00     0.007 A 
HETATM   16  C   UNL     1      30.577  45.544  58.155  1.00  0.00     0.001 A 
HETATM   17  C   UNL     1      31.503  44.506  58.144  1.00  0.00     0.000 A 
HETATM   18  C   UNL     1      31.594  43.673  57.031  1.00  0.00     0.001 A 
HETATM   19  C   UNL     1      30.758  43.885  55.932  1.00  0.00     0.007 A 
ENDBRANCH  13  14
ENDBRANCH   9  11
ENDBRANCH   3   7
BRANCH   1  20
HETATM   20  O   UNL     1      26.525  39.187  49.581  1.00  0.00    -0.355 OA
HETATM   21  C   UNL     1      27.836  38.638  49.528  1.00  0.00     0.210 C 
ENDBRANCH   1  20
BRANCH   6  22
HETATM   22  C   UNL     1      25.081  40.967  47.955  1.00  0.00     0.013 A 
HETATM   23  C   UNL     1      23.746  40.662  47.599  1.00  0.00     0.152 A 
HETATM   24  N   UNL     1      23.617  40.323  46.312  1.00  0.00    -0.187 NA
HETATM   25  N   UNL     1      24.865  40.434  45.834  1.00  0.00    -0.289 N 
HETATM   26  H   UNL     1      25.020  40.241  44.850  1.00  0.00     0.188 HD
HETATM   27  C   UNL     1      25.780  40.807  46.776  1.00  0.00     0.123 A 
ENDBRANCH   6  22
TORSDOF 5
ENDMDL
MODEL 9
REMARK VINA RESULT:      -8.0      2.705      4.473
REMARK  5 active torsions:
REMARK  status: ('A' for Active; 'I' for Inactive)
REMARK    1  A    between atoms: O_2  and  C_3 
REMARK    2  A    between atoms: C_5  and  C_15 
REMARK    3  A    between atoms: C_8  and  C_9 
REMARK       I    between atoms: C_15  and  N_17 
REMARK    4  A    between atoms: N_17  and  C_18 
REMARK    5  A    between atoms: C_20  and  C_21 
ROOT
HETATM    1  C   UNL     1      28.599  44.594  54.719  1.00  0.00     0.080 A 
HETATM    2  C   UNL     1      27.916  44.396  53.511  1.00  0.00     0.054 A 
HETATM    3  C   UNL     1      28.423  43.530  52.532  1.00  0.00     0.034 A 
HETATM    4  C   UNL     1      29.615  42.844  52.764  1.00  0.00     0.018 A 
HETATM    5  C   UNL     1      30.308  43.043  53.961  1.00  0.00     0.016 A 
HETATM    6  C   UNL     1      29.817  43.917  54.947  1.00  0.00     0.010 A 
ENDROOT
BRANCH   3   7
HETATM    7  C   UNL     1      27.632  43.341  51.284  1.00  0.00     0.252 C 
HETATM    8  O   UNL     1      27.673  42.265  50.698  1.00  0.00    -0.268 OA
HETATM    9  N   UNL     1      26.864  44.414  50.874  1.00  0.00    -0.352 N 
HETATM   10  H   UNL     1      26.736  45.204  51.494  1.00  0.00     0.163 HD
BRANCH   9  11
HETATM   11  C   UNL     1      26.066  44.355  49.687  1.00  0.00     0.094 A 
HETATM   12  C   UNL     1      25.199  45.519  49.306  1.00  0.00     0.037 A 
HETATM   13  C   UNL     1      24.557  44.233  49.767  1.00  0.00     0.043 A 
BRANCH  13  14
HETATM   14  C   UNL     1      23.809  43.374  48.774  1.00  0.00    -0.052 A 
HETATM   15  C   UNL     1      23.395  43.881  47.530  1.00  0.00     0.007 A 
HETATM   16  C   UNL     1      22.712  43.081  46.609  1.00  0.00     0.001 A 
HETATM   17  C   UNL     1      22.436  41.751  46.910  1.00  0.00     0.000 A 
HETATM   18  C   UNL     1      22.845  41.221  48.131  1.00  0.00     0.001 A 
HETATM   19  C   UNL     1      23.526  42.025  49.047  1.00  0.00     0.007 A 
ENDBRANCH  13  14
ENDBRANCH   9  11
ENDBRANCH   3   7
BRANCH   1  20
HETATM   20  O   UNL     1      28.148  45.427  55.712  1.00  0.00    -0.355 OA
HETATM   21  C   UNL     1      27.755  46.743  55.340  1.00  0.00     0.210 C 
ENDBRANCH   1  20
BRANCH   6  22
HETATM   22  C   UNL     1      30.577  44.092  56.180  1.00  0.00     0.013 A 
HETATM   23  C   UNL     1      31.516  43.251  56.823  1.00  0.00     0.152 A 
HETATM   24  N   UNL     1      31.996  43.778  57.953  1.00  0.00    -0.187 NA
HETATM   25  N   UNL     1      31.385  44.970  58.026  1.00  0.00    -0.289 N 
HETATM   26  H   UNL     1      31.608  45.576  58.808  1.00  0.00     0.188 HD
HETATM   27  C   UNL     1      30.520  45.203  56.996  1.00  0.00     0.123 A 
ENDBRANCH   6  22
TORSDOF 5
ENDMDL
MODEL 10
REMARK VINA RESULT:      -7.8     16.331     18.881
REMARK  5 active torsions:
REMARK  status: ('A' for Active; 'I' for Inactive)
REMARK    1  A    between atoms: O_2  and  C_3 
REMARK    2  A    between atoms: C_5  and  C_15 
REMARK    3  A    between atoms: C_8  and  C_9 
REMARK       I    between atoms: C_15  and  N_17 
REMARK    4  A    between atoms: N_17  and  C_18 
REMARK    5  A    between atoms: C_20  and  C_21 
ROOT
HETATM    1  C   UNL     1      39.479  49.553  67.041  1.00  0.00     0.080 A 
HETATM    2  C   UNL     1      39.915  48.400  66.374  1.00  0.00     0.054 A 
HETATM    3  C   UNL     1      39.259  47.947  65.221  1.00  0.00     0.034 A 
HETATM    4  C   UNL     1      38.167  48.656  64.720  1.00  0.00     0.018 A 
HETATM    5  C   UNL     1      37.719  49.800  65.385  1.00  0.00     0.016 A 
HETATM    6  C   UNL     1      38.361  50.261  66.549  1.00  0.00     0.010 A 
ENDROOT
BRANCH   3   7
HETATM    7  C   UNL     1      39.792  46.733  64.542  1.00  0.00     0.252 C 
HETATM    8  O   UNL     1      40.965  46.704  64.184  1.00  0.00    -0.268 OA
HETATM    9  N   UNL     1      38.910  45.682  64.380  1.00  0.00    -0.352 N 
HETATM   10  H   UNL     1      38.016  45.701  64.853  1.00  0.00     0.163 HD
BRANCH   9  11
HETATM   11  C   UNL     1      39.304  44.464  63.736  1.00  0.00     0.094 A 
HETATM   12  C   UNL     1      38.800  44.146  62.360  1.00  0.00     0.037 A 
HETATM   13  C   UNL     1      38.314  43.333  63.536  1.00  0.00     0.043 A 
BRANCH  13  14
HETATM   14  C   UNL     1      38.759  41.897  63.686  1.00  0.00    -0.052 A 
HETATM   15  C   UNL     1      38.797  41.267  64.941  1.00  0.00     0.007 A 
HETATM   16  C   UNL     1      39.198  39.934  65.076  1.00  0.00     0.001 A 
HETATM   17  C   UNL     1      39.563  39.200  63.952  1.00  0.00     0.000 A 
HETATM   18  C   UNL     1      39.524  39.796  62.695  1.00  0.00     0.001 A 
HETATM   19  C   UNL     1      39.122  41.128  62.567  1.00  0.00     0.007 A 
ENDBRANCH  13  14
ENDBRANCH   9  11
ENDBRANCH   3   7
BRANCH   1  20
HETATM   20  O   UNL     1      40.084  50.044  68.172  1.00  0.00    -0.355 OA
HETATM   21  C   UNL     1      40.654  49.103  69.074  1.00  0.00     0.210 C 
ENDBRANCH   1  20
BRANCH   6  22
HETATM   22  C   UNL     1      37.856  51.460  67.208  1.00  0.00     0.013 A 
HETATM   23  C   UNL     1      37.164  51.630  68.431  1.00  0.00     0.152 A 
HETATM   24  N   UNL     1      36.869  52.908  68.686  1.00  0.00    -0.187 NA
HETATM   25  N   UNL     1      37.392  53.564  67.640  1.00  0.00    -0.289 N 
HETATM   26  H   UNL     1      37.307  54.575  67.617  1.00  0.00     0.188 HD
HETATM   27  C   UNL     1      37.985  52.745  66.723  1.00  0.00     0.123 A 
ENDBRANCH   6  22
TORSDOF 5
ENDMDL
