MODEL 1
REMARK VINA RESULT:      -8.6      0.000      0.000
REMARK  3 active torsions:
REMARK  status: ('A' for Active; 'I' for Inactive)
REMARK    1  A    between atoms: C_7  and  C_8 
REMARK    2  A    between atoms: C_17  and  C_18 
REMARK       I    between atoms: C_18  and  N_19 
REMARK    3  A    between atoms: N_19  and  C_20 
ROOT
HETATM    1  C   UNL     1      25.384  43.378  51.997  1.00  0.00     0.206 C 
HETATM    2  N   UNL     1      24.356  43.744  51.015  1.00  0.00    -0.084 N 
HETATM    3  C   UNL     1      24.154  45.019  50.559  1.00  0.00     0.725 A 
HETATM    4  N   UNL     1      23.178  45.021  49.689  1.00  0.00    -0.054 NA
HETATM    5  C   UNL     1      22.785  43.707  49.671  1.00  0.00     0.275 A 
HETATM    6  N   UNL     1      23.461  42.885  50.483  1.00  0.00    -0.149 NA
HETATM    7  N   UNL     1      24.898  46.025  51.059  1.00  0.00    -0.192 N 
HETATM    8  C   UNL     1      25.739  45.867  52.157  1.00  0.00     0.037 C 
HETATM    9  C   UNL     1      26.225  47.147  52.791  1.00  0.00     0.070 C 
HETATM   10  C   UNL     1      26.004  44.620  52.623  1.00  0.00     0.063 C 
HETATM   11  H   UNL     1      24.646  46.974  50.793  1.00  0.00     0.184 HD
ENDROOT
BRANCH  10  12
HETATM   12  C   UNL     1      26.807  44.339  53.844  1.00  0.00     0.256 C 
HETATM   13  N   UNL     1      28.163  44.502  53.663  1.00  0.00    -0.323 N 
HETATM   14  H   UNL     1      28.479  44.733  52.729  1.00  0.00     0.169 HD
HETATM   15  O   UNL     1      26.225  43.974  54.857  1.00  0.00    -0.267 OA
BRANCH  13  16
HETATM   16  C   UNL     1      29.171  44.421  54.647  1.00  0.00     0.035 A 
HETATM   17  C   UNL     1      29.995  43.308  54.832  1.00  0.00     0.029 A 
HETATM   18  C   UNL     1      30.951  43.296  55.853  1.00  0.00     0.002 A 
HETATM   19  C   UNL     1      31.088  44.391  56.701  1.00  0.00     0.000 A 
HETATM   20  C   UNL     1      30.273  45.506  56.526  1.00  0.00     0.002 A 
HETATM   21  C   UNL     1      29.323  45.523  55.500  1.00  0.00     0.029 A 
ENDBRANCH  13  16
ENDBRANCH  10  12
BRANCH   1  22
HETATM   22  C   UNL     1      26.427  42.519  51.329  1.00  0.00     0.015 A 
HETATM   23  C   UNL     1      27.251  41.552  51.893  1.00  0.00     0.036 A 
HETATM   24  C   UNL     1      27.375  41.073  53.293  1.00  0.00     0.070 C 
HETATM   25  N   UNL     1      27.981  41.030  50.853  1.00  0.00    -0.278 N 
HETATM   26  C   UNL     1      28.928  39.940  50.891  1.00  0.00     0.179 C 
HETATM   27  N   UNL     1      27.752  41.647  49.679  1.00  0.00    -0.185 NA
HETATM   28  C   UNL     1      26.787  42.520  49.959  1.00  0.00     0.150 A 
ENDBRANCH   1  22
TORSDOF 3
ENDMDL
MODEL 2
REMARK VINA RESULT:      -8.0      1.984      4.765
REMARK  3 active torsions:
REMARK  status: ('A' for Active; 'I' for Inactive)
REMARK    1  A    between atoms: C_7  and  C_8 
REMARK    2  A    between atoms: C_17  and  C_18 
REMARK       I    between atoms: C_18  and  N_19 
REMARK    3  A    between atoms: N_19  and  C_20 
ROOT
HETATM    1  C   UNL     1      27.470  42.739  50.160  1.00  0.00     0.206 C 
HETATM    2  N   UNL     1      27.408  41.505  49.369  1.00  0.00    -0.084 N 
HETATM    3  C   UNL     1      27.408  40.248  49.911  1.00  0.00     0.725 A 
HETATM    4  N   UNL     1      27.335  39.360  48.954  1.00  0.00    -0.054 NA
HETATM    5  C   UNL     1      27.327  40.134  47.822  1.00  0.00     0.275 A 
HETATM    6  N   UNL     1      27.393  41.456  48.019  1.00  0.00    -0.149 NA
HETATM    7  N   UNL     1      27.517  40.105  51.246  1.00  0.00    -0.192 N 
HETATM    8  C   UNL     1      27.821  41.166  52.096  1.00  0.00     0.037 C 
HETATM    9  C   UNL     1      28.240  40.779  53.492  1.00  0.00     0.070 C 
HETATM   10  C   UNL     1      27.795  42.435  51.617  1.00  0.00     0.063 C 
HETATM   11  H   UNL     1      27.636  39.163  51.612  1.00  0.00     0.184 HD
ENDROOT
BRANCH  10  12
HETATM   12  C   UNL     1      28.194  43.633  52.405  1.00  0.00     0.256 C 
HETATM   13  N   UNL     1      27.128  44.321  52.941  1.00  0.00    -0.323 N 
HETATM   14  H   UNL     1      26.201  43.990  52.707  1.00  0.00     0.169 HD
HETATM   15  O   UNL     1      29.383  43.912  52.484  1.00  0.00    -0.267 OA
BRANCH  13  16
HETATM   16  C   UNL     1      27.181  45.423  53.822  1.00  0.00     0.035 A 
HETATM   17  C   UNL     1      28.016  45.492  54.939  1.00  0.00     0.029 A 
HETATM   18  C   UNL     1      27.985  46.609  55.780  1.00  0.00     0.002 A 
HETATM   19  C   UNL     1      27.115  47.663  55.515  1.00  0.00     0.000 A 
HETATM   20  C   UNL     1      26.279  47.606  54.404  1.00  0.00     0.002 A 
HETATM   21  C   UNL     1      26.316  46.494  53.558  1.00  0.00     0.029 A 
ENDBRANCH  13  16
ENDBRANCH  10  12
BRANCH   1  22
HETATM   22  C   UNL     1      26.164  43.480  50.030  1.00  0.00     0.015 A 
HETATM   23  C   UNL     1      25.949  44.834  49.804  1.00  0.00     0.036 A 
HETATM   24  C   UNL     1      26.906  45.958  49.633  1.00  0.00     0.070 C 
HETATM   25  N   UNL     1      24.587  44.988  49.721  1.00  0.00    -0.278 N 
HETATM   26  C   UNL     1      23.845  46.191  49.418  1.00  0.00     0.179 C 
HETATM   27  N   UNL     1      23.907  43.853  49.961  1.00  0.00    -0.185 NA
HETATM   28  C   UNL     1      24.859  42.935  50.111  1.00  0.00     0.150 A 
ENDBRANCH   1  22
TORSDOF 3
ENDMDL
MODEL 3
REMARK VINA RESULT:      -7.9      3.492      8.236
REMARK  3 active torsions:
REMARK  status: ('A' for Active; 'I' for Inactive)
REMARK    1  A    between atoms: C_7  and  C_8 
REMARK    2  A    between atoms: C_17  and  C_18 
REMARK       I    between atoms: C_18  and  N_19 
REMARK    3  A    between atoms: N_19  and  C_20 
ROOT
HETATM    1  C   UNL     1      24.752  46.520  50.973  1.00  0.00     0.206 C 
HETATM    2  N   UNL     1      25.382  46.510  52.299  1.00  0.00    -0.084 N 
HETATM    3  C   UNL     1      26.000  45.417  52.844  1.00  0.00     0.725 A 
HETATM    4  N   UNL     1      26.469  45.725  54.025  1.00  0.00    -0.054 NA
HETATM    5  C   UNL     1      26.076  47.031  54.176  1.00  0.00     0.275 A 
HETATM    6  N   UNL     1      25.387  47.554  53.156  1.00  0.00    -0.149 NA
HETATM    7  N   UNL     1      26.004  44.254  52.164  1.00  0.00    -0.192 N 
HETATM    8  C   UNL     1      25.248  44.050  51.013  1.00  0.00     0.037 C 
HETATM    9  C   UNL     1      25.100  42.613  50.580  1.00  0.00     0.070 C 
HETATM   10  C   UNL     1      24.648  45.108  50.411  1.00  0.00     0.063 C 
HETATM   11  H   UNL     1      26.363  43.430  52.642  1.00  0.00     0.184 HD
ENDROOT
BRANCH  10  12
HETATM   12  C   UNL     1      23.741  44.996  49.237  1.00  0.00     0.256 C 
HETATM   13  N   UNL     1      22.533  45.634  49.409  1.00  0.00    -0.323 N 
HETATM   14  H   UNL     1      22.359  46.056  50.313  1.00  0.00     0.169 HD
HETATM   15  O   UNL     1      24.116  44.349  48.267  1.00  0.00    -0.267 OA
BRANCH  13  16
HETATM   16  C   UNL     1      21.513  45.804  48.448  1.00  0.00     0.035 A 
HETATM   17  C   UNL     1      21.649  46.575  47.292  1.00  0.00     0.029 A 
HETATM   18  C   UNL     1      20.577  46.717  46.404  1.00  0.00     0.002 A 
HETATM   19  C   UNL     1      19.360  46.095  46.667  1.00  0.00     0.000 A 
HETATM   20  C   UNL     1      19.213  45.323  47.816  1.00  0.00     0.002 A 
HETATM   21  C   UNL     1      20.286  45.173  48.699  1.00  0.00     0.029 A 
ENDBRANCH  13  16
ENDBRANCH  10  12
BRANCH   1  22
HETATM   22  C   UNL     1      25.537  47.422  50.056  1.00  0.00     0.015 A 
HETATM   23  C   UNL     1      25.092  48.506  49.308  1.00  0.00     0.036 A 
HETATM   24  C   UNL     1      23.738  49.103  49.168  1.00  0.00     0.070 C 
HETATM   25  N   UNL     1      26.205  49.014  48.685  1.00  0.00    -0.278 N 
HETATM   26  C   UNL     1      26.298  50.191  47.853  1.00  0.00     0.179 C 
HETATM   27  N   UNL     1      27.316  48.288  48.905  1.00  0.00    -0.185 NA
HETATM   28  C   UNL     1      26.921  47.349  49.762  1.00  0.00     0.150 A 
ENDBRANCH   1  22
TORSDOF 3
ENDMDL
MODEL 4
REMARK VINA RESULT:      -7.7      1.967      5.546
REMARK  3 active torsions:
REMARK  status: ('A' for Active; 'I' for Inactive)
REMARK    1  A    between atoms: C_7  and  C_8 
REMARK    2  A    between atoms: C_17  and  C_18 
REMARK       I    between atoms: C_18  and  N_19 
REMARK    3  A    between atoms: N_19  and  C_20 
ROOT
HETATM    1  C   UNL     1      26.795  43.768  53.085  1.00  0.00     0.206 C 
HETATM    2  N   UNL     1      26.796  45.042  53.814  1.00  0.00    -0.084 N 
HETATM    3  C   UNL     1      27.909  45.593  54.390  1.00  0.00     0.725 A 
HETATM    4  N   UNL     1      27.592  46.729  54.954  1.00  0.00    -0.054 NA
HETATM    5  C   UNL     1      26.242  46.815  54.723  1.00  0.00     0.275 A 
HETATM    6  N   UNL     1      25.700  45.796  54.047  1.00  0.00    -0.149 NA
HETATM    7  N   UNL     1      29.078  44.924  54.340  1.00  0.00    -0.192 N 
HETATM    8  C   UNL     1      29.176  43.609  53.894  1.00  0.00     0.037 C 
HETATM    9  C   UNL     1      30.471  42.908  54.221  1.00  0.00     0.070 C 
HETATM   10  C   UNL     1      28.113  43.030  53.280  1.00  0.00     0.063 C 
HETATM   11  H   UNL     1      29.858  45.297  54.877  1.00  0.00     0.184 HD
ENDROOT
BRANCH  10  12
HETATM   12  C   UNL     1      28.071  41.605  52.851  1.00  0.00     0.256 C 
HETATM   13  N   UNL     1      28.520  41.402  51.565  1.00  0.00    -0.323 N 
HETATM   14  H   UNL     1      28.773  42.223  51.030  1.00  0.00     0.169 HD
HETATM   15  O   UNL     1      27.633  40.771  53.633  1.00  0.00    -0.267 OA
BRANCH  13  16
HETATM   16  C   UNL     1      28.708  40.165  50.912  1.00  0.00     0.035 A 
HETATM   17  C   UNL     1      29.567  39.163  51.369  1.00  0.00     0.029 A 
HETATM   18  C   UNL     1      29.719  37.975  50.646  1.00  0.00     0.002 A 
HETATM   19  C   UNL     1      29.020  37.782  49.458  1.00  0.00     0.000 A 
HETATM   20  C   UNL     1      28.161  38.773  48.993  1.00  0.00     0.002 A 
HETATM   21  C   UNL     1      28.001  39.957  49.720  1.00  0.00     0.029 A 
ENDBRANCH  13  16
ENDBRANCH  10  12
BRANCH   1  22
HETATM   22  C   UNL     1      26.521  44.030  51.626  1.00  0.00     0.015 A 
HETATM   23  C   UNL     1      25.404  43.685  50.874  1.00  0.00     0.036 A 
HETATM   24  C   UNL     1      24.162  42.961  51.249  1.00  0.00     0.070 C 
HETATM   25  N   UNL     1      25.628  44.194  49.618  1.00  0.00    -0.278 N 
HETATM   26  C   UNL     1      24.737  44.176  48.481  1.00  0.00     0.179 C 
HETATM   27  N   UNL     1      26.839  44.763  49.482  1.00  0.00    -0.185 NA
HETATM   28  C   UNL     1      27.363  44.697  50.704  1.00  0.00     0.150 A 
ENDBRANCH   1  22
TORSDOF 3
ENDMDL
MODEL 5
REMARK VINA RESULT:      -7.6      3.340      5.225
REMARK  3 active torsions:
REMARK  status: ('A' for Active; 'I' for Inactive)
REMARK    1  A    between atoms: C_7  and  C_8 
REMARK    2  A    between atoms: C_17  and  C_18 
REMARK       I    between atoms: C_18  and  N_19 
REMARK    3  A    between atoms: N_19  and  C_20 
ROOT
HETATM    1  C   UNL     1      23.488  47.486  49.578  1.00  0.00     0.206 C 
HETATM    2  N   UNL     1      22.581  48.497  49.022  1.00  0.00    -0.084 N 
HETATM    3  C   UNL     1      22.995  49.573  48.285  1.00  0.00     0.725 A 
HETATM    4  N   UNL     1      21.955  50.282  47.925  1.00  0.00    -0.054 NA
HETATM    5  C   UNL     1      20.913  49.605  48.506  1.00  0.00     0.275 A 
HETATM    6  N   UNL     1      21.244  48.516  49.208  1.00  0.00    -0.149 NA
HETATM    7  N   UNL     1      24.312  49.767  48.081  1.00  0.00    -0.192 N 
HETATM    8  C   UNL     1      25.293  49.031  48.741  1.00  0.00     0.037 C 
HETATM    9  C   UNL     1      26.690  49.596  48.662  1.00  0.00     0.070 C 
HETATM   10  C   UNL     1      24.940  47.931  49.452  1.00  0.00     0.063 C 
HETATM   11  H   UNL     1      24.598  50.636  47.635  1.00  0.00     0.184 HD
ENDROOT
BRANCH  10  12
HETATM   12  C   UNL     1      25.886  47.128  50.273  1.00  0.00     0.256 C 
HETATM   13  N   UNL     1      25.707  47.281  51.630  1.00  0.00    -0.323 N 
HETATM   14  H   UNL     1      25.009  47.948  51.931  1.00  0.00     0.169 HD
HETATM   15  O   UNL     1      26.729  46.450  49.699  1.00  0.00    -0.267 OA
BRANCH  13  16
HETATM   16  C   UNL     1      26.365  46.576  52.661  1.00  0.00     0.035 A 
HETATM   17  C   UNL     1      26.668  45.214  52.608  1.00  0.00     0.029 A 
HETATM   18  C   UNL     1      27.295  44.584  53.688  1.00  0.00     0.002 A 
HETATM   19  C   UNL     1      27.620  45.308  54.831  1.00  0.00     0.000 A 
HETATM   20  C   UNL     1      27.323  46.667  54.896  1.00  0.00     0.002 A 
HETATM   21  C   UNL     1      26.705  47.299  53.814  1.00  0.00     0.029 A 
ENDBRANCH  13  16
ENDBRANCH  10  12
BRANCH   1  22
HETATM   22  C   UNL     1      23.254  46.170  48.882  1.00  0.00     0.015 A 
HETATM   23  C   UNL     1      23.376  44.882  49.390  1.00  0.00     0.036 A 
HETATM   24  C   UNL     1      23.774  44.399  50.737  1.00  0.00     0.070 C 
HETATM   25  N   UNL     1      23.004  44.041  48.370  1.00  0.00    -0.278 N 
HETATM   26  C   UNL     1      22.881  42.602  48.405  1.00  0.00     0.179 C 
HETATM   27  N   UNL     1      22.735  44.685  47.219  1.00  0.00    -0.185 NA
HETATM   28  C   UNL     1      22.850  45.972  47.539  1.00  0.00     0.150 A 
ENDBRANCH   1  22
TORSDOF 3
ENDMDL
MODEL 6
REMARK VINA RESULT:      -7.5      5.633      8.746
REMARK  3 active torsions:
REMARK  status: ('A' for Active; 'I' for Inactive)
REMARK    1  A    between atoms: C_7  and  C_8 
REMARK    2  A    between atoms: C_17  and  C_18 
REMARK       I    between atoms: C_18  and  N_19 
REMARK    3  A    between atoms: N_19  and  C_20 
ROOT
HETATM    1  C   UNL     1      20.187  48.760  49.003  1.00  0.00     0.206 C 
HETATM    2  N   UNL     1      19.371  49.934  49.333  1.00  0.00    -0.084 N 
HETATM    3  C   UNL     1      19.737  51.223  49.054  1.00  0.00     0.725 A 
HETATM    4  N   UNL     1      18.800  52.041  49.459  1.00  0.00    -0.054 NA
HETATM    5  C   UNL     1      17.880  51.192  50.021  1.00  0.00     0.275 A 
HETATM    6  N   UNL     1      18.192  49.891  49.990  1.00  0.00    -0.149 NA
HETATM    7  N   UNL     1      20.934  51.461  48.484  1.00  0.00    -0.192 N 
HETATM    8  C   UNL     1      21.906  50.475  48.333  1.00  0.00     0.037 C 
HETATM    9  C   UNL     1      23.290  50.975  48.000  1.00  0.00     0.070 C 
HETATM   10  C   UNL     1      21.583  49.177  48.559  1.00  0.00     0.063 C 
HETATM   11  H   UNL     1      21.232  52.430  48.397  1.00  0.00     0.184 HD
ENDROOT
BRANCH  10  12
HETATM   12  C   UNL     1      22.560  48.055  48.522  1.00  0.00     0.256 C 
HETATM   13  N   UNL     1      23.205  47.845  49.721  1.00  0.00    -0.323 N 
HETATM   14  H   UNL     1      23.002  48.491  50.474  1.00  0.00     0.169 HD
HETATM   15  O   UNL     1      22.725  47.455  47.468  1.00  0.00    -0.267 OA
BRANCH  13  16
HETATM   16  C   UNL     1      24.097  46.798  50.038  1.00  0.00     0.035 A 
HETATM   17  C   UNL     1      23.928  45.475  49.625  1.00  0.00     0.029 A 
HETATM   18  C   UNL     1      24.843  44.489  50.009  1.00  0.00     0.002 A 
HETATM   19  C   UNL     1      25.931  44.816  50.813  1.00  0.00     0.000 A 
HETATM   20  C   UNL     1      26.111  46.132  51.230  1.00  0.00     0.002 A 
HETATM   21  C   UNL     1      25.202  47.119  50.840  1.00  0.00     0.029 A 
ENDBRANCH  13  16
ENDBRANCH  10  12
BRANCH   1  22
HETATM   22  C   UNL     1      19.489  47.951  47.941  1.00  0.00     0.015 A 
HETATM   23  C   UNL     1      19.375  46.570  47.831  1.00  0.00     0.036 A 
HETATM   24  C   UNL     1      19.895  45.477  48.692  1.00  0.00     0.070 C 
HETATM   25  N   UNL     1      18.604  46.346  46.716  1.00  0.00    -0.278 N 
HETATM   26  C   UNL     1      18.125  45.082  46.207  1.00  0.00     0.179 C 
HETATM   27  N   UNL     1      18.287  47.472  46.052  1.00  0.00    -0.185 NA
HETATM   28  C   UNL     1      18.789  48.444  46.811  1.00  0.00     0.150 A 
ENDBRANCH   1  22
TORSDOF 3
ENDMDL
MODEL 7
REMARK VINA RESULT:      -7.4      2.424      5.935
REMARK  3 active torsions:
REMARK  status: ('A' for Active; 'I' for Inactive)
REMARK    1  A    between atoms: C_7  and  C_8 
REMARK    2  A    between atoms: C_17  and  C_18 
REMARK       I    between atoms: C_18  and  N_19 
REMARK    3  A    between atoms: N_19  and  C_20 
ROOT
HETATM    1  C   UNL     1      25.711  45.564  50.102  1.00  0.00     0.206 C 
HETATM    2  N   UNL     1      25.373  46.936  49.708  1.00  0.00    -0.084 N 
HETATM    3  C   UNL     1      24.117  47.340  49.346  1.00  0.00     0.725 A 
HETATM    4  N   UNL     1      24.134  48.616  49.060  1.00  0.00    -0.054 NA
HETATM    5  C   UNL     1      25.454  48.947  49.232  1.00  0.00     0.275 A 
HETATM    6  N   UNL     1      26.262  47.948  49.607  1.00  0.00    -0.149 NA
HETATM    7  N   UNL     1      23.121  46.434  49.295  1.00  0.00    -0.192 N 
HETATM    8  C   UNL     1      23.341  45.064  49.411  1.00  0.00     0.037 C 
HETATM    9  C   UNL     1      22.188  44.185  48.994  1.00  0.00     0.070 C 
HETATM   10  C   UNL     1      24.558  44.613  49.805  1.00  0.00     0.063 C 
HETATM   11  H   UNL     1      22.229  46.735  48.909  1.00  0.00     0.184 HD
ENDROOT
BRANCH  10  12
HETATM   12  C   UNL     1      24.935  43.175  49.870  1.00  0.00     0.256 C 
HETATM   13  N   UNL     1      25.612  42.731  48.756  1.00  0.00    -0.323 N 
HETATM   14  H   UNL     1      25.734  43.390  47.997  1.00  0.00     0.169 HD
HETATM   15  O   UNL     1      24.601  42.526  50.853  1.00  0.00    -0.267 OA
BRANCH  13  16
HETATM   16  C   UNL     1      26.196  41.461  48.563  1.00  0.00     0.035 A 
HETATM   17  C   UNL     1      25.499  40.342  48.102  1.00  0.00     0.029 A 
HETATM   18  C   UNL     1      26.146  39.109  47.968  1.00  0.00     0.002 A 
HETATM   19  C   UNL     1      27.493  38.983  48.297  1.00  0.00     0.000 A 
HETATM   20  C   UNL     1      28.198  40.092  48.756  1.00  0.00     0.002 A 
HETATM   21  C   UNL     1      27.554  41.326  48.883  1.00  0.00     0.029 A 
ENDBRANCH  13  16
ENDBRANCH  10  12
BRANCH   1  22
HETATM   22  C   UNL     1      26.081  45.542  51.563  1.00  0.00     0.015 A 
HETATM   23  C   UNL     1      27.069  44.802  52.201  1.00  0.00     0.036 A 
HETATM   24  C   UNL     1      28.044  43.815  51.670  1.00  0.00     0.070 C 
HETATM   25  N   UNL     1      27.027  45.182  53.521  1.00  0.00    -0.278 N 
HETATM   26  C   UNL     1      27.901  44.765  54.593  1.00  0.00     0.179 C 
HETATM   27  N   UNL     1      26.032  46.044  53.796  1.00  0.00    -0.185 NA
HETATM   28  C   UNL     1      25.484  46.290  52.608  1.00  0.00     0.150 A 
ENDBRANCH   1  22
TORSDOF 3
ENDMDL
MODEL 8
REMARK VINA RESULT:      -7.3     12.277     14.487
REMARK  3 active torsions:
REMARK  status: ('A' for Active; 'I' for Inactive)
REMARK    1  A    between atoms: C_7  and  C_8 
REMARK    2  A    between atoms: C_17  and  C_18 
REMARK       I    between atoms: C_18  and  N_19 
REMARK    3  A    between atoms: N_19  and  C_20 
ROOT
HETATM    1  C   UNL     1      29.028  49.087  38.552  1.00  0.00     0.206 C 
HETATM    2  N   UNL     1      29.041  50.525  38.258  1.00  0.00    -0.084 N 
HETATM    3  C   UNL     1      27.996  51.368  38.518  1.00  0.00     0.725 A 
HETATM    4  N   UNL     1      28.314  52.584  38.155  1.00  0.00    -0.054 NA
HETATM    5  C   UNL     1      29.574  52.424  37.637  1.00  0.00     0.275 A 
HETATM    6  N   UNL     1      30.059  51.177  37.656  1.00  0.00    -0.149 NA
HETATM    7  N   UNL     1      26.855  50.868  39.033  1.00  0.00    -0.192 N 
HETATM    8  C   UNL     1      26.613  49.501  39.141  1.00  0.00     0.037 C 
HETATM    9  C   UNL     1      25.180  49.115  39.410  1.00  0.00     0.070 C 
HETATM   10  C   UNL     1      27.627  48.623  38.932  1.00  0.00     0.063 C 
HETATM   11  H   UNL     1      26.056  51.493  39.104  1.00  0.00     0.184 HD
ENDROOT
BRANCH  10  12
HETATM   12  C   UNL     1      27.463  47.144  38.926  1.00  0.00     0.256 C 
HETATM   13  N   UNL     1      27.656  46.562  40.159  1.00  0.00    -0.323 N 
HETATM   14  H   UNL     1      27.940  47.170  40.917  1.00  0.00     0.169 HD
HETATM   15  O   UNL     1      27.209  46.588  37.865  1.00  0.00    -0.267 OA
BRANCH  13  16
HETATM   16  C   UNL     1      27.464  45.206  40.501  1.00  0.00     0.035 A 
HETATM   17  C   UNL     1      28.125  44.142  39.883  1.00  0.00     0.029 A 
HETATM   18  C   UNL     1      27.854  42.823  40.261  1.00  0.00     0.002 A 
HETATM   19  C   UNL     1      26.917  42.556  41.255  1.00  0.00     0.000 A 
HETATM   20  C   UNL     1      26.252  43.608  41.879  1.00  0.00     0.002 A 
HETATM   21  C   UNL     1      26.529  44.927  41.508  1.00  0.00     0.029 A 
ENDBRANCH  13  16
ENDBRANCH  10  12
BRANCH   1  22
HETATM   22  C   UNL     1      30.021  48.793  39.647  1.00  0.00     0.015 A 
HETATM   23  C   UNL     1      30.079  49.313  40.934  1.00  0.00     0.036 A 
HETATM   24  C   UNL     1      29.213  50.302  41.626  1.00  0.00     0.070 C 
HETATM   25  N   UNL     1      31.139  48.687  41.543  1.00  0.00    -0.278 N 
HETATM   26  C   UNL     1      31.578  48.815  42.914  1.00  0.00     0.179 C 
HETATM   27  N   UNL     1      31.820  47.870  40.720  1.00  0.00    -0.185 NA
HETATM   28  C   UNL     1      31.124  47.905  39.586  1.00  0.00     0.150 A 
ENDBRANCH   1  22
TORSDOF 3
ENDMDL
MODEL 9
REMARK VINA RESULT:      -7.3      5.776      8.990
REMARK  3 active torsions:
REMARK  status: ('A' for Active; 'I' for Inactive)
REMARK    1  A    between atoms: C_7  and  C_8 
REMARK    2  A    between atoms: C_17  and  C_18 
REMARK       I    between atoms: C_18  and  N_19 
REMARK    3  A    between atoms: N_19  and  C_20 
ROOT
HETATM    1  C   UNL     1      20.278  48.793  49.173  1.00  0.00     0.206 C 
HETATM    2  N   UNL     1      19.470  49.986  49.451  1.00  0.00    -0.084 N 
HETATM    3  C   UNL     1      19.813  51.251  49.056  1.00  0.00     0.725 A 
HETATM    4  N   UNL     1      18.890  52.094  49.442  1.00  0.00    -0.054 NA
HETATM    5  C   UNL     1      18.005  51.288  50.111  1.00  0.00     0.275 A 
HETATM    6  N   UNL     1      18.324  49.989  50.165  1.00  0.00    -0.149 NA
HETATM    7  N   UNL     1      20.980  51.448  48.413  1.00  0.00    -0.192 N 
HETATM    8  C   UNL     1      21.951  50.457  48.291  1.00  0.00     0.037 C 
HETATM    9  C   UNL     1      23.314  50.935  47.855  1.00  0.00     0.070 C 
HETATM   10  C   UNL     1      21.648  49.179  48.631  1.00  0.00     0.063 C 
HETATM   11  H   UNL     1      21.266  52.409  48.239  1.00  0.00     0.184 HD
ENDROOT
BRANCH  10  12
HETATM   12  C   UNL     1      22.631  48.061  48.634  1.00  0.00     0.256 C 
HETATM   13  N   UNL     1      23.325  47.939  49.817  1.00  0.00    -0.323 N 
HETATM   14  H   UNL     1      23.148  48.636  50.530  1.00  0.00     0.169 HD
HETATM   15  O   UNL     1      22.756  47.390  47.618  1.00  0.00    -0.267 OA
BRANCH  13  16
HETATM   16  C   UNL     1      24.236  46.920  50.170  1.00  0.00     0.035 A 
HETATM   17  C   UNL     1      25.462  47.152  50.797  1.00  0.00     0.029 A 
HETATM   18  C   UNL     1      26.323  46.087  51.086  1.00  0.00     0.002 A 
HETATM   19  C   UNL     1      25.969  44.785  50.745  1.00  0.00     0.000 A 
HETATM   20  C   UNL     1      24.749  44.543  50.121  1.00  0.00     0.002 A 
HETATM   21  C   UNL     1      23.884  45.604  49.840  1.00  0.00     0.029 A 
ENDBRANCH  13  16
ENDBRANCH  10  12
BRANCH   1  22
HETATM   22  C   UNL     1      19.536  47.902  48.210  1.00  0.00     0.015 A 
HETATM   23  C   UNL     1      18.998  48.217  46.968  1.00  0.00     0.036 A 
HETATM   24  C   UNL     1      18.972  49.496  46.213  1.00  0.00     0.070 C 
HETATM   25  N   UNL     1      18.474  47.046  46.479  1.00  0.00    -0.278 N 
HETATM   26  C   UNL     1      17.868  46.814  45.188  1.00  0.00     0.179 C 
HETATM   27  N   UNL     1      18.555  46.022  47.348  1.00  0.00    -0.185 NA
HETATM   28  C   UNL     1      19.230  46.529  48.378  1.00  0.00     0.150 A 
ENDBRANCH   1  22
TORSDOF 3
ENDMDL
MODEL 10
REMARK VINA RESULT:      -7.2     13.399     15.772
REMARK  3 active torsions:
REMARK  status: ('A' for Active; 'I' for Inactive)
REMARK    1  A    between atoms: C_7  and  C_8 
REMARK    2  A    between atoms: C_17  and  C_18 
REMARK       I    between atoms: C_18  and  N_19 
REMARK    3  A    between atoms: N_19  and  C_20 
ROOT
HETATM    1  C   UNL     1      29.616  49.195  40.577  1.00  0.00     0.206 C 
HETATM    2  N   UNL     1      31.018  48.906  40.902  1.00  0.00    -0.084 N 
HETATM    3  C   UNL     1      31.654  47.739  40.576  1.00  0.00     0.725 A 
HETATM    4  N   UNL     1      32.893  47.786  40.990  1.00  0.00    -0.054 NA
HETATM    5  C   UNL     1      32.960  49.010  41.606  1.00  0.00     0.275 A 
HETATM    6  N   UNL     1      31.831  49.729  41.600  1.00  0.00    -0.149 NA
HETATM    7  N   UNL     1      30.962  46.760  39.960  1.00  0.00    -0.192 N 
HETATM    8  C   UNL     1      29.579  46.798  39.803  1.00  0.00     0.037 C 
HETATM    9  C   UNL     1      28.935  45.492  39.410  1.00  0.00     0.070 C 
HETATM   10  C   UNL     1      28.906  47.945  40.074  1.00  0.00     0.063 C 
HETATM   11  H   UNL     1      31.424  45.862  39.837  1.00  0.00     0.184 HD
ENDROOT
BRANCH  10  12
HETATM   12  C   UNL     1      27.424  48.072  40.035  1.00  0.00     0.256 C 
HETATM   13  N   UNL     1      26.935  48.458  38.807  1.00  0.00    -0.323 N 
HETATM   14  H   UNL     1      27.613  48.670  38.086  1.00  0.00     0.169 HD
HETATM   15  O   UNL     1      26.791  47.859  41.061  1.00  0.00    -0.267 OA
BRANCH  13  16
HETATM   16  C   UNL     1      25.581  48.558  38.421  1.00  0.00     0.035 A 
HETATM   17  C   UNL     1      24.882  47.548  37.755  1.00  0.00     0.029 A 
HETATM   18  C   UNL     1      23.548  47.738  37.379  1.00  0.00     0.002 A 
HETATM   19  C   UNL     1      22.904  48.939  37.660  1.00  0.00     0.000 A 
HETATM   20  C   UNL     1      23.590  49.952  38.324  1.00  0.00     0.002 A 
HETATM   21  C   UNL     1      24.920  49.760  38.708  1.00  0.00     0.029 A 
ENDBRANCH  13  16
ENDBRANCH  10  12
BRANCH   1  22
HETATM   22  C   UNL     1      29.560  50.307  39.561  1.00  0.00     0.015 A 
HETATM   23  C   UNL     1      28.850  51.500  39.612  1.00  0.00     0.036 A 
HETATM   24  C   UNL     1      27.936  52.047  40.649  1.00  0.00     0.070 C 
HETATM   25  N   UNL     1      29.177  52.181  38.465  1.00  0.00    -0.278 N 
HETATM   26  C   UNL     1      28.768  53.509  38.073  1.00  0.00     0.179 C 
HETATM   27  N   UNL     1      29.975  51.480  37.640  1.00  0.00    -0.185 NA
HETATM   28  C   UNL     1      30.236  50.364  38.317  1.00  0.00     0.150 A 
ENDBRANCH   1  22
TORSDOF 3
ENDMDL
