MODEL 1
REMARK VINA RESULT:      -9.9      0.000      0.000
REMARK  5 active torsions:
REMARK  status: ('A' for Active; 'I' for Inactive)
REMARK    1  A    between atoms: C_4  and  C_5 
REMARK    2  A    between atoms: C_10  and  C_11 
REMARK    3  A    between atoms: C_11  and  N_12 
REMARK    4  A    between atoms: N_12  and  C_14 
REMARK    5  A    between atoms: N_17  and  C_18 
ROOT
HETATM    1  N   UNL     1      25.334  42.600  50.650  1.00  0.00    -0.067 N 
HETATM    2  H   UNL     1      25.303  41.890  51.399  1.00  0.00     0.280 HD
HETATM    3  C   UNL     1      24.993  41.857  49.394  1.00  0.00     0.270 C 
ENDROOT
BRANCH   1   4
HETATM    4  C   UNL     1      26.810  42.998  50.649  1.00  0.00     0.277 C 
BRANCH   4   5
HETATM    5  C   UNL     1      27.717  41.933  51.134  1.00  0.00     0.016 A 
HETATM    6  C   UNL     1      28.571  41.944  52.230  1.00  0.00     0.069 A 
HETATM    7  N   UNL     1      29.182  40.710  52.227  1.00  0.00    -0.277 N 
HETATM    8  H   UNL     1      29.843  40.336  52.903  1.00  0.00     0.189 HD
HETATM    9  N   UNL     1      28.826  39.943  51.187  1.00  0.00    -0.186 NA
HETATM   10  C   UNL     1      27.903  40.657  50.555  1.00  0.00     0.149 A 
BRANCH   6  11
HETATM   11  C   UNL     1      28.830  42.936  53.268  1.00  0.00    -0.007 A 
HETATM   12  C   UNL     1      29.872  42.747  54.187  1.00  0.00     0.020 A 
HETATM   13  C   UNL     1      30.108  43.680  55.207  1.00  0.00    -0.061 A 
HETATM   14  C   UNL     1      31.214  43.466  56.201  1.00  0.00     0.048 C 
HETATM   15  C   UNL     1      29.318  44.832  55.275  1.00  0.00     0.007 A 
HETATM   16  C   UNL     1      28.278  45.028  54.368  1.00  0.00     0.001 A 
HETATM   17  C   UNL     1      28.029  44.079  53.375  1.00  0.00     0.014 A 
ENDBRANCH   6  11
ENDBRANCH   4   5
ENDBRANCH   1   4
BRANCH   1  18
HETATM   18  C   UNL     1      24.366  43.701  51.114  1.00  0.00     0.190 C 
HETATM   19  C   UNL     1      25.039  44.880  51.827  1.00  0.00     0.048 C 
HETATM   20  C   UNL     1      25.434  46.034  50.915  1.00  0.00     0.099 C 
HETATM   21  N   UNL     1      24.278  46.414  50.099  1.00  0.00    -0.268 NA
HETATM   22  C   UNL     1      23.811  45.353  49.197  1.00  0.00     0.099 C 
HETATM   23  C   UNL     1      23.390  44.125  50.007  1.00  0.00     0.048 C 
BRANCH  21  24
HETATM   24  C   UNL     1      24.376  47.682  49.497  1.00  0.00     0.109 A 
HETATM   25  N   UNL     1      25.582  48.260  49.348  1.00  0.00    -0.224 NA
HETATM   26  C   UNL     1      25.647  49.455  48.708  1.00  0.00     0.102 A 
HETATM   27  C   UNL     1      26.986  50.093  48.513  1.00  0.00     0.091 C 
HETATM   28  N   UNL     1      24.571  50.090  48.226  1.00  0.00    -0.348 N 
HETATM   29  H   UNL     1      24.691  50.983  47.750  1.00  0.00     0.167 HD
HETATM   30  C   UNL     1      23.354  49.543  48.360  1.00  0.00     0.009 A 
HETATM   31  C   UNL     1      22.167  50.268  47.812  1.00  0.00     0.068 C 
HETATM   32  C   UNL     1      23.236  48.308  49.000  1.00  0.00     0.069 A 
ENDBRANCH  21  24
ENDBRANCH   1  18
TORSDOF 5
ENDMDL
MODEL 2
REMARK VINA RESULT:      -9.9      3.615      7.415
REMARK  5 active torsions:
REMARK  status: ('A' for Active; 'I' for Inactive)
REMARK    1  A    between atoms: C_4  and  C_5 
REMARK    2  A    between atoms: C_10  and  C_11 
REMARK    3  A    between atoms: C_11  and  N_12 
REMARK    4  A    between atoms: N_12  and  C_14 
REMARK    5  A    between atoms: N_17  and  C_18 
ROOT
HETATM    1  N   UNL     1      26.140  44.333  51.988  1.00  0.00    -0.067 N 
HETATM    2  H   UNL     1      25.955  45.340  51.857  1.00  0.00     0.280 HD
HETATM    3  C   UNL     1      24.835  43.656  51.694  1.00  0.00     0.270 C 
ENDROOT
BRANCH   1   4
HETATM    4  C   UNL     1      26.456  44.258  53.482  1.00  0.00     0.277 C 
BRANCH   4   5
HETATM    5  C   UNL     1      26.772  45.568  54.092  1.00  0.00     0.016 A 
HETATM    6  C   UNL     1      27.822  45.909  54.937  1.00  0.00     0.069 A 
HETATM    7  N   UNL     1      27.648  47.247  55.211  1.00  0.00    -0.277 N 
HETATM    8  H   UNL     1      28.245  47.856  55.765  1.00  0.00     0.189 HD
HETATM    9  N   UNL     1      26.544  47.765  54.656  1.00  0.00    -0.186 NA
HETATM   10  C   UNL     1      26.041  46.768  53.937  1.00  0.00     0.149 A 
BRANCH   6  11
HETATM   11  C   UNL     1      28.955  45.150  55.457  1.00  0.00    -0.007 A 
HETATM   12  C   UNL     1      29.530  45.488  56.690  1.00  0.00     0.020 A 
HETATM   13  C   UNL     1      30.639  44.785  57.182  1.00  0.00    -0.061 A 
HETATM   14  C   UNL     1      31.264  45.161  58.495  1.00  0.00     0.048 C 
HETATM   15  C   UNL     1      31.144  43.706  56.448  1.00  0.00     0.007 A 
HETATM   16  C   UNL     1      30.580  43.363  55.220  1.00  0.00     0.001 A 
HETATM   17  C   UNL     1      29.497  44.089  54.722  1.00  0.00     0.014 A 
ENDBRANCH   6  11
ENDBRANCH   4   5
ENDBRANCH   1   4
BRANCH   1  18
HETATM   18  C   UNL     1      27.328  44.030  51.058  1.00  0.00     0.190 C 
HETATM   19  C   UNL     1      28.451  43.214  51.708  1.00  0.00     0.048 C 
HETATM   20  C   UNL     1      28.324  41.706  51.538  1.00  0.00     0.099 C 
HETATM   21  N   UNL     1      28.113  41.403  50.120  1.00  0.00    -0.268 NA
HETATM   22  C   UNL     1      26.870  41.958  49.571  1.00  0.00     0.099 C 
HETATM   23  C   UNL     1      26.877  43.484  49.695  1.00  0.00     0.048 C 
BRANCH  21  24
HETATM   24  C   UNL     1      28.354  40.063  49.764  1.00  0.00     0.109 A 
HETATM   25  N   UNL     1      28.077  39.643  48.516  1.00  0.00    -0.224 NA
HETATM   26  C   UNL     1      28.379  38.362  48.187  1.00  0.00     0.102 A 
HETATM   27  C   UNL     1      28.100  37.893  46.794  1.00  0.00     0.091 C 
HETATM   28  N   UNL     1      28.930  37.494  49.045  1.00  0.00    -0.348 N 
HETATM   29  H   UNL     1      29.137  36.547  48.731  1.00  0.00     0.167 HD
HETATM   30  C   UNL     1      29.217  37.878  50.297  1.00  0.00     0.009 A 
HETATM   31  C   UNL     1      29.835  36.894  51.237  1.00  0.00     0.068 C 
HETATM   32  C   UNL     1      28.937  39.191  50.679  1.00  0.00     0.069 A 
ENDBRANCH  21  24
ENDBRANCH   1  18
TORSDOF 5
ENDMDL
MODEL 3
REMARK VINA RESULT:      -9.8      1.762      2.731
REMARK  5 active torsions:
REMARK  status: ('A' for Active; 'I' for Inactive)
REMARK    1  A    between atoms: C_4  and  C_5 
REMARK    2  A    between atoms: C_10  and  C_11 
REMARK    3  A    between atoms: C_11  and  N_12 
REMARK    4  A    between atoms: N_12  and  C_14 
REMARK    5  A    between atoms: N_17  and  C_18 
ROOT
HETATM    1  N   UNL     1      26.515  45.365  52.312  1.00  0.00    -0.067 N 
HETATM    2  H   UNL     1      27.515  45.565  52.472  1.00  0.00     0.280 HD
HETATM    3  C   UNL     1      25.777  46.389  53.119  1.00  0.00     0.270 C 
ENDROOT
BRANCH   1   4
HETATM    4  C   UNL     1      26.363  43.979  52.940  1.00  0.00     0.277 C 
BRANCH   4   5
HETATM    5  C   UNL     1      27.498  43.071  52.666  1.00  0.00     0.016 A 
HETATM    6  C   UNL     1      28.742  43.014  53.284  1.00  0.00     0.069 A 
HETATM    7  N   UNL     1      29.416  41.996  52.650  1.00  0.00    -0.277 N 
HETATM    8  H   UNL     1      30.344  41.633  52.857  1.00  0.00     0.189 HD
HETATM    9  N   UNL     1      28.723  41.442  51.645  1.00  0.00    -0.186 NA
HETATM   10  C   UNL     1      27.544  42.053  51.686  1.00  0.00     0.149 A 
BRANCH   6  11
HETATM   11  C   UNL     1      29.324  43.758  54.396  1.00  0.00    -0.007 A 
HETATM   12  C   UNL     1      30.342  43.189  55.175  1.00  0.00     0.020 A 
HETATM   13  C   UNL     1      30.885  43.884  56.265  1.00  0.00    -0.061 A 
HETATM   14  C   UNL     1      31.963  43.264  57.108  1.00  0.00     0.048 C 
HETATM   15  C   UNL     1      30.431  45.177  56.546  1.00  0.00     0.007 A 
HETATM   16  C   UNL     1      29.419  45.750  55.778  1.00  0.00     0.001 A 
HETATM   17  C   UNL     1      28.860  45.040  54.715  1.00  0.00     0.014 A 
ENDBRANCH   6  11
ENDBRANCH   4   5
ENDBRANCH   1   4
BRANCH   1  18
HETATM   18  C   UNL     1      26.348  45.404  50.783  1.00  0.00     0.190 C 
HETATM   19  C   UNL     1      25.099  44.687  50.261  1.00  0.00     0.048 C 
HETATM   20  C   UNL     1      23.870  45.574  50.113  1.00  0.00     0.099 C 
HETATM   21  N   UNL     1      24.233  46.768  49.347  1.00  0.00    -0.268 NA
HETATM   22  C   UNL     1      25.241  47.612  50.001  1.00  0.00     0.099 C 
HETATM   23  C   UNL     1      26.532  46.819  50.212  1.00  0.00     0.048 C 
BRANCH  21  24
HETATM   24  C   UNL     1      23.142  47.479  48.815  1.00  0.00     0.109 A 
HETATM   25  N   UNL     1      23.014  48.795  49.066  1.00  0.00    -0.224 NA
HETATM   26  C   UNL     1      21.985  49.463  48.488  1.00  0.00     0.102 A 
HETATM   27  C   UNL     1      21.850  50.932  48.740  1.00  0.00     0.091 C 
HETATM   28  N   UNL     1      21.087  48.877  47.686  1.00  0.00    -0.348 N 
HETATM   29  H   UNL     1      20.341  49.439  47.278  1.00  0.00     0.167 HD
HETATM   30  C   UNL     1      21.183  47.567  47.415  1.00  0.00     0.009 A 
HETATM   31  C   UNL     1      20.171  46.934  46.516  1.00  0.00     0.068 C 
HETATM   32  C   UNL     1      22.232  46.838  47.978  1.00  0.00     0.069 A 
ENDBRANCH  21  24
ENDBRANCH   1  18
TORSDOF 5
ENDMDL
MODEL 4
REMARK VINA RESULT:      -9.7      3.408      7.416
REMARK  5 active torsions:
REMARK  status: ('A' for Active; 'I' for Inactive)
REMARK    1  A    between atoms: C_4  and  C_5 
REMARK    2  A    between atoms: C_10  and  C_11 
REMARK    3  A    between atoms: C_11  and  N_12 
REMARK    4  A    between atoms: N_12  and  C_14 
REMARK    5  A    between atoms: N_17  and  C_18 
ROOT
HETATM    1  N   UNL     1      26.036  44.210  51.949  1.00  0.00    -0.067 N 
HETATM    2  H   UNL     1      25.749  45.162  51.670  1.00  0.00     0.280 HD
HETATM    3  C   UNL     1      24.841  43.346  51.680  1.00  0.00     0.270 C 
ENDROOT
BRANCH   1   4
HETATM    4  C   UNL     1      26.250  44.370  53.454  1.00  0.00     0.277 C 
BRANCH   4   5
HETATM    5  C   UNL     1      26.302  45.779  53.904  1.00  0.00     0.016 A 
HETATM    6  C   UNL     1      27.171  46.378  54.809  1.00  0.00     0.069 A 
HETATM    7  N   UNL     1      26.784  47.697  54.866  1.00  0.00    -0.277 N 
HETATM    8  H   UNL     1      27.213  48.454  55.393  1.00  0.00     0.189 HD
HETATM    9  N   UNL     1      25.707  47.969  54.116  1.00  0.00    -0.186 NA
HETATM   10  C   UNL     1      25.445  46.826  53.493  1.00  0.00     0.149 A 
BRANCH   6  11
HETATM   11  C   UNL     1      28.312  45.869  55.561  1.00  0.00    -0.007 A 
HETATM   12  C   UNL     1      29.121  44.856  55.026  1.00  0.00     0.020 A 
HETATM   13  C   UNL     1      30.201  44.339  55.756  1.00  0.00    -0.061 A 
HETATM   14  C   UNL     1      31.055  43.241  55.187  1.00  0.00     0.048 C 
HETATM   15  C   UNL     1      30.495  44.876  57.014  1.00  0.00     0.007 A 
HETATM   16  C   UNL     1      29.697  45.881  57.555  1.00  0.00     0.001 A 
HETATM   17  C   UNL     1      28.604  46.368  56.836  1.00  0.00     0.014 A 
ENDBRANCH   6  11
ENDBRANCH   4   5
ENDBRANCH   1   4
BRANCH   1  18
HETATM   18  C   UNL     1      27.315  43.934  51.139  1.00  0.00     0.190 C 
HETATM   19  C   UNL     1      28.363  43.092  51.873  1.00  0.00     0.048 C 
HETATM   20  C   UNL     1      28.254  41.591  51.637  1.00  0.00     0.099 C 
HETATM   21  N   UNL     1      28.193  41.339  50.196  1.00  0.00    -0.268 NA
HETATM   22  C   UNL     1      27.014  41.918  49.539  1.00  0.00     0.099 C 
HETATM   23  C   UNL     1      27.009  43.439  49.717  1.00  0.00     0.048 C 
BRANCH  21  24
HETATM   24  C   UNL     1      28.469  40.011  49.820  1.00  0.00     0.109 A 
HETATM   25  N   UNL     1      29.023  39.167  50.709  1.00  0.00    -0.224 NA
HETATM   26  C   UNL     1      29.219  37.878  50.334  1.00  0.00     0.102 A 
HETATM   27  C   UNL     1      29.810  36.924  51.324  1.00  0.00     0.091 C 
HETATM   28  N   UNL     1      28.896  37.407  49.123  1.00  0.00    -0.348 N 
HETATM   29  H   UNL     1      29.065  36.426  48.908  1.00  0.00     0.167 HD
HETATM   30  C   UNL     1      28.344  38.222  48.212  1.00  0.00     0.009 A 
HETATM   31  C   UNL     1      27.989  37.676  46.867  1.00  0.00     0.068 C 
HETATM   32  C   UNL     1      28.111  39.555  48.555  1.00  0.00     0.069 A 
ENDBRANCH  21  24
ENDBRANCH   1  18
TORSDOF 5
ENDMDL
MODEL 5
REMARK VINA RESULT:      -9.6      2.595      4.247
REMARK  5 active torsions:
REMARK  status: ('A' for Active; 'I' for Inactive)
REMARK    1  A    between atoms: C_4  and  C_5 
REMARK    2  A    between atoms: C_10  and  C_11 
REMARK    3  A    between atoms: C_11  and  N_12 
REMARK    4  A    between atoms: N_12  and  C_14 
REMARK    5  A    between atoms: N_17  and  C_18 
ROOT
HETATM    1  N   UNL     1      25.647  45.196  51.792  1.00  0.00    -0.067 N 
HETATM    2  H   UNL     1      25.070  45.883  52.302  1.00  0.00     0.280 HD
HETATM    3  C   UNL     1      24.941  43.886  51.968  1.00  0.00     0.270 C 
ENDROOT
BRANCH   1   4
HETATM    4  C   UNL     1      26.948  45.214  52.595  1.00  0.00     0.277 C 
BRANCH   4   5
HETATM    5  C   UNL     1      26.918  46.123  53.762  1.00  0.00     0.016 A 
HETATM    6  C   UNL     1      27.708  46.105  54.906  1.00  0.00     0.069 A 
HETATM    7  N   UNL     1      27.267  47.162  55.668  1.00  0.00    -0.277 N 
HETATM    8  H   UNL     1      27.634  47.490  56.559  1.00  0.00     0.189 HD
HETATM    9  N   UNL     1      26.226  47.811  55.128  1.00  0.00    -0.186 NA
HETATM   10  C   UNL     1      26.046  47.219  53.953  1.00  0.00     0.149 A 
BRANCH   6  11
HETATM   11  C   UNL     1      28.823  45.260  55.320  1.00  0.00    -0.007 A 
HETATM   12  C   UNL     1      29.481  45.498  56.535  1.00  0.00     0.020 A 
HETATM   13  C   UNL     1      30.573  44.711  56.926  1.00  0.00    -0.061 A 
HETATM   14  C   UNL     1      31.288  44.979  58.219  1.00  0.00     0.048 C 
HETATM   15  C   UNL     1      30.978  43.649  56.109  1.00  0.00     0.007 A 
HETATM   16  C   UNL     1      30.331  43.406  54.899  1.00  0.00     0.001 A 
HETATM   17  C   UNL     1      29.265  44.214  54.501  1.00  0.00     0.014 A 
ENDBRANCH   6  11
ENDBRANCH   4   5
ENDBRANCH   1   4
BRANCH   1  18
HETATM   18  C   UNL     1      25.759  45.762  50.366  1.00  0.00     0.190 C 
HETATM   19  C   UNL     1      24.843  45.086  49.340  1.00  0.00     0.048 C 
HETATM   20  C   UNL     1      23.481  45.745  49.169  1.00  0.00     0.099 C 
HETATM   21  N   UNL     1      23.671  47.179  48.940  1.00  0.00    -0.268 NA
HETATM   22  C   UNL     1      24.301  47.883  50.065  1.00  0.00     0.099 C 
HETATM   23  C   UNL     1      25.688  47.297  50.340  1.00  0.00     0.048 C 
BRANCH  21  24
HETATM   24  C   UNL     1      22.554  47.841  48.398  1.00  0.00     0.109 A 
HETATM   25  N   UNL     1      21.685  47.162  47.627  1.00  0.00    -0.224 NA
HETATM   26  C   UNL     1      20.586  47.813  47.171  1.00  0.00     0.102 A 
HETATM   27  C   UNL     1      19.599  47.060  46.336  1.00  0.00     0.091 C 
HETATM   28  N   UNL     1      20.328  49.099  47.443  1.00  0.00    -0.348 N 
HETATM   29  H   UNL     1      19.480  49.526  47.073  1.00  0.00     0.167 HD
HETATM   30  C   UNL     1      21.175  49.806  48.206  1.00  0.00     0.009 A 
HETATM   31  C   UNL     1      20.867  51.239  48.498  1.00  0.00     0.068 C 
HETATM   32  C   UNL     1      22.314  49.176  48.709  1.00  0.00     0.069 A 
ENDBRANCH  21  24
ENDBRANCH   1  18
TORSDOF 5
ENDMDL
MODEL 6
REMARK VINA RESULT:      -9.5     11.251     13.863
REMARK  5 active torsions:
REMARK  status: ('A' for Active; 'I' for Inactive)
REMARK    1  A    between atoms: C_4  and  C_5 
REMARK    2  A    between atoms: C_10  and  C_11 
REMARK    3  A    between atoms: C_11  and  N_12 
REMARK    4  A    between atoms: N_12  and  C_14 
REMARK    5  A    between atoms: N_17  and  C_18 
ROOT
HETATM    1  N   UNL     1      27.829  47.288  39.419  1.00  0.00    -0.067 N 
HETATM    2  H   UNL     1      28.123  48.164  38.958  1.00  0.00     0.280 HD
HETATM    3  C   UNL     1      27.605  46.315  38.301  1.00  0.00     0.270 C 
ENDROOT
BRANCH   1   4
HETATM    4  C   UNL     1      26.497  47.690  40.051  1.00  0.00     0.277 C 
BRANCH   4   5
HETATM    5  C   UNL     1      25.755  48.715  39.281  1.00  0.00     0.016 A 
HETATM    6  C   UNL     1      26.110  50.030  39.009  1.00  0.00     0.069 A 
HETATM    7  N   UNL     1      25.072  50.540  38.263  1.00  0.00    -0.277 N 
HETATM    8  H   UNL     1      24.993  51.464  37.845  1.00  0.00     0.189 HD
HETATM    9  N   UNL     1      24.065  49.672  38.090  1.00  0.00    -0.186 NA
HETATM   10  C   UNL     1      24.497  48.552  38.659  1.00  0.00     0.149 A 
BRANCH   6  11
HETATM   11  C   UNL     1      27.298  50.816  39.325  1.00  0.00    -0.007 A 
HETATM   12  C   UNL     1      28.400  50.817  38.457  1.00  0.00     0.020 A 
HETATM   13  C   UNL     1      29.558  51.544  38.768  1.00  0.00    -0.061 A 
HETATM   14  C   UNL     1      30.743  51.529  37.845  1.00  0.00     0.048 C 
HETATM   15  C   UNL     1      29.591  52.309  39.939  1.00  0.00     0.007 A 
HETATM   16  C   UNL     1      28.502  52.312  40.808  1.00  0.00     0.001 A 
HETATM   17  C   UNL     1      27.365  51.561  40.508  1.00  0.00     0.014 A 
ENDBRANCH   6  11
ENDBRANCH   4   5
ENDBRANCH   1   4
BRANCH   1  18
HETATM   18  C   UNL     1      28.954  46.978  40.421  1.00  0.00     0.190 C 
HETATM   19  C   UNL     1      30.365  47.008  39.823  1.00  0.00     0.048 C 
HETATM   20  C   UNL     1      31.068  48.356  39.914  1.00  0.00     0.099 C 
HETATM   21  N   UNL     1      30.999  48.836  41.297  1.00  0.00    -0.268 NA
HETATM   22  C   UNL     1      29.632  49.081  41.775  1.00  0.00     0.099 C 
HETATM   23  C   UNL     1      28.817  47.786  41.720  1.00  0.00     0.048 C 
BRANCH  21  24
HETATM   24  C   UNL     1      31.912  49.859  41.609  1.00  0.00     0.109 A 
HETATM   25  N   UNL     1      32.651  50.416  40.633  1.00  0.00    -0.224 NA
HETATM   26  C   UNL     1      33.477  51.443  40.958  1.00  0.00     0.102 A 
HETATM   27  C   UNL     1      34.283  52.087  39.874  1.00  0.00     0.091 C 
HETATM   28  N   UNL     1      33.598  51.923  42.202  1.00  0.00    -0.348 N 
HETATM   29  H   UNL     1      34.233  52.700  42.377  1.00  0.00     0.167 HD
HETATM   30  C   UNL     1      32.878  51.389  43.200  1.00  0.00     0.009 A 
HETATM   31  C   UNL     1      33.027  51.942  44.580  1.00  0.00     0.068 C 
HETATM   32  C   UNL     1      32.004  50.339  42.913  1.00  0.00     0.069 A 
ENDBRANCH  21  24
ENDBRANCH   1  18
TORSDOF 5
ENDMDL
MODEL 7
REMARK VINA RESULT:      -9.4     11.192     14.062
REMARK  5 active torsions:
REMARK  status: ('A' for Active; 'I' for Inactive)
REMARK    1  A    between atoms: C_4  and  C_5 
REMARK    2  A    between atoms: C_10  and  C_11 
REMARK    3  A    between atoms: C_11  and  N_12 
REMARK    4  A    between atoms: N_12  and  C_14 
REMARK    5  A    between atoms: N_17  and  C_18 
ROOT
HETATM    1  N   UNL     1      28.310  51.353  40.191  1.00  0.00    -0.067 N 
HETATM    2  H   UNL     1      28.976  50.761  40.712  1.00  0.00     0.280 HD
HETATM    3  C   UNL     1      27.437  51.973  41.240  1.00  0.00     0.270 C 
ENDROOT
BRANCH   1   4
HETATM    4  C   UNL     1      27.524  50.318  39.386  1.00  0.00     0.277 C 
BRANCH   4   5
HETATM    5  C   UNL     1      27.260  49.063  40.123  1.00  0.00     0.016 A 
HETATM    6  C   UNL     1      28.155  48.235  40.791  1.00  0.00     0.069 A 
HETATM    7  N   UNL     1      27.391  47.208  41.298  1.00  0.00    -0.277 N 
HETATM    8  H   UNL     1      27.693  46.431  41.881  1.00  0.00     0.189 HD
HETATM    9  N   UNL     1      26.098  47.288  40.957  1.00  0.00    -0.186 NA
HETATM   10  C   UNL     1      26.005  48.434  40.292  1.00  0.00     0.149 A 
BRANCH   6  11
HETATM   11  C   UNL     1      29.591  48.330  41.034  1.00  0.00    -0.007 A 
HETATM   12  C   UNL     1      30.088  49.187  42.026  1.00  0.00     0.020 A 
HETATM   13  C   UNL     1      31.468  49.308  42.244  1.00  0.00    -0.061 A 
HETATM   14  C   UNL     1      31.998  50.241  43.295  1.00  0.00     0.048 C 
HETATM   15  C   UNL     1      32.350  48.528  41.489  1.00  0.00     0.007 A 
HETATM   16  C   UNL     1      31.865  47.674  40.500  1.00  0.00     0.001 A 
HETATM   17  C   UNL     1      30.493  47.584  40.266  1.00  0.00     0.014 A 
ENDBRANCH   6  11
ENDBRANCH   4   5
ENDBRANCH   1   4
BRANCH   1  18
HETATM   18  C   UNL     1      29.195  52.291  39.352  1.00  0.00     0.190 C 
HETATM   19  C   UNL     1      29.897  53.391  40.157  1.00  0.00     0.048 C 
HETATM   20  C   UNL     1      31.288  53.024  40.658  1.00  0.00     0.099 C 
HETATM   21  N   UNL     1      32.079  52.511  39.537  1.00  0.00    -0.268 NA
HETATM   22  C   UNL     1      31.544  51.277  38.946  1.00  0.00     0.099 C 
HETATM   23  C   UNL     1      30.132  51.521  38.409  1.00  0.00     0.048 C 
BRANCH  21  24
HETATM   24  C   UNL     1      33.468  52.490  39.759  1.00  0.00     0.109 A 
HETATM   25  N   UNL     1      34.247  53.436  39.202  1.00  0.00    -0.224 NA
HETATM   26  C   UNL     1      35.574  53.423  39.487  1.00  0.00     0.102 A 
HETATM   27  C   UNL     1      36.445  54.487  38.895  1.00  0.00     0.091 C 
HETATM   28  N   UNL     1      36.146  52.514  40.286  1.00  0.00    -0.348 N 
HETATM   29  H   UNL     1      37.148  52.566  40.463  1.00  0.00     0.167 HD
HETATM   30  C   UNL     1      35.399  51.557  40.855  1.00  0.00     0.009 A 
HETATM   31  C   UNL     1      36.057  50.553  41.745  1.00  0.00     0.068 C 
HETATM   32  C   UNL     1      34.026  51.535  40.603  1.00  0.00     0.069 A 
ENDBRANCH  21  24
ENDBRANCH   1  18
TORSDOF 5
ENDMDL
MODEL 8
REMARK VINA RESULT:      -9.4     11.227     13.917
REMARK  5 active torsions:
REMARK  status: ('A' for Active; 'I' for Inactive)
REMARK    1  A    between atoms: C_4  and  C_5 
REMARK    2  A    between atoms: C_10  and  C_11 
REMARK    3  A    between atoms: C_11  and  N_12 
REMARK    4  A    between atoms: N_12  and  C_14 
REMARK    5  A    between atoms: N_17  and  C_18 
ROOT
HETATM    1  N   UNL     1      28.013  47.401  39.365  1.00  0.00    -0.067 N 
HETATM    2  H   UNL     1      28.276  48.328  38.994  1.00  0.00     0.280 HD
HETATM    3  C   UNL     1      27.933  46.509  38.164  1.00  0.00     0.270 C 
ENDROOT
BRANCH   1   4
HETATM    4  C   UNL     1      26.617  47.667  39.927  1.00  0.00     0.277 C 
BRANCH   4   5
HETATM    5  C   UNL     1      25.863  48.705  39.190  1.00  0.00     0.016 A 
HETATM    6  C   UNL     1      26.209  50.029  38.946  1.00  0.00     0.069 A 
HETATM    7  N   UNL     1      25.161  50.551  38.222  1.00  0.00    -0.277 N 
HETATM    8  H   UNL     1      25.074  51.484  37.827  1.00  0.00     0.189 HD
HETATM    9  N   UNL     1      24.157  49.682  38.038  1.00  0.00    -0.186 NA
HETATM   10  C   UNL     1      24.600  48.552  38.575  1.00  0.00     0.149 A 
BRANCH   6  11
HETATM   11  C   UNL     1      27.397  50.813  39.269  1.00  0.00    -0.007 A 
HETATM   12  C   UNL     1      28.517  50.785  38.426  1.00  0.00     0.020 A 
HETATM   13  C   UNL     1      29.674  51.510  38.745  1.00  0.00    -0.061 A 
HETATM   14  C   UNL     1      30.878  51.464  37.848  1.00  0.00     0.048 C 
HETATM   15  C   UNL     1      29.688  52.302  39.898  1.00  0.00     0.007 A 
HETATM   16  C   UNL     1      28.580  52.334  40.743  1.00  0.00     0.001 A 
HETATM   17  C   UNL     1      27.444  51.585  40.436  1.00  0.00     0.014 A 
ENDBRANCH   6  11
ENDBRANCH   4   5
ENDBRANCH   1   4
BRANCH   1  18
HETATM   18  C   UNL     1      29.087  47.084  40.420  1.00  0.00     0.190 C 
HETATM   19  C   UNL     1      30.525  47.112  39.892  1.00  0.00     0.048 C 
HETATM   20  C   UNL     1      31.227  48.457  40.024  1.00  0.00     0.099 C 
HETATM   21  N   UNL     1      31.091  48.931  41.404  1.00  0.00    -0.268 NA
HETATM   22  C   UNL     1      29.703  49.179  41.815  1.00  0.00     0.099 C 
HETATM   23  C   UNL     1      28.888  47.887  41.715  1.00  0.00     0.048 C 
BRANCH  21  24
HETATM   24  C   UNL     1      31.991  49.951  41.765  1.00  0.00     0.109 A 
HETATM   25  N   UNL     1      31.968  50.450  43.015  1.00  0.00    -0.224 NA
HETATM   26  C   UNL     1      32.889  51.388  43.349  1.00  0.00     0.102 A 
HETATM   27  C   UNL     1      32.889  51.930  44.743  1.00  0.00     0.091 C 
HETATM   28  N   UNL     1      33.814  51.847  42.495  1.00  0.00    -0.348 N 
HETATM   29  H   UNL     1      34.481  52.548  42.813  1.00  0.00     0.167 HD
HETATM   30  C   UNL     1      33.864  51.372  41.242  1.00  0.00     0.009 A 
HETATM   31  C   UNL     1      34.906  51.896  40.307  1.00  0.00     0.068 C 
HETATM   32  C   UNL     1      32.944  50.396  40.854  1.00  0.00     0.069 A 
ENDBRANCH  21  24
ENDBRANCH   1  18
TORSDOF 5
ENDMDL
MODEL 9
REMARK VINA RESULT:      -9.4      2.561      4.246
REMARK  5 active torsions:
REMARK  status: ('A' for Active; 'I' for Inactive)
REMARK    1  A    between atoms: C_4  and  C_5 
REMARK    2  A    between atoms: C_10  and  C_11 
REMARK    3  A    between atoms: C_11  and  N_12 
REMARK    4  A    between atoms: N_12  and  C_14 
REMARK    5  A    between atoms: N_17  and  C_18 
ROOT
HETATM    1  N   UNL     1      25.199  45.171  51.181  1.00  0.00    -0.067 N 
HETATM    2  H   UNL     1      24.582  45.798  51.722  1.00  0.00     0.280 HD
HETATM    3  C   UNL     1      24.652  43.794  51.406  1.00  0.00     0.270 C 
ENDROOT
BRANCH   1   4
HETATM    4  C   UNL     1      26.536  45.338  51.903  1.00  0.00     0.277 C 
BRANCH   4   5
HETATM    5  C   UNL     1      26.470  46.227  53.085  1.00  0.00     0.016 A 
HETATM    6  C   UNL     1      27.252  46.214  54.234  1.00  0.00     0.069 A 
HETATM    7  N   UNL     1      26.774  47.245  55.010  1.00  0.00    -0.277 N 
HETATM    8  H   UNL     1      27.124  47.569  55.909  1.00  0.00     0.189 HD
HETATM    9  N   UNL     1      25.718  47.871  54.472  1.00  0.00    -0.186 NA
HETATM   10  C   UNL     1      25.565  47.294  53.286  1.00  0.00     0.149 A 
BRANCH   6  11
HETATM   11  C   UNL     1      28.389  45.396  54.643  1.00  0.00    -0.007 A 
HETATM   12  C   UNL     1      28.775  44.284  53.879  1.00  0.00     0.020 A 
HETATM   13  C   UNL     1      29.845  43.474  54.282  1.00  0.00    -0.061 A 
HETATM   14  C   UNL     1      30.245  42.274  53.472  1.00  0.00     0.048 C 
HETATM   15  C   UNL     1      30.560  43.809  55.437  1.00  0.00     0.007 A 
HETATM   16  C   UNL     1      30.183  44.911  56.203  1.00  0.00     0.001 A 
HETATM   17  C   UNL     1      29.096  45.694  55.814  1.00  0.00     0.014 A 
ENDBRANCH   6  11
ENDBRANCH   4   5
ENDBRANCH   1   4
BRANCH   1  18
HETATM   18  C   UNL     1      25.163  45.729  49.747  1.00  0.00     0.190 C 
HETATM   19  C   UNL     1      24.070  45.126  48.859  1.00  0.00     0.048 C 
HETATM   20  C   UNL     1      22.752  45.889  48.864  1.00  0.00     0.099 C 
HETATM   21  N   UNL     1      23.019  47.305  48.599  1.00  0.00    -0.268 NA
HETATM   22  C   UNL     1      23.845  47.956  49.624  1.00  0.00     0.099 C 
HETATM   23  C   UNL     1      25.207  47.264  49.718  1.00  0.00     0.048 C 
BRANCH  21  24
HETATM   24  C   UNL     1      21.894  48.051  48.204  1.00  0.00     0.109 A 
HETATM   25  N   UNL     1      21.776  49.336  48.587  1.00  0.00    -0.224 NA
HETATM   26  C   UNL     1      20.711  50.045  48.137  1.00  0.00     0.102 A 
HETATM   27  C   UNL     1      20.586  51.482  48.535  1.00  0.00     0.091 C 
HETATM   28  N   UNL     1      19.767  49.528  47.340  1.00  0.00    -0.348 N 
HETATM   29  H   UNL     1      18.996  50.118  47.033  1.00  0.00     0.167 HD
HETATM   30  C   UNL     1      19.852  48.250  46.941  1.00  0.00     0.009 A 
HETATM   31  C   UNL     1      18.790  47.694  46.050  1.00  0.00     0.068 C 
HETATM   32  C   UNL     1      20.938  47.483  47.368  1.00  0.00     0.069 A 
ENDBRANCH  21  24
ENDBRANCH   1  18
TORSDOF 5
ENDMDL
MODEL 10
REMARK VINA RESULT:      -9.0     11.562     14.576
REMARK  5 active torsions:
REMARK  status: ('A' for Active; 'I' for Inactive)
REMARK    1  A    between atoms: C_4  and  C_5 
REMARK    2  A    between atoms: C_10  and  C_11 
REMARK    3  A    between atoms: C_11  and  N_12 
REMARK    4  A    between atoms: N_12  and  C_14 
REMARK    5  A    between atoms: N_17  and  C_18 
ROOT
HETATM    1  N   UNL     1      32.535  50.161  42.097  1.00  0.00    -0.067 N 
HETATM    2  H   UNL     1      31.938  50.774  41.520  1.00  0.00     0.280 HD
HETATM    3  C   UNL     1      32.702  50.890  43.397  1.00  0.00     0.270 C 
ENDROOT
BRANCH   1   4
HETATM    4  C   UNL     1      33.847  50.164  41.312  1.00  0.00     0.277 C 
BRANCH   4   5
HETATM    5  C   UNL     1      34.149  51.455  40.656  1.00  0.00     0.016 A 
HETATM    6  C   UNL     1      33.327  52.246  39.862  1.00  0.00     0.069 A 
HETATM    7  N   UNL     1      34.097  53.331  39.510  1.00  0.00    -0.277 N 
HETATM    8  H   UNL     1      33.823  54.145  38.964  1.00  0.00     0.189 HD
HETATM    9  N   UNL     1      35.354  53.263  39.969  1.00  0.00    -0.186 NA
HETATM   10  C   UNL     1      35.374  52.158  40.705  1.00  0.00     0.149 A 
BRANCH   6  11
HETATM   11  C   UNL     1      31.932  52.117  39.453  1.00  0.00    -0.007 A 
HETATM   12  C   UNL     1      30.903  52.584  40.282  1.00  0.00     0.020 A 
HETATM   13  C   UNL     1      29.559  52.436  39.912  1.00  0.00    -0.061 A 
HETATM   14  C   UNL     1      28.458  52.921  40.811  1.00  0.00     0.048 C 
HETATM   15  C   UNL     1      29.251  51.853  38.678  1.00  0.00     0.007 A 
HETATM   16  C   UNL     1      30.267  51.384  37.847  1.00  0.00     0.001 A 
HETATM   17  C   UNL     1      31.601  51.505  38.238  1.00  0.00     0.014 A 
ENDBRANCH   6  11
ENDBRANCH   4   5
ENDBRANCH   1   4
BRANCH   1  18
HETATM   18  C   UNL     1      31.799  48.811  42.124  1.00  0.00     0.190 C 
HETATM   19  C   UNL     1      30.285  48.917  42.336  1.00  0.00     0.048 C 
HETATM   20  C   UNL     1      29.466  48.994  41.055  1.00  0.00     0.099 C 
HETATM   21  N   UNL     1      29.866  47.899  40.167  1.00  0.00    -0.268 NA
HETATM   22  C   UNL     1      31.267  47.966  39.733  1.00  0.00     0.099 C 
HETATM   23  C   UNL     1      32.196  47.906  40.949  1.00  0.00     0.048 C 
BRANCH  21  24
HETATM   24  C   UNL     1      28.954  47.617  39.134  1.00  0.00     0.109 A 
HETATM   25  N   UNL     1      29.131  46.527  38.365  1.00  0.00    -0.224 NA
HETATM   26  C   UNL     1      28.200  46.251  37.418  1.00  0.00     0.102 A 
HETATM   27  C   UNL     1      28.373  45.025  36.576  1.00  0.00     0.091 C 
HETATM   28  N   UNL     1      27.120  47.013  37.205  1.00  0.00    -0.348 N 
HETATM   29  H   UNL     1      26.456  46.745  36.480  1.00  0.00     0.167 HD
HETATM   30  C   UNL     1      26.914  48.108  37.951  1.00  0.00     0.009 A 
HETATM   31  C   UNL     1      25.701  48.943  37.698  1.00  0.00     0.068 C 
HETATM   32  C   UNL     1      27.838  48.427  38.947  1.00  0.00     0.069 A 
ENDBRANCH  21  24
ENDBRANCH   1  18
TORSDOF 5
ENDMDL
