MODEL 1
REMARK VINA RESULT:      -9.4      0.000      0.000
REMARK  7 active torsions:
REMARK  status: ('A' for Active; 'I' for Inactive)
REMARK    1  A    between atoms: O_2  and  C_3 
REMARK    2  A    between atoms: C_5  and  C_6 
REMARK    3  A    between atoms: C_6  and  N_7 
REMARK    4  A    between atoms: C_6  and  C_13 
REMARK    5  A    between atoms: C_13  and  N_14 
REMARK       I    between atoms: N_14  and  C_15 
REMARK       I    between atoms: C_15  and  N_16 
REMARK    6  A    between atoms: N_16  and  C_17 
REMARK    7  A    between atoms: C_18  and  O_19 
ROOT
HETATM    1  N   UNL     1      23.686  48.193  49.967  1.00  0.00    -0.341 N 
HETATM    2  C   UNL     1      22.756  48.399  48.992  1.00  0.00     0.316 C 
HETATM    3  N   UNL     1      21.499  48.554  49.481  1.00  0.00    -0.332 N 
HETATM    4  O   UNL     1      23.051  48.444  47.802  1.00  0.00    -0.247 OA
HETATM    5  H   UNL     1      23.318  48.075  50.902  1.00  0.00     0.164 HD
HETATM    6  H   UNL     1      21.303  48.211  50.410  1.00  0.00     0.165 HD
ENDROOT
BRANCH   1   7
HETATM    7  C   UNL     1      25.002  47.612  49.711  1.00  0.00     0.162 C 
BRANCH   7   8
HETATM    8  C   UNL     1      25.234  46.153  50.229  1.00  0.00     0.238 C 
BRANCH   8   9
HETATM    9  C   UNL     1      25.817  46.109  51.633  1.00  0.00    -0.023 A 
HETATM   10  C   UNL     1      25.509  47.134  52.545  1.00  0.00     0.046 A 
HETATM   11  C   UNL     1      26.050  47.156  53.835  1.00  0.00     0.068 A 
HETATM   12  C   UNL     1      26.904  46.133  54.235  1.00  0.00     0.037 A 
HETATM   13  C   UNL     1      27.215  45.099  53.350  1.00  0.00     0.003 A 
HETATM   14  C   UNL     1      26.680  45.086  52.062  1.00  0.00     0.009 A 
BRANCH  11  15
HETATM   15  O   UNL     1      25.667  48.229  54.590  1.00  0.00    -0.356 OA
HETATM   16  C   UNL     1      26.407  48.476  55.781  1.00  0.00     0.210 C 
ENDBRANCH  11  15
ENDBRANCH   8   9
BRANCH   8  17
HETATM   17  N   UNL     1      23.975  45.304  50.055  1.00  0.00    -0.061 N 
HETATM   18  H   UNL     1      23.198  45.961  50.267  1.00  0.00     0.280 HD
HETATM   19  C   UNL     1      23.767  44.140  50.978  1.00  0.00     0.236 C 
HETATM   20  C   UNL     1      24.222  42.937  50.182  1.00  0.00     0.029 C 
HETATM   21  C   UNL     1      23.926  43.280  48.733  1.00  0.00     0.029 C 
HETATM   22  C   UNL     1      23.722  44.786  48.666  1.00  0.00     0.236 C 
ENDBRANCH   8  17
ENDBRANCH   7   8
ENDBRANCH   1   7
BRANCH   3  23
HETATM   23  C   UNL     1      20.340  48.645  48.603  1.00  0.00     0.149 C 
HETATM   24  C   UNL     1      19.149  47.713  49.013  1.00  0.00     0.149 C 
HETATM   25  C   UNL     1      18.295  48.522  50.007  1.00  0.00     0.073 C 
HETATM   26  C   UNL     1      18.553  49.924  49.549  1.00  0.00    -0.047 A 
HETATM   27  C   UNL     1      19.697  49.995  48.743  1.00  0.00    -0.026 A 
HETATM   28  C   UNL     1      17.830  51.061  49.868  1.00  0.00     0.008 A 
HETATM   29  C   UNL     1      20.134  51.207  48.233  1.00  0.00     0.010 A 
HETATM   30  C   UNL     1      19.402  52.357  48.538  1.00  0.00     0.001 A 
HETATM   31  C   UNL     1      18.260  52.285  49.350  1.00  0.00     0.001 A 
BRANCH  24  32
HETATM   32  O   UNL     1      19.549  46.471  49.586  1.00  0.00    -0.393 OA
HETATM   33  H   UNL     1      19.399  46.554  50.547  1.00  0.00     0.210 HD
ENDBRANCH  24  32
ENDBRANCH   3  23
TORSDOF 7
ENDMDL
MODEL 2
REMARK VINA RESULT:      -9.1      6.383     10.496
REMARK  7 active torsions:
REMARK  status: ('A' for Active; 'I' for Inactive)
REMARK    1  A    between atoms: O_2  and  C_3 
REMARK    2  A    between atoms: C_5  and  C_6 
REMARK    3  A    between atoms: C_6  and  N_7 
REMARK    4  A    between atoms: C_6  and  C_13 
REMARK    5  A    between atoms: C_13  and  N_14 
REMARK       I    between atoms: N_14  and  C_15 
REMARK       I    between atoms: C_15  and  N_16 
REMARK    6  A    between atoms: N_16  and  C_17 
REMARK    7  A    between atoms: C_18  and  O_19 
ROOT
HETATM    1  N   UNL     1      27.426  41.939  53.461  1.00  0.00    -0.341 N 
HETATM    2  C   UNL     1      28.491  42.783  53.562  1.00  0.00     0.316 C 
HETATM    3  N   UNL     1      28.266  43.825  54.403  1.00  0.00    -0.332 N 
HETATM    4  O   UNL     1      29.539  42.593  52.952  1.00  0.00    -0.247 OA
HETATM    5  H   UNL     1      26.581  42.246  53.927  1.00  0.00     0.164 HD
HETATM    6  H   UNL     1      27.310  44.066  54.618  1.00  0.00     0.165 HD
ENDROOT
BRANCH   1   7
HETATM    7  C   UNL     1      27.250  40.997  52.358  1.00  0.00     0.162 C 
BRANCH   7   8
HETATM    8  C   UNL     1      27.754  41.466  50.951  1.00  0.00     0.238 C 
BRANCH   8   9
HETATM    9  C   UNL     1      28.265  40.318  50.093  1.00  0.00    -0.023 A 
HETATM   10  C   UNL     1      29.103  39.345  50.664  1.00  0.00     0.046 A 
HETATM   11  C   UNL     1      29.627  38.291  49.906  1.00  0.00     0.068 A 
HETATM   12  C   UNL     1      29.301  38.193  48.556  1.00  0.00     0.037 A 
HETATM   13  C   UNL     1      28.461  39.142  47.972  1.00  0.00     0.003 A 
HETATM   14  C   UNL     1      27.949  40.196  48.730  1.00  0.00     0.009 A 
BRANCH  11  15
HETATM   15  O   UNL     1      30.439  37.442  50.604  1.00  0.00    -0.356 OA
HETATM   16  C   UNL     1      29.811  36.583  51.551  1.00  0.00     0.210 C 
ENDBRANCH  11  15
ENDBRANCH   8   9
BRANCH   8  17
HETATM   17  N   UNL     1      26.707  42.338  50.258  1.00  0.00    -0.061 N 
HETATM   18  H   UNL     1      26.672  41.964  49.288  1.00  0.00     0.280 HD
HETATM   19  C   UNL     1      26.987  43.803  50.105  1.00  0.00     0.236 C 
HETATM   20  C   UNL     1      26.223  44.457  51.235  1.00  0.00     0.029 C 
HETATM   21  C   UNL     1      25.013  43.569  51.466  1.00  0.00     0.029 C 
HETATM   22  C   UNL     1      25.308  42.234  50.801  1.00  0.00     0.236 C 
ENDBRANCH   8  17
ENDBRANCH   7   8
ENDBRANCH   1   7
BRANCH   3  23
HETATM   23  C   UNL     1      29.221  44.916  54.545  1.00  0.00     0.149 C 
HETATM   24  C   UNL     1      28.567  46.308  54.842  1.00  0.00     0.149 C 
HETATM   25  C   UNL     1      28.432  46.401  56.373  1.00  0.00     0.073 C 
HETATM   26  C   UNL     1      29.577  45.550  56.825  1.00  0.00    -0.047 A 
HETATM   27  C   UNL     1      30.037  44.722  55.792  1.00  0.00    -0.026 A 
HETATM   28  C   UNL     1      30.142  45.497  58.089  1.00  0.00     0.008 A 
HETATM   29  C   UNL     1      31.077  43.830  56.003  1.00  0.00     0.010 A 
HETATM   30  C   UNL     1      31.661  43.781  57.270  1.00  0.00     0.001 A 
HETATM   31  C   UNL     1      31.196  44.607  58.306  1.00  0.00     0.001 A 
BRANCH  24  32
HETATM   32  O   UNL     1      27.304  46.506  54.211  1.00  0.00    -0.393 OA
HETATM   33  H   UNL     1      27.480  46.527  53.251  1.00  0.00     0.210 HD
ENDBRANCH  24  32
ENDBRANCH   3  23
TORSDOF 7
ENDMDL
MODEL 3
REMARK VINA RESULT:      -9.1      1.131      1.753
REMARK  7 active torsions:
REMARK  status: ('A' for Active; 'I' for Inactive)
REMARK    1  A    between atoms: O_2  and  C_3 
REMARK    2  A    between atoms: C_5  and  C_6 
REMARK    3  A    between atoms: C_6  and  N_7 
REMARK    4  A    between atoms: C_6  and  C_13 
REMARK    5  A    between atoms: C_13  and  N_14 
REMARK       I    between atoms: N_14  and  C_15 
REMARK       I    between atoms: C_15  and  N_16 
REMARK    6  A    between atoms: N_16  and  C_17 
REMARK    7  A    between atoms: C_18  and  O_19 
ROOT
HETATM    1  N   UNL     1      23.674  48.223  49.963  1.00  0.00    -0.341 N 
HETATM    2  C   UNL     1      22.741  48.430  48.992  1.00  0.00     0.316 C 
HETATM    3  N   UNL     1      21.485  48.576  49.484  1.00  0.00    -0.332 N 
HETATM    4  O   UNL     1      23.034  48.484  47.801  1.00  0.00    -0.247 OA
HETATM    5  H   UNL     1      23.308  48.097  50.899  1.00  0.00     0.164 HD
HETATM    6  H   UNL     1      21.292  48.227  50.411  1.00  0.00     0.165 HD
ENDROOT
BRANCH   1   7
HETATM    7  C   UNL     1      24.992  47.649  49.701  1.00  0.00     0.162 C 
BRANCH   7   8
HETATM    8  C   UNL     1      25.202  46.157  50.128  1.00  0.00     0.238 C 
BRANCH   8   9
HETATM    9  C   UNL     1      25.837  46.019  51.503  1.00  0.00    -0.023 A 
HETATM   10  C   UNL     1      26.762  44.988  51.741  1.00  0.00     0.046 A 
HETATM   11  C   UNL     1      27.344  44.799  52.999  1.00  0.00     0.068 A 
HETATM   12  C   UNL     1      27.012  45.660  54.042  1.00  0.00     0.037 A 
HETATM   13  C   UNL     1      26.105  46.698  53.826  1.00  0.00     0.003 A 
HETATM   14  C   UNL     1      25.520  46.877  52.571  1.00  0.00     0.009 A 
BRANCH  11  15
HETATM   15  O   UNL     1      28.207  43.742  53.070  1.00  0.00    -0.356 OA
HETATM   16  C   UNL     1      28.127  42.920  54.231  1.00  0.00     0.210 C 
ENDBRANCH  11  15
ENDBRANCH   8   9
BRANCH   8  17
HETATM   17  N   UNL     1      23.914  45.353  49.958  1.00  0.00    -0.061 N 
HETATM   18  H   UNL     1      23.162  46.032  50.190  1.00  0.00     0.280 HD
HETATM   19  C   UNL     1      23.680  44.181  50.864  1.00  0.00     0.236 C 
HETATM   20  C   UNL     1      24.086  42.977  50.043  1.00  0.00     0.029 C 
HETATM   21  C   UNL     1      23.783  43.354  48.604  1.00  0.00     0.029 C 
HETATM   22  C   UNL     1      23.628  44.866  48.564  1.00  0.00     0.236 C 
ENDBRANCH   8  17
ENDBRANCH   7   8
ENDBRANCH   1   7
BRANCH   3  23
HETATM   23  C   UNL     1      20.323  48.666  48.609  1.00  0.00     0.149 C 
HETATM   24  C   UNL     1      19.134  47.734  49.021  1.00  0.00     0.149 C 
HETATM   25  C   UNL     1      18.281  48.541  50.018  1.00  0.00     0.073 C 
HETATM   26  C   UNL     1      18.537  49.943  49.561  1.00  0.00    -0.047 A 
HETATM   27  C   UNL     1      19.679  50.016  48.752  1.00  0.00    -0.026 A 
HETATM   28  C   UNL     1      17.814  51.079  49.882  1.00  0.00     0.008 A 
HETATM   29  C   UNL     1      20.114  51.229  48.242  1.00  0.00     0.010 A 
HETATM   30  C   UNL     1      19.382  52.378  48.549  1.00  0.00     0.001 A 
HETATM   31  C   UNL     1      18.241  52.304  49.364  1.00  0.00     0.001 A 
BRANCH  24  32
HETATM   32  O   UNL     1      19.537  46.491  49.592  1.00  0.00    -0.393 OA
HETATM   33  H   UNL     1      20.454  46.618  49.900  1.00  0.00     0.210 HD
ENDBRANCH  24  32
ENDBRANCH   3  23
TORSDOF 7
ENDMDL
MODEL 4
REMARK VINA RESULT:      -9.0      5.770      9.548
REMARK  7 active torsions:
REMARK  status: ('A' for Active; 'I' for Inactive)
REMARK    1  A    between atoms: O_2  and  C_3 
REMARK    2  A    between atoms: C_5  and  C_6 
REMARK    3  A    between atoms: C_6  and  N_7 
REMARK    4  A    between atoms: C_6  and  C_13 
REMARK    5  A    between atoms: C_13  and  N_14 
REMARK       I    between atoms: N_14  and  C_15 
REMARK       I    between atoms: C_15  and  N_16 
REMARK    6  A    between atoms: N_16  and  C_17 
REMARK    7  A    between atoms: C_18  and  O_19 
ROOT
HETATM    1  N   UNL     1      27.643  42.161  53.297  1.00  0.00    -0.341 N 
HETATM    2  C   UNL     1      28.643  43.065  53.498  1.00  0.00     0.316 C 
HETATM    3  N   UNL     1      28.302  44.052  54.364  1.00  0.00    -0.332 N 
HETATM    4  O   UNL     1      29.736  42.968  52.947  1.00  0.00    -0.247 OA
HETATM    5  H   UNL     1      26.754  42.393  53.722  1.00  0.00     0.164 HD
HETATM    6  H   UNL     1      27.321  44.223  54.529  1.00  0.00     0.165 HD
ENDROOT
BRANCH   1   7
HETATM    7  C   UNL     1      27.595  41.260  52.148  1.00  0.00     0.162 C 
BRANCH   7   8
HETATM    8  C   UNL     1      26.559  41.609  51.028  1.00  0.00     0.238 C 
BRANCH   8   9
HETATM    9  C   UNL     1      26.206  43.088  50.989  1.00  0.00    -0.023 A 
HETATM   10  C   UNL     1      26.936  43.955  50.158  1.00  0.00     0.046 A 
HETATM   11  C   UNL     1      26.673  45.328  50.116  1.00  0.00     0.068 A 
HETATM   12  C   UNL     1      25.652  45.853  50.905  1.00  0.00     0.037 A 
HETATM   13  C   UNL     1      24.907  45.009  51.729  1.00  0.00     0.003 A 
HETATM   14  C   UNL     1      25.180  43.641  51.775  1.00  0.00     0.009 A 
BRANCH  11  15
HETATM   15  O   UNL     1      27.483  46.035  49.272  1.00  0.00    -0.356 OA
HETATM   16  C   UNL     1      27.394  47.455  49.331  1.00  0.00     0.210 C 
ENDBRANCH  11  15
ENDBRANCH   8   9
BRANCH   8  17
HETATM   17  N   UNL     1      27.001  41.044  49.678  1.00  0.00    -0.061 N 
HETATM   18  H   UNL     1      27.019  41.874  49.053  1.00  0.00     0.280 HD
HETATM   19  C   UNL     1      26.106  40.055  48.992  1.00  0.00     0.236 C 
HETATM   20  C   UNL     1      26.708  38.706  49.320  1.00  0.00     0.029 C 
HETATM   21  C   UNL     1      28.199  38.956  49.457  1.00  0.00     0.029 C 
HETATM   22  C   UNL     1      28.384  40.455  49.638  1.00  0.00     0.236 C 
ENDBRANCH   8  17
ENDBRANCH   7   8
ENDBRANCH   1   7
BRANCH   3  23
HETATM   23  C   UNL     1      29.174  45.193  54.610  1.00  0.00     0.149 C 
HETATM   24  C   UNL     1      28.415  46.513  54.980  1.00  0.00     0.149 C 
HETATM   25  C   UNL     1      28.233  46.490  56.509  1.00  0.00     0.073 C 
HETATM   26  C   UNL     1      29.424  45.690  56.937  1.00  0.00    -0.047 A 
HETATM   27  C   UNL     1      29.968  44.969  55.865  1.00  0.00    -0.026 A 
HETATM   28  C   UNL     1      29.957  45.588  58.211  1.00  0.00     0.008 A 
HETATM   29  C   UNL     1      31.062  44.138  56.048  1.00  0.00     0.010 A 
HETATM   30  C   UNL     1      31.614  44.041  57.327  1.00  0.00     0.001 A 
HETATM   31  C   UNL     1      31.065  44.760  58.401  1.00  0.00     0.001 A 
BRANCH  24  32
HETATM   32  O   UNL     1      27.158  46.668  54.325  1.00  0.00    -0.393 OA
HETATM   33  H   UNL     1      26.599  47.192  54.929  1.00  0.00     0.210 HD
ENDBRANCH  24  32
ENDBRANCH   3  23
TORSDOF 7
ENDMDL
MODEL 5
REMARK VINA RESULT:      -8.7      2.758      8.771
REMARK  7 active torsions:
REMARK  status: ('A' for Active; 'I' for Inactive)
REMARK    1  A    between atoms: O_2  and  C_3 
REMARK    2  A    between atoms: C_5  and  C_6 
REMARK    3  A    between atoms: C_6  and  N_7 
REMARK    4  A    between atoms: C_6  and  C_13 
REMARK    5  A    between atoms: C_13  and  N_14 
REMARK       I    between atoms: N_14  and  C_15 
REMARK       I    between atoms: C_15  and  N_16 
REMARK    6  A    between atoms: N_16  and  C_17 
REMARK    7  A    between atoms: C_18  and  O_19 
ROOT
HETATM    1  N   UNL     1      26.414  45.528  50.828  1.00  0.00    -0.341 N 
HETATM    2  C   UNL     1      26.206  44.792  51.956  1.00  0.00     0.316 C 
HETATM    3  N   UNL     1      27.305  44.708  52.747  1.00  0.00    -0.332 N 
HETATM    4  O   UNL     1      25.122  44.276  52.213  1.00  0.00    -0.247 OA
HETATM    5  H   UNL     1      27.370  45.821  50.670  1.00  0.00     0.164 HD
HETATM    6  H   UNL     1      28.206  44.895  52.332  1.00  0.00     0.165 HD
ENDROOT
BRANCH   1   7
HETATM    7  C   UNL     1      25.557  45.446  49.648  1.00  0.00     0.162 C 
BRANCH   7   8
HETATM    8  C   UNL     1      24.126  46.069  49.778  1.00  0.00     0.238 C 
BRANCH   8   9
HETATM    9  C   UNL     1      24.071  47.521  49.329  1.00  0.00    -0.023 A 
HETATM   10  C   UNL     1      22.831  48.101  49.007  1.00  0.00     0.046 A 
HETATM   11  C   UNL     1      22.733  49.422  48.555  1.00  0.00     0.068 A 
HETATM   12  C   UNL     1      23.889  50.189  48.433  1.00  0.00     0.037 A 
HETATM   13  C   UNL     1      25.128  49.637  48.757  1.00  0.00     0.003 A 
HETATM   14  C   UNL     1      25.222  48.317  49.199  1.00  0.00     0.009 A 
BRANCH  11  15
HETATM   15  O   UNL     1      21.461  49.828  48.267  1.00  0.00    -0.356 OA
HETATM   16  C   UNL     1      21.058  51.096  48.776  1.00  0.00     0.210 C 
ENDBRANCH  11  15
ENDBRANCH   8   9
BRANCH   8  17
HETATM   17  N   UNL     1      23.079  45.176  49.113  1.00  0.00    -0.061 N 
HETATM   18  H   UNL     1      22.327  45.837  48.833  1.00  0.00     0.280 HD
HETATM   19  C   UNL     1      22.395  44.135  49.949  1.00  0.00     0.236 C 
HETATM   20  C   UNL     1      23.130  42.851  49.634  1.00  0.00     0.029 C 
HETATM   21  C   UNL     1      23.597  43.000  48.197  1.00  0.00     0.029 C 
HETATM   22  C   UNL     1      23.518  44.479  47.855  1.00  0.00     0.236 C 
ENDBRANCH   8  17
ENDBRANCH   7   8
ENDBRANCH   1   7
BRANCH   3  23
HETATM   23  C   UNL     1      27.339  43.854  53.928  1.00  0.00     0.149 C 
HETATM   24  C   UNL     1      27.612  42.343  53.619  1.00  0.00     0.149 C 
HETATM   25  C   UNL     1      29.143  42.175  53.616  1.00  0.00     0.073 C 
HETATM   26  C   UNL     1      29.562  43.246  54.574  1.00  0.00    -0.047 A 
HETATM   27  C   UNL     1      28.541  44.188  54.765  1.00  0.00    -0.026 A 
HETATM   28  C   UNL     1      30.789  43.385  55.199  1.00  0.00     0.008 A 
HETATM   29  C   UNL     1      28.728  45.282  55.594  1.00  0.00     0.010 A 
HETATM   30  C   UNL     1      29.958  45.422  56.240  1.00  0.00     0.001 A 
HETATM   31  C   UNL     1      30.982  44.481  56.043  1.00  0.00     0.001 A 
BRANCH  24  32
HETATM   32  O   UNL     1      27.051  41.886  52.391  1.00  0.00    -0.393 OA
HETATM   33  H   UNL     1      26.197  42.348  52.294  1.00  0.00     0.210 HD
ENDBRANCH  24  32
ENDBRANCH   3  23
TORSDOF 7
ENDMDL
MODEL 6
REMARK VINA RESULT:      -8.5      1.933      4.095
REMARK  7 active torsions:
REMARK  status: ('A' for Active; 'I' for Inactive)
REMARK    1  A    between atoms: O_2  and  C_3 
REMARK    2  A    between atoms: C_5  and  C_6 
REMARK    3  A    between atoms: C_6  and  N_7 
REMARK    4  A    between atoms: C_6  and  C_13 
REMARK    5  A    between atoms: C_13  and  N_14 
REMARK       I    between atoms: N_14  and  C_15 
REMARK       I    between atoms: C_15  and  N_16 
REMARK    6  A    between atoms: N_16  and  C_17 
REMARK    7  A    between atoms: C_18  and  O_19 
ROOT
HETATM    1  N   UNL     1      23.571  48.150  49.997  1.00  0.00    -0.341 N 
HETATM    2  C   UNL     1      22.625  48.264  49.023  1.00  0.00     0.316 C 
HETATM    3  N   UNL     1      21.421  48.675  49.495  1.00  0.00    -0.332 N 
HETATM    4  O   UNL     1      22.865  48.022  47.843  1.00  0.00    -0.247 OA
HETATM    5  H   UNL     1      23.237  48.277  50.945  1.00  0.00     0.164 HD
HETATM    6  H   UNL     1      21.231  48.561  50.480  1.00  0.00     0.165 HD
ENDROOT
BRANCH   1   7
HETATM    7  C   UNL     1      24.793  47.366  49.841  1.00  0.00     0.162 C 
BRANCH   7   8
HETATM    8  C   UNL     1      24.863  46.015  50.628  1.00  0.00     0.238 C 
BRANCH   8   9
HETATM    9  C   UNL     1      24.167  44.872  49.904  1.00  0.00    -0.023 A 
HETATM   10  C   UNL     1      24.082  44.888  48.501  1.00  0.00     0.046 A 
HETATM   11  C   UNL     1      23.421  43.879  47.793  1.00  0.00     0.068 A 
HETATM   12  C   UNL     1      22.843  42.821  48.491  1.00  0.00     0.037 A 
HETATM   13  C   UNL     1      22.926  42.779  49.883  1.00  0.00     0.003 A 
HETATM   14  C   UNL     1      23.578  43.793  50.585  1.00  0.00     0.009 A 
BRANCH  11  15
HETATM   15  O   UNL     1      23.411  44.052  46.438  1.00  0.00    -0.356 OA
HETATM   16  C   UNL     1      22.206  44.544  45.859  1.00  0.00     0.210 C 
ENDBRANCH  11  15
ENDBRANCH   8   9
BRANCH   8  17
HETATM   17  N   UNL     1      26.299  45.698  51.047  1.00  0.00    -0.061 N 
HETATM   18  H   UNL     1      26.744  46.633  51.141  1.00  0.00     0.280 HD
HETATM   19  C   UNL     1      27.171  44.943  50.089  1.00  0.00     0.236 C 
HETATM   20  C   UNL     1      27.122  43.512  50.576  1.00  0.00     0.029 C 
HETATM   21  C   UNL     1      26.937  43.608  52.080  1.00  0.00     0.029 C 
HETATM   22  C   UNL     1      26.456  45.020  52.379  1.00  0.00     0.236 C 
ENDBRANCH   8  17
ENDBRANCH   7   8
ENDBRANCH   1   7
BRANCH   3  23
HETATM   23  C   UNL     1      20.239  48.726  48.644  1.00  0.00     0.149 C 
HETATM   24  C   UNL     1      19.069  47.796  49.112  1.00  0.00     0.149 C 
HETATM   25  C   UNL     1      18.231  48.626  50.103  1.00  0.00     0.073 C 
HETATM   26  C   UNL     1      18.462  50.015  49.596  1.00  0.00    -0.047 A 
HETATM   27  C   UNL     1      19.585  50.074  48.759  1.00  0.00    -0.026 A 
HETATM   28  C   UNL     1      17.734  51.154  49.897  1.00  0.00     0.008 A 
HETATM   29  C   UNL     1      19.996  51.274  48.201  1.00  0.00     0.010 A 
HETATM   30  C   UNL     1      19.259  52.425  48.489  1.00  0.00     0.001 A 
HETATM   31  C   UNL     1      18.138  52.366  49.332  1.00  0.00     0.001 A 
BRANCH  24  32
HETATM   32  O   UNL     1      19.498  46.576  49.713  1.00  0.00    -0.393 OA
HETATM   33  H   UNL     1      20.406  46.734  50.032  1.00  0.00     0.210 HD
ENDBRANCH  24  32
ENDBRANCH   3  23
TORSDOF 7
ENDMDL
MODEL 7
REMARK VINA RESULT:      -8.5      2.386      7.849
REMARK  7 active torsions:
REMARK  status: ('A' for Active; 'I' for Inactive)
REMARK    1  A    between atoms: O_2  and  C_3 
REMARK    2  A    between atoms: C_5  and  C_6 
REMARK    3  A    between atoms: C_6  and  N_7 
REMARK    4  A    between atoms: C_6  and  C_13 
REMARK    5  A    between atoms: C_13  and  N_14 
REMARK       I    between atoms: N_14  and  C_15 
REMARK       I    between atoms: C_15  and  N_16 
REMARK    6  A    between atoms: N_16  and  C_17 
REMARK    7  A    between atoms: C_18  and  O_19 
ROOT
HETATM    1  N   UNL     1      23.350  45.734  49.778  1.00  0.00    -0.341 N 
HETATM    2  C   UNL     1      24.677  45.859  50.059  1.00  0.00     0.316 C 
HETATM    3  N   UNL     1      24.946  45.829  51.389  1.00  0.00    -0.332 N 
HETATM    4  O   UNL     1      25.526  45.977  49.180  1.00  0.00    -0.247 OA
HETATM    5  H   UNL     1      22.732  45.743  50.581  1.00  0.00     0.164 HD
HETATM    6  H   UNL     1      24.193  46.029  52.031  1.00  0.00     0.165 HD
ENDROOT
BRANCH   1   7
HETATM    7  C   UNL     1      22.759  46.126  48.502  1.00  0.00     0.162 C 
BRANCH   7   8
HETATM    8  C   UNL     1      21.577  47.152  48.565  1.00  0.00     0.238 C 
BRANCH   8   9
HETATM    9  C   UNL     1      22.048  48.598  48.565  1.00  0.00    -0.023 A 
HETATM   10  C   UNL     1      23.301  48.921  48.014  1.00  0.00     0.046 A 
HETATM   11  C   UNL     1      23.793  50.230  48.024  1.00  0.00     0.068 A 
HETATM   12  C   UNL     1      23.020  51.246  48.581  1.00  0.00     0.037 A 
HETATM   13  C   UNL     1      21.769  50.951  49.123  1.00  0.00     0.003 A 
HETATM   14  C   UNL     1      21.287  49.641  49.119  1.00  0.00     0.009 A 
BRANCH  11  15
HETATM   15  O   UNL     1      25.033  50.373  47.468  1.00  0.00    -0.356 OA
HETATM   16  C   UNL     1      26.129  49.809  48.181  1.00  0.00     0.210 C 
ENDBRANCH  11  15
ENDBRANCH   8   9
BRANCH   8  17
HETATM   17  N   UNL     1      20.528  46.844  47.496  1.00  0.00    -0.061 N 
HETATM   18  H   UNL     1      20.545  47.681  46.880  1.00  0.00     0.280 HD
HETATM   19  C   UNL     1      19.097  46.700  47.922  1.00  0.00     0.236 C 
HETATM   20  C   UNL     1      18.878  45.206  48.019  1.00  0.00     0.029 C 
HETATM   21  C   UNL     1      19.801  44.598  46.977  1.00  0.00     0.029 C 
HETATM   22  C   UNL     1      20.823  45.664  46.613  1.00  0.00     0.236 C 
ENDBRANCH   8  17
ENDBRANCH   7   8
ENDBRANCH   1   7
BRANCH   3  23
HETATM   23  C   UNL     1      26.282  46.087  51.909  1.00  0.00     0.149 C 
HETATM   24  C   UNL     1      26.305  46.919  53.236  1.00  0.00     0.149 C 
HETATM   25  C   UNL     1      26.198  45.897  54.384  1.00  0.00     0.073 C 
HETATM   26  C   UNL     1      26.841  44.693  53.772  1.00  0.00    -0.047 A 
HETATM   27  C   UNL     1      26.905  44.802  52.376  1.00  0.00    -0.026 A 
HETATM   28  C   UNL     1      27.302  43.560  54.422  1.00  0.00     0.008 A 
HETATM   29  C   UNL     1      27.440  43.782  51.605  1.00  0.00     0.010 A 
HETATM   30  C   UNL     1      27.920  42.642  52.255  1.00  0.00     0.001 A 
HETATM   31  C   UNL     1      27.850  42.532  53.653  1.00  0.00     0.001 A 
BRANCH  24  32
HETATM   32  O   UNL     1      25.271  47.895  53.332  1.00  0.00    -0.393 OA
HETATM   33  H   UNL     1      24.699  47.614  54.071  1.00  0.00     0.210 HD
ENDBRANCH  24  32
ENDBRANCH   3  23
TORSDOF 7
ENDMDL
MODEL 8
REMARK VINA RESULT:      -8.1      6.039      9.635
REMARK  7 active torsions:
REMARK  status: ('A' for Active; 'I' for Inactive)
REMARK    1  A    between atoms: O_2  and  C_3 
REMARK    2  A    between atoms: C_5  and  C_6 
REMARK    3  A    between atoms: C_6  and  N_7 
REMARK    4  A    between atoms: C_6  and  C_13 
REMARK    5  A    between atoms: C_13  and  N_14 
REMARK       I    between atoms: N_14  and  C_15 
REMARK       I    between atoms: C_15  and  N_16 
REMARK    6  A    between atoms: N_16  and  C_17 
REMARK    7  A    between atoms: C_18  and  O_19 
ROOT
HETATM    1  N   UNL     1      27.139  40.738  52.447  1.00  0.00    -0.341 N 
HETATM    2  C   UNL     1      28.101  40.589  51.493  1.00  0.00     0.316 C 
HETATM    3  N   UNL     1      27.851  39.564  50.640  1.00  0.00    -0.332 N 
HETATM    4  O   UNL     1      29.080  41.327  51.427  1.00  0.00    -0.247 OA
HETATM    5  H   UNL     1      26.432  40.014  52.468  1.00  0.00     0.164 HD
HETATM    6  H   UNL     1      27.209  38.844  50.936  1.00  0.00     0.165 HD
ENDROOT
BRANCH   1   7
HETATM    7  C   UNL     1      27.350  41.473  53.691  1.00  0.00     0.162 C 
BRANCH   7   8
HETATM    8  C   UNL     1      26.997  42.998  53.670  1.00  0.00     0.238 C 
BRANCH   8   9
HETATM    9  C   UNL     1      27.993  43.847  54.444  1.00  0.00    -0.023 A 
HETATM   10  C   UNL     1      27.566  45.044  55.047  1.00  0.00     0.046 A 
HETATM   11  C   UNL     1      28.453  45.876  55.738  1.00  0.00     0.068 A 
HETATM   12  C   UNL     1      29.792  45.507  55.847  1.00  0.00     0.037 A 
HETATM   13  C   UNL     1      30.235  44.318  55.267  1.00  0.00     0.003 A 
HETATM   14  C   UNL     1      29.348  43.496  54.571  1.00  0.00     0.009 A 
BRANCH  11  15
HETATM   15  O   UNL     1      27.885  47.009  56.248  1.00  0.00    -0.356 OA
HETATM   16  C   UNL     1      27.081  47.782  55.362  1.00  0.00     0.210 C 
ENDBRANCH  11  15
ENDBRANCH   8   9
BRANCH   8  17
HETATM   17  N   UNL     1      26.750  43.483  52.242  1.00  0.00    -0.061 N 
HETATM   18  H   UNL     1      27.196  42.754  51.649  1.00  0.00     0.280 HD
HETATM   19  C   UNL     1      27.375  44.776  51.809  1.00  0.00     0.236 C 
HETATM   20  C   UNL     1      26.266  45.796  51.937  1.00  0.00     0.029 C 
HETATM   21  C   UNL     1      24.984  45.030  51.665  1.00  0.00     0.029 C 
HETATM   22  C   UNL     1      25.310  43.551  51.815  1.00  0.00     0.236 C 
ENDBRANCH   8  17
ENDBRANCH   7   8
ENDBRANCH   1   7
BRANCH   3  23
HETATM   23  C   UNL     1      28.820  39.147  49.635  1.00  0.00     0.149 C 
HETATM   24  C   UNL     1      28.924  37.595  49.448  1.00  0.00     0.149 C 
HETATM   25  C   UNL     1      27.866  37.219  48.394  1.00  0.00     0.073 C 
HETATM   26  C   UNL     1      27.799  38.473  47.579  1.00  0.00    -0.047 A 
HETATM   27  C   UNL     1      28.351  39.560  48.269  1.00  0.00    -0.026 A 
HETATM   28  C   UNL     1      27.244  38.631  46.320  1.00  0.00     0.008 A 
HETATM   29  C   UNL     1      28.365  40.827  47.708  1.00  0.00     0.010 A 
HETATM   30  C   UNL     1      27.821  40.993  46.432  1.00  0.00     0.001 A 
HETATM   31  C   UNL     1      27.264  39.903  45.744  1.00  0.00     0.001 A 
BRANCH  24  32
HETATM   32  O   UNL     1      28.730  36.847  50.646  1.00  0.00    -0.393 OA
HETATM   33  H   UNL     1      29.422  37.146  51.267  1.00  0.00     0.210 HD
ENDBRANCH  24  32
ENDBRANCH   3  23
TORSDOF 7
ENDMDL
MODEL 9
REMARK VINA RESULT:      -8.0      6.425     10.499
REMARK  7 active torsions:
REMARK  status: ('A' for Active; 'I' for Inactive)
REMARK    1  A    between atoms: O_2  and  C_3 
REMARK    2  A    between atoms: C_5  and  C_6 
REMARK    3  A    between atoms: C_6  and  N_7 
REMARK    4  A    between atoms: C_6  and  C_13 
REMARK    5  A    between atoms: C_13  and  N_14 
REMARK       I    between atoms: N_14  and  C_15 
REMARK       I    between atoms: C_15  and  N_16 
REMARK    6  A    between atoms: N_16  and  C_17 
REMARK    7  A    between atoms: C_18  and  O_19 
ROOT
HETATM    1  N   UNL     1      15.627  54.331  50.545  1.00  0.00    -0.341 N 
HETATM    2  C   UNL     1      14.815  54.812  51.527  1.00  0.00     0.316 C 
HETATM    3  N   UNL     1      15.382  55.816  52.243  1.00  0.00    -0.332 N 
HETATM    4  O   UNL     1      13.685  54.371  51.720  1.00  0.00    -0.247 OA
HETATM    5  H   UNL     1      16.571  54.698  50.541  1.00  0.00     0.164 HD
HETATM    6  H   UNL     1      16.387  55.907  52.222  1.00  0.00     0.165 HD
ENDROOT
BRANCH   1   7
HETATM    7  C   UNL     1      15.437  53.028  49.912  1.00  0.00     0.162 C 
BRANCH   7   8
HETATM    8  C   UNL     1      16.283  52.745  48.625  1.00  0.00     0.238 C 
BRANCH   8   9
HETATM    9  C   UNL     1      17.635  52.120  48.930  1.00  0.00    -0.023 A 
HETATM   10  C   UNL     1      17.736  51.138  49.931  1.00  0.00     0.046 A 
HETATM   11  C   UNL     1      18.963  50.560  50.273  1.00  0.00     0.068 A 
HETATM   12  C   UNL     1      20.116  50.955  49.598  1.00  0.00     0.037 A 
HETATM   13  C   UNL     1      20.037  51.920  48.593  1.00  0.00     0.003 A 
HETATM   14  C   UNL     1      18.812  52.500  48.262  1.00  0.00     0.009 A 
BRANCH  11  15
HETATM   15  O   UNL     1      18.894  49.637  51.277  1.00  0.00    -0.356 OA
HETATM   16  C   UNL     1      18.595  48.296  50.901  1.00  0.00     0.210 C 
ENDBRANCH  11  15
ENDBRANCH   8   9
BRANCH   8  17
HETATM   17  N   UNL     1      15.464  51.973  47.591  1.00  0.00    -0.061 N 
HETATM   18  H   UNL     1      14.481  52.090  47.911  1.00  0.00     0.280 HD
HETATM   19  C   UNL     1      15.667  50.491  47.483  1.00  0.00     0.236 C 
HETATM   20  C   UNL     1      16.600  50.319  46.305  1.00  0.00     0.029 C 
HETATM   21  C   UNL     1      16.282  51.474  45.372  1.00  0.00     0.029 C 
HETATM   22  C   UNL     1      15.516  52.505  46.186  1.00  0.00     0.236 C 
ENDBRANCH   8  17
ENDBRANCH   7   8
ENDBRANCH   1   7
BRANCH   3  23
HETATM   23  C   UNL     1      14.740  56.373  53.426  1.00  0.00     0.149 C 
HETATM   24  C   UNL     1      15.713  56.619  54.629  1.00  0.00     0.149 C 
HETATM   25  C   UNL     1      16.287  58.035  54.435  1.00  0.00     0.073 C 
HETATM   26  C   UNL     1      15.169  58.711  53.704  1.00  0.00    -0.047 A 
HETATM   27  C   UNL     1      14.285  57.777  53.146  1.00  0.00    -0.026 A 
HETATM   28  C   UNL     1      14.983  60.071  53.521  1.00  0.00     0.008 A 
HETATM   29  C   UNL     1      13.191  58.189  52.401  1.00  0.00     0.010 A 
HETATM   30  C   UNL     1      12.988  59.559  52.224  1.00  0.00     0.001 A 
HETATM   31  C   UNL     1      13.877  60.493  52.778  1.00  0.00     0.001 A 
BRANCH  24  32
HETATM   32  O   UNL     1      16.762  55.660  54.738  1.00  0.00    -0.393 OA
HETATM   33  H   UNL     1      16.768  55.368  55.669  1.00  0.00     0.210 HD
ENDBRANCH  24  32
ENDBRANCH   3  23
TORSDOF 7
ENDMDL
MODEL 10
REMARK VINA RESULT:      -7.9      7.609     10.281
REMARK  7 active torsions:
REMARK  status: ('A' for Active; 'I' for Inactive)
REMARK    1  A    between atoms: O_2  and  C_3 
REMARK    2  A    between atoms: C_5  and  C_6 
REMARK    3  A    between atoms: C_6  and  N_7 
REMARK    4  A    between atoms: C_6  and  C_13 
REMARK    5  A    between atoms: C_13  and  N_14 
REMARK       I    between atoms: N_14  and  C_15 
REMARK       I    between atoms: C_15  and  N_16 
REMARK    6  A    between atoms: N_16  and  C_17 
REMARK    7  A    between atoms: C_18  and  O_19 
ROOT
HETATM    1  N   UNL     1      26.857  42.148  49.096  1.00  0.00    -0.341 N 
HETATM    2  C   UNL     1      26.699  41.700  50.373  1.00  0.00     0.316 C 
HETATM    3  N   UNL     1      27.536  42.300  51.255  1.00  0.00    -0.332 N 
HETATM    4  O   UNL     1      25.869  40.846  50.670  1.00  0.00    -0.247 OA
HETATM    5  H   UNL     1      27.636  42.778  48.949  1.00  0.00     0.164 HD
HETATM    6  H   UNL     1      28.365  42.751  50.895  1.00  0.00     0.165 HD
ENDROOT
BRANCH   1   7
HETATM    7  C   UNL     1      26.389  41.414  47.923  1.00  0.00     0.162 C 
BRANCH   7   8
HETATM    8  C   UNL     1      27.364  40.337  47.338  1.00  0.00     0.238 C 
BRANCH   8   9
HETATM    9  C   UNL     1      27.456  39.090  48.204  1.00  0.00    -0.023 A 
HETATM   10  C   UNL     1      28.634  38.832  48.927  1.00  0.00     0.046 A 
HETATM   11  C   UNL     1      28.779  37.681  49.709  1.00  0.00     0.068 A 
HETATM   12  C   UNL     1      27.728  36.770  49.785  1.00  0.00     0.037 A 
HETATM   13  C   UNL     1      26.546  37.011  49.085  1.00  0.00     0.003 A 
HETATM   14  C   UNL     1      26.410  38.157  48.300  1.00  0.00     0.009 A 
BRANCH  11  15
HETATM   15  O   UNL     1      29.990  37.570  50.333  1.00  0.00    -0.356 OA
HETATM   16  C   UNL     1      30.014  36.871  51.574  1.00  0.00     0.210 C 
ENDBRANCH  11  15
ENDBRANCH   8   9
BRANCH   8  17
HETATM   17  N   UNL     1      27.044  40.049  45.871  1.00  0.00    -0.061 N 
HETATM   18  H   UNL     1      26.010  40.149  45.816  1.00  0.00     0.280 HD
HETATM   19  C   UNL     1      27.334  38.679  45.333  1.00  0.00     0.236 C 
HETATM   20  C   UNL     1      28.658  38.825  44.616  1.00  0.00     0.029 C 
HETATM   21  C   UNL     1      28.680  40.254  44.104  1.00  0.00     0.029 C 
HETATM   22  C   UNL     1      27.616  41.019  44.875  1.00  0.00     0.236 C 
ENDBRANCH   8  17
ENDBRANCH   7   8
ENDBRANCH   1   7
BRANCH   3  23
HETATM   23  C   UNL     1      27.627  41.868  52.644  1.00  0.00     0.149 C 
HETATM   24  C   UNL     1      28.958  41.119  52.998  1.00  0.00     0.149 C 
HETATM   25  C   UNL     1      29.966  42.209  53.408  1.00  0.00     0.073 C 
HETATM   26  C   UNL     1      29.058  43.262  53.961  1.00  0.00    -0.047 A 
HETATM   27  C   UNL     1      27.734  43.064  53.546  1.00  0.00    -0.026 A 
HETATM   28  C   UNL     1      29.406  44.344  54.752  1.00  0.00     0.008 A 
HETATM   29  C   UNL     1      26.731  43.943  53.922  1.00  0.00     0.010 A 
HETATM   30  C   UNL     1      27.071  45.029  54.731  1.00  0.00     0.001 A 
HETATM   31  C   UNL     1      28.398  45.229  55.142  1.00  0.00     0.001 A 
BRANCH  24  32
HETATM   32  O   UNL     1      29.480  40.322  51.937  1.00  0.00    -0.393 OA
HETATM   33  H   UNL     1      28.722  39.828  51.571  1.00  0.00     0.210 HD
ENDBRANCH  24  32
ENDBRANCH   3  23
TORSDOF 7
ENDMDL
