MODEL 1
REMARK VINA RESULT:      -6.7      0.000      0.000
REMARK  2 active torsions:
REMARK  status: ('A' for Active; 'I' for Inactive)
REMARK    1  A    between atoms: C_3  and  S_4 
REMARK    2  A    between atoms: C_9  and  N_10 
ROOT
HETATM    1  C   UNL     1      31.012  43.393  56.074  1.00  0.00     0.050 C 
HETATM    2  C   UNL     1      29.924  43.489  55.041  1.00  0.00    -0.039 A 
HETATM    3  C   UNL     1      29.054  44.580  54.889  1.00  0.00     0.067 A 
HETATM    4  C   UNL     1      28.077  44.584  53.871  1.00  0.00     0.055 A 
HETATM    5  C   UNL     1      27.909  43.500  52.999  1.00  0.00     0.053 A 
HETATM    6  C   UNL     1      28.754  42.387  53.194  1.00  0.00     0.061 A 
HETATM    7 CL   UNL     1      28.579  40.946  52.245  1.00  0.00    -0.082 Cl
HETATM    8  C   UNL     1      29.739  42.385  54.191  1.00  0.00     0.034 A 
ENDROOT
BRANCH   5   9
HETATM    9  N   UNL     1      26.946  43.519  51.969  1.00  0.00    -0.376 N 
HETATM   10  C   UNL     1      25.549  43.821  52.336  1.00  0.00     0.150 C 
HETATM   11  C   UNL     1      24.616  43.444  51.165  1.00  0.00     0.252 C 
HETATM   12  N   UNL     1      25.064  44.131  49.894  1.00  0.00    -0.072 N 
HETATM   13  H   UNL     1      24.926  45.146  49.985  1.00  0.00     0.277 HD
HETATM   14  H   UNL     1      24.471  43.820  49.113  1.00  0.00     0.277 HD
HETATM   15  C   UNL     1      26.514  43.851  49.561  1.00  0.00     0.252 C 
HETATM   16  C   UNL     1      27.418  44.222  50.752  1.00  0.00     0.150 C 
ENDBRANCH   5   9
BRANCH   3  17
HETATM   17  S   UNL     1      29.140  46.044  55.921  1.00  0.00     0.172 S 
HETATM   18  C   UNL     1      28.091  47.241  55.139  1.00  0.00     0.167 C 
HETATM   19  O   UNL     1      28.594  45.688  57.214  1.00  0.00    -0.223 OA
HETATM   20  O   UNL     1      30.500  46.547  55.813  1.00  0.00    -0.223 OA
ENDBRANCH   3  17
TORSDOF 2
ENDMDL
MODEL 2
REMARK VINA RESULT:      -6.3     15.383     16.550
REMARK  2 active torsions:
REMARK  status: ('A' for Active; 'I' for Inactive)
REMARK    1  A    between atoms: C_3  and  S_4 
REMARK    2  A    between atoms: C_9  and  N_10 
ROOT
HETATM    1  C   UNL     1      28.071  52.796  41.238  1.00  0.00     0.050 C 
HETATM    2  C   UNL     1      29.496  52.365  41.028  1.00  0.00    -0.039 A 
HETATM    3  C   UNL     1      30.049  51.995  39.792  1.00  0.00     0.067 A 
HETATM    4  C   UNL     1      31.407  51.625  39.695  1.00  0.00     0.055 A 
HETATM    5  C   UNL     1      32.247  51.577  40.817  1.00  0.00     0.053 A 
HETATM    6  C   UNL     1      31.666  51.900  42.062  1.00  0.00     0.061 A 
HETATM    7 CL   UNL     1      32.573  51.782  43.536  1.00  0.00    -0.082 Cl
HETATM    8  C   UNL     1      30.323  52.287  42.162  1.00  0.00     0.034 A 
ENDROOT
BRANCH   5   9
HETATM    9  N   UNL     1      33.608  51.229  40.710  1.00  0.00    -0.376 N 
HETATM   10  C   UNL     1      34.023  49.903  41.210  1.00  0.00     0.150 C 
HETATM   11  C   UNL     1      35.561  49.859  41.336  1.00  0.00     0.252 C 
HETATM   12  N   UNL     1      36.208  50.232  40.020  1.00  0.00    -0.072 N 
HETATM   13  H   UNL     1      36.009  49.505  39.322  1.00  0.00     0.277 HD
HETATM   14  H   UNL     1      37.229  50.259  40.139  1.00  0.00     0.277 HD
HETATM   15  C   UNL     1      35.732  51.571  39.498  1.00  0.00     0.252 C 
HETATM   16  C   UNL     1      34.194  51.591  39.397  1.00  0.00     0.150 C 
ENDBRANCH   5   9
BRANCH   3  17
HETATM   17  S   UNL     1      29.112  52.006  38.263  1.00  0.00     0.172 S 
HETATM   18  C   UNL     1      27.769  50.877  38.520  1.00  0.00     0.167 C 
HETATM   19  O   UNL     1      28.596  53.347  38.088  1.00  0.00    -0.223 OA
HETATM   20  O   UNL     1      29.969  51.412  37.249  1.00  0.00    -0.223 OA
ENDBRANCH   3  17
TORSDOF 2
ENDMDL
MODEL 3
REMARK VINA RESULT:      -6.3     14.125     15.509
REMARK  2 active torsions:
REMARK  status: ('A' for Active; 'I' for Inactive)
REMARK    1  A    between atoms: C_3  and  S_4 
REMARK    2  A    between atoms: C_9  and  N_10 
ROOT
HETATM    1  C   UNL     1      28.917  48.191  38.614  1.00  0.00     0.050 C 
HETATM    2  C   UNL     1      29.914  48.885  39.499  1.00  0.00    -0.039 A 
HETATM    3  C   UNL     1      29.952  50.269  39.734  1.00  0.00     0.067 A 
HETATM    4  C   UNL     1      30.917  50.824  40.601  1.00  0.00     0.055 A 
HETATM    5  C   UNL     1      31.890  50.036  41.232  1.00  0.00     0.053 A 
HETATM    6  C   UNL     1      31.875  48.654  40.947  1.00  0.00     0.061 A 
HETATM    7 CL   UNL     1      33.085  47.589  41.586  1.00  0.00    -0.082 Cl
HETATM    8  C   UNL     1      30.907  48.095  40.102  1.00  0.00     0.034 A 
ENDROOT
BRANCH   5   9
HETATM    9  N   UNL     1      32.837  50.593  42.115  1.00  0.00    -0.376 N 
HETATM   10  C   UNL     1      34.119  51.058  41.549  1.00  0.00     0.150 C 
HETATM   11  C   UNL     1      35.132  51.289  42.691  1.00  0.00     0.252 C 
HETATM   12  N   UNL     1      34.555  52.232  43.723  1.00  0.00    -0.072 N 
HETATM   13  H   UNL     1      34.449  53.168  43.311  1.00  0.00     0.277 HD
HETATM   14  H   UNL     1      35.216  52.325  44.505  1.00  0.00     0.277 HD
HETATM   15  C   UNL     1      33.217  51.765  44.255  1.00  0.00     0.252 C 
HETATM   16  C   UNL     1      32.232  51.529  43.093  1.00  0.00     0.150 C 
ENDBRANCH   5   9
BRANCH   3  17
HETATM   17  S   UNL     1      28.778  51.413  39.007  1.00  0.00     0.172 S 
HETATM   18  C   UNL     1      29.197  53.006  39.661  1.00  0.00     0.167 C 
HETATM   19  O   UNL     1      28.999  51.399  37.576  1.00  0.00    -0.223 OA
HETATM   20  O   UNL     1      27.474  51.068  39.550  1.00  0.00    -0.223 OA
ENDBRANCH   3  17
TORSDOF 2
ENDMDL
MODEL 4
REMARK VINA RESULT:      -6.2     13.612     14.128
REMARK  2 active torsions:
REMARK  status: ('A' for Active; 'I' for Inactive)
REMARK    1  A    between atoms: C_3  and  S_4 
REMARK    2  A    between atoms: C_9  and  N_10 
ROOT
HETATM    1  C   UNL     1      33.592  48.748  41.472  1.00  0.00     0.050 C 
HETATM    2  C   UNL     1      32.154  48.939  41.080  1.00  0.00    -0.039 A 
HETATM    3  C   UNL     1      31.342  50.006  41.496  1.00  0.00     0.067 A 
HETATM    4  C   UNL     1      30.006  50.108  41.055  1.00  0.00     0.055 A 
HETATM    5  C   UNL     1      29.424  49.143  40.220  1.00  0.00     0.053 A 
HETATM    6  C   UNL     1      30.233  48.047  39.852  1.00  0.00     0.061 A 
HETATM    7 CL   UNL     1      29.599  46.738  38.905  1.00  0.00    -0.082 Cl
HETATM    8  C   UNL     1      31.566  47.951  40.271  1.00  0.00     0.034 A 
ENDROOT
BRANCH   5   9
HETATM    9  N   UNL     1      28.095  49.261  39.764  1.00  0.00    -0.376 N 
HETATM   10  C   UNL     1      27.015  48.804  40.659  1.00  0.00     0.150 C 
HETATM   11  C   UNL     1      25.701  48.680  39.858  1.00  0.00     0.252 C 
HETATM   12  N   UNL     1      25.387  49.983  39.157  1.00  0.00    -0.072 N 
HETATM   13  H   UNL     1      25.168  50.705  39.856  1.00  0.00     0.277 HD
HETATM   14  H   UNL     1      24.545  49.864  38.580  1.00  0.00     0.277 HD
HETATM   15  C   UNL     1      26.527  50.463  38.283  1.00  0.00     0.252 C 
HETATM   16  C   UNL     1      27.827  50.562  39.105  1.00  0.00     0.150 C 
ENDBRANCH   5   9
BRANCH   3  17
HETATM   17  S   UNL     1      31.935  51.323  42.559  1.00  0.00     0.172 S 
HETATM   18  C   UNL     1      30.655  52.549  42.558  1.00  0.00     0.167 C 
HETATM   19  O   UNL     1      32.078  50.767  43.888  1.00  0.00    -0.223 OA
HETATM   20  O   UNL     1      33.080  51.914  41.885  1.00  0.00    -0.223 OA
ENDBRANCH   3  17
TORSDOF 2
ENDMDL
MODEL 5
REMARK VINA RESULT:      -6.1      8.366     10.478
REMARK  2 active torsions:
REMARK  status: ('A' for Active; 'I' for Inactive)
REMARK    1  A    between atoms: C_3  and  S_4 
REMARK    2  A    between atoms: C_9  and  N_10 
ROOT
HETATM    1  C   UNL     1      19.660  52.188  48.473  1.00  0.00     0.050 C 
HETATM    2  C   UNL     1      20.504  50.953  48.624  1.00  0.00    -0.039 A 
HETATM    3  C   UNL     1      20.067  49.745  49.190  1.00  0.00     0.067 A 
HETATM    4  C   UNL     1      20.931  48.633  49.267  1.00  0.00     0.055 A 
HETATM    5  C   UNL     1      22.259  48.692  48.821  1.00  0.00     0.053 A 
HETATM    6  C   UNL     1      22.704  49.927  48.302  1.00  0.00     0.061 A 
HETATM    7 CL   UNL     1      24.351  50.157  47.810  1.00  0.00    -0.082 Cl
HETATM    8  C   UNL     1      21.844  51.029  48.205  1.00  0.00     0.034 A 
ENDROOT
BRANCH   5   9
HETATM    9  N   UNL     1      23.112  47.571  48.879  1.00  0.00    -0.376 N 
HETATM   10  C   UNL     1      24.091  47.506  49.982  1.00  0.00     0.150 C 
HETATM   11  C   UNL     1      25.144  46.420  49.672  1.00  0.00     0.252 C 
HETATM   12  N   UNL     1      24.468  45.096  49.391  1.00  0.00    -0.072 N 
HETATM   13  H   UNL     1      24.021  44.750  50.249  1.00  0.00     0.277 HD
HETATM   14  H   UNL     1      25.178  44.402  49.125  1.00  0.00     0.277 HD
HETATM   15  C   UNL     1      23.431  45.195  48.292  1.00  0.00     0.252 C 
HETATM   16  C   UNL     1      22.404  46.295  48.621  1.00  0.00     0.150 C 
ENDBRANCH   5   9
BRANCH   3  17
HETATM   17  S   UNL     1      18.399  49.505  49.804  1.00  0.00     0.172 S 
HETATM   18  C   UNL     1      17.377  49.360  48.363  1.00  0.00     0.167 C 
HETATM   19  O   UNL     1      18.390  48.257  50.538  1.00  0.00    -0.223 OA
HETATM   20  O   UNL     1      18.019  50.745  50.462  1.00  0.00    -0.223 OA
ENDBRANCH   3  17
TORSDOF 2
ENDMDL
MODEL 6
REMARK VINA RESULT:      -6.1      3.657      5.712
REMARK  2 active torsions:
REMARK  status: ('A' for Active; 'I' for Inactive)
REMARK    1  A    between atoms: C_3  and  S_4 
REMARK    2  A    between atoms: C_9  and  N_10 
ROOT
HETATM    1  C   UNL     1      27.136  43.406  50.575  1.00  0.00     0.050 C 
HETATM    2  C   UNL     1      27.619  43.860  51.924  1.00  0.00    -0.039 A 
HETATM    3  C   UNL     1      27.064  44.917  52.662  1.00  0.00     0.067 A 
HETATM    4  C   UNL     1      27.577  45.253  53.933  1.00  0.00     0.055 A 
HETATM    5  C   UNL     1      28.671  44.580  54.495  1.00  0.00     0.053 A 
HETATM    6  C   UNL     1      29.254  43.554  53.721  1.00  0.00     0.061 A 
HETATM    7 CL   UNL     1      30.672  42.713  54.261  1.00  0.00    -0.082 Cl
HETATM    8  C   UNL     1      28.737  43.203  52.467  1.00  0.00     0.034 A 
ENDROOT
BRANCH   5   9
HETATM    9  N   UNL     1      29.164  44.904  55.774  1.00  0.00    -0.376 N 
HETATM   10  C   UNL     1      30.626  44.864  55.981  1.00  0.00     0.150 C 
HETATM   11  C   UNL     1      30.932  44.892  57.494  1.00  0.00     0.252 C 
HETATM   12  N   UNL     1      30.267  46.086  58.144  1.00  0.00    -0.072 N 
HETATM   13  H   UNL     1      30.704  46.951  57.800  1.00  0.00     0.277 HD
HETATM   14  H   UNL     1      30.430  46.054  59.158  1.00  0.00     0.277 HD
HETATM   15  C   UNL     1      28.778  46.138  57.878  1.00  0.00     0.252 C 
HETATM   16  C   UNL     1      28.502  46.093  56.362  1.00  0.00     0.150 C 
ENDBRANCH   5   9
BRANCH   3  17
HETATM   17  S   UNL     1      25.661  45.875  52.087  1.00  0.00     0.172 S 
HETATM   18  C   UNL     1      25.478  47.198  53.252  1.00  0.00     0.167 C 
HETATM   19  O   UNL     1      26.014  46.412  50.790  1.00  0.00    -0.223 OA
HETATM   20  O   UNL     1      24.491  45.024  52.235  1.00  0.00    -0.223 OA
ENDBRANCH   3  17
TORSDOF 2
ENDMDL
MODEL 7
REMARK VINA RESULT:      -6.1      6.537      8.212
REMARK  2 active torsions:
REMARK  status: ('A' for Active; 'I' for Inactive)
REMARK    1  A    between atoms: C_3  and  S_4 
REMARK    2  A    between atoms: C_9  and  N_10 
ROOT
HETATM    1  C   UNL     1      27.561  48.786  49.234  1.00  0.00     0.050 C 
HETATM    2  C   UNL     1      26.069  48.621  49.168  1.00  0.00    -0.039 A 
HETATM    3  C   UNL     1      25.367  47.480  49.588  1.00  0.00     0.067 A 
HETATM    4  C   UNL     1      23.960  47.431  49.505  1.00  0.00     0.055 A 
HETATM    5  C   UNL     1      23.209  48.489  48.975  1.00  0.00     0.053 A 
HETATM    6  C   UNL     1      23.929  49.610  48.507  1.00  0.00     0.061 A 
HETATM    7 CL   UNL     1      23.123  50.941  47.741  1.00  0.00    -0.082 Cl
HETATM    8  C   UNL     1      25.325  49.673  48.605  1.00  0.00     0.034 A 
ENDROOT
BRANCH   5   9
HETATM    9  N   UNL     1      21.801  48.444  48.915  1.00  0.00    -0.376 N 
HETATM   10  C   UNL     1      21.048  49.552  49.535  1.00  0.00     0.150 C 
HETATM   11  C   UNL     1      19.566  49.147  49.683  1.00  0.00     0.252 C 
HETATM   12  N   UNL     1      19.003  48.714  48.347  1.00  0.00    -0.072 N 
HETATM   13  H   UNL     1      18.964  49.523  47.713  1.00  0.00     0.277 HD
HETATM   14  H   UNL     1      18.036  48.389  48.475  1.00  0.00     0.277 HD
HETATM   15  C   UNL     1      19.818  47.613  47.702  1.00  0.00     0.252 C 
HETATM   16  C   UNL     1      21.294  48.039  47.582  1.00  0.00     0.150 C 
ENDBRANCH   5   9
BRANCH   3  17
HETATM   17  S   UNL     1      26.178  46.043  50.290  1.00  0.00     0.172 S 
HETATM   18  C   UNL     1      24.926  44.792  50.391  1.00  0.00     0.167 C 
HETATM   19  O   UNL     1      27.205  45.633  49.356  1.00  0.00    -0.223 OA
HETATM   20  O   UNL     1      26.528  46.394  51.658  1.00  0.00    -0.223 OA
ENDBRANCH   3  17
TORSDOF 2
ENDMDL
MODEL 8
REMARK VINA RESULT:      -6.0     13.296     14.756
REMARK  2 active torsions:
REMARK  status: ('A' for Active; 'I' for Inactive)
REMARK    1  A    between atoms: C_3  and  S_4 
REMARK    2  A    between atoms: C_9  and  N_10 
ROOT
HETATM    1  C   UNL     1      29.542  53.857  40.169  1.00  0.00     0.050 C 
HETATM    2  C   UNL     1      29.334  52.369  40.145  1.00  0.00    -0.039 A 
HETATM    3  C   UNL     1      30.044  51.445  40.929  1.00  0.00     0.067 A 
HETATM    4  C   UNL     1      29.759  50.066  40.849  1.00  0.00     0.055 A 
HETATM    5  C   UNL     1      28.792  49.556  39.972  1.00  0.00     0.053 A 
HETATM    6  C   UNL     1      28.121  50.488  39.151  1.00  0.00     0.061 A 
HETATM    7 CL   UNL     1      26.974  49.974  37.956  1.00  0.00    -0.082 Cl
HETATM    8  C   UNL     1      28.386  51.861  39.240  1.00  0.00     0.034 A 
ENDROOT
BRANCH   5   9
HETATM    9  N   UNL     1      28.495  48.180  39.913  1.00  0.00    -0.376 N 
HETATM   10  C   UNL     1      29.625  47.230  39.892  1.00  0.00     0.150 C 
HETATM   11  C   UNL     1      29.117  45.835  39.469  1.00  0.00     0.252 C 
HETATM   12  N   UNL     1      27.981  45.394  40.366  1.00  0.00    -0.072 N 
HETATM   13  H   UNL     1      28.337  45.236  41.317  1.00  0.00     0.277 HD
HETATM   14  H   UNL     1      27.615  44.494  40.032  1.00  0.00     0.277 HD
HETATM   15  C   UNL     1      26.854  46.404  40.415  1.00  0.00     0.252 C 
HETATM   16  C   UNL     1      27.393  47.789  40.824  1.00  0.00     0.150 C 
ENDBRANCH   5   9
BRANCH   3  17
HETATM   17  S   UNL     1      31.310  51.934  42.101  1.00  0.00     0.172 S 
HETATM   18  C   UNL     1      31.794  50.443  42.929  1.00  0.00     0.167 C 
HETATM   19  O   UNL     1      32.424  52.452  41.335  1.00  0.00    -0.223 OA
HETATM   20  O   UNL     1      30.653  52.769  43.094  1.00  0.00    -0.223 OA
ENDBRANCH   3  17
TORSDOF 2
ENDMDL
MODEL 9
REMARK VINA RESULT:      -5.9     14.177     15.858
REMARK  2 active torsions:
REMARK  status: ('A' for Active; 'I' for Inactive)
REMARK    1  A    between atoms: C_3  and  S_4 
REMARK    2  A    between atoms: C_9  and  N_10 
ROOT
HETATM    1  C   UNL     1      27.677  51.264  38.363  1.00  0.00     0.050 C 
HETATM    2  C   UNL     1      28.871  51.287  39.275  1.00  0.00    -0.039 A 
HETATM    3  C   UNL     1      29.460  50.153  39.857  1.00  0.00     0.067 A 
HETATM    4  C   UNL     1      30.596  50.278  40.684  1.00  0.00     0.055 A 
HETATM    5  C   UNL     1      31.161  51.524  40.989  1.00  0.00     0.053 A 
HETATM    6  C   UNL     1      30.529  52.661  40.441  1.00  0.00     0.061 A 
HETATM    7 CL   UNL     1      31.072  54.264  40.822  1.00  0.00    -0.082 Cl
HETATM    8  C   UNL     1      29.412  52.542  39.603  1.00  0.00     0.034 A 
ENDROOT
BRANCH   5   9
HETATM    9  N   UNL     1      32.309  51.641  41.797  1.00  0.00    -0.376 N 
HETATM   10  C   UNL     1      32.169  51.360  43.240  1.00  0.00     0.150 C 
HETATM   11  C   UNL     1      33.413  51.882  43.989  1.00  0.00     0.252 C 
HETATM   12  N   UNL     1      34.674  51.302  43.385  1.00  0.00    -0.072 N 
HETATM   13  H   UNL     1      34.703  50.290  43.559  1.00  0.00     0.277 HD
HETATM   14  H   UNL     1      35.493  51.709  43.854  1.00  0.00     0.277 HD
HETATM   15  C   UNL     1      34.775  51.557  41.896  1.00  0.00     0.252 C 
HETATM   16  C   UNL     1      33.513  51.039  41.177  1.00  0.00     0.150 C 
ENDBRANCH   5   9
BRANCH   3  17
HETATM   17  S   UNL     1      28.861  48.488  39.567  1.00  0.00     0.172 S 
HETATM   18  C   UNL     1      29.971  47.422  40.447  1.00  0.00     0.167 C 
HETATM   19  O   UNL     1      27.537  48.403  40.149  1.00  0.00    -0.223 OA
HETATM   20  O   UNL     1      29.057  48.219  38.151  1.00  0.00    -0.223 OA
ENDBRANCH   3  17
TORSDOF 2
ENDMDL
MODEL 10
REMARK VINA RESULT:      -5.8     14.607     15.693
REMARK  2 active torsions:
REMARK  status: ('A' for Active; 'I' for Inactive)
REMARK    1  A    between atoms: C_3  and  S_4 
REMARK    2  A    between atoms: C_9  and  N_10 
ROOT
HETATM    1  C   UNL     1      35.639  50.321  42.096  1.00  0.00     0.050 C 
HETATM    2  C   UNL     1      34.253  50.566  41.571  1.00  0.00    -0.039 A 
HETATM    3  C   UNL     1      33.920  51.520  40.596  1.00  0.00     0.067 A 
HETATM    4  C   UNL     1      32.588  51.659  40.152  1.00  0.00     0.055 A 
HETATM    5  C   UNL     1      31.543  50.888  40.683  1.00  0.00     0.053 A 
HETATM    6  C   UNL     1      31.881  49.970  41.700  1.00  0.00     0.061 A 
HETATM    7 CL   UNL     1      30.666  49.030  42.504  1.00  0.00    -0.082 Cl
HETATM    8  C   UNL     1      33.206  49.814  42.130  1.00  0.00     0.034 A 
ENDROOT
BRANCH   5   9
HETATM    9  N   UNL     1      30.218  51.016  40.220  1.00  0.00    -0.376 N 
HETATM   10  C   UNL     1      29.445  52.195  40.657  1.00  0.00     0.150 C 
HETATM   11  C   UNL     1      27.948  51.971  40.351  1.00  0.00     0.252 C 
HETATM   12  N   UNL     1      27.754  51.636  38.889  1.00  0.00    -0.072 N 
HETATM   13  H   UNL     1      27.991  52.456  38.315  1.00  0.00     0.277 HD
HETATM   14  H   UNL     1      26.762  51.429  38.717  1.00  0.00     0.277 HD
HETATM   15  C   UNL     1      28.594  50.457  38.446  1.00  0.00     0.252 C 
HETATM   16  C   UNL     1      30.079  50.702  38.778  1.00  0.00     0.150 C 
ENDBRANCH   5   9
BRANCH   3  17
HETATM   17  S   UNL     1      35.137  52.582  39.817  1.00  0.00     0.172 S 
HETATM   18  C   UNL     1      36.242  51.492  38.961  1.00  0.00     0.167 C 
HETATM   19  O   UNL     1      34.432  53.410  38.862  1.00  0.00    -0.223 OA
HETATM   20  O   UNL     1      35.902  53.192  40.893  1.00  0.00    -0.223 OA
ENDBRANCH   3  17
TORSDOF 2
ENDMDL
