MODEL 1
REMARK VINA RESULT:      -8.7      0.000      0.000
REMARK  4 active torsions:
REMARK  status: ('A' for Active; 'I' for Inactive)
REMARK    1  A    between atoms: C_4  and  C_5 
REMARK    2  A    between atoms: C_6  and  C_7 
REMARK       I    between atoms: C_7  and  N_8 
REMARK    3  A    between atoms: N_8  and  C_9 
REMARK    4  A    between atoms: C_11  and  C_12 
ROOT
HETATM    1  C   UNL     1      28.749  45.617  55.765  1.00  0.00     0.035 A 
HETATM    2  C   UNL     1      28.354  44.595  54.894  1.00  0.00     0.042 A 
HETATM    3  C   UNL     1      29.208  43.519  54.587  1.00  0.00    -0.021 A 
HETATM    4  C   UNL     1      30.494  43.513  55.142  1.00  0.00     0.012 A 
HETATM    5  C   UNL     1      30.917  44.551  55.973  1.00  0.00     0.003 A 
HETATM    6  C   UNL     1      30.049  45.599  56.277  1.00  0.00     0.029 A 
ENDROOT
BRANCH   1   7
HETATM    7  N   UNL     1      27.941  46.710  56.135  1.00  0.00    -0.324 N 
HETATM    8  C   UNL     1      27.241  47.640  55.418  1.00  0.00     0.245 C 
HETATM    9  O   UNL     1      26.795  48.634  55.991  1.00  0.00    -0.268 OA
HETATM   10  H   UNL     1      27.865  46.893  57.129  1.00  0.00     0.169 HD
BRANCH   8  11
HETATM   11  C   UNL     1      26.959  47.403  53.988  1.00  0.00     0.077 C 
HETATM   12  C   UNL     1      25.750  46.958  53.616  1.00  0.00     0.042 C 
BRANCH  12  13
HETATM   13  C   UNL     1      25.448  46.762  52.242  1.00  0.00     0.075 A 
HETATM   14  O   UNL     1      24.849  47.714  51.442  1.00  0.00    -0.316 OA
HETATM   15  C   UNL     1      24.677  47.190  50.201  1.00  0.00     0.050 A 
HETATM   16  C   UNL     1      24.034  48.066  49.203  1.00  0.00     0.076 C 
HETATM   17  C   UNL     1      25.165  45.907  50.159  1.00  0.00     0.035 A 
HETATM   18  C   UNL     1      25.650  45.632  51.461  1.00  0.00     0.039 A 
ENDBRANCH  12  13
ENDBRANCH   8  11
ENDBRANCH   1   7
BRANCH   3  19
HETATM   19  C   UNL     1      28.777  42.428  53.719  1.00  0.00     0.010 A 
HETATM   20  C   UNL     1      29.444  41.774  52.650  1.00  0.00     0.152 A 
HETATM   21  N   UNL     1      28.718  40.799  52.096  1.00  0.00    -0.187 NA
HETATM   22  N   UNL     1      27.581  40.816  52.806  1.00  0.00    -0.289 N 
HETATM   23  H   UNL     1      26.854  40.150  52.568  1.00  0.00     0.188 HD
HETATM   24  C   UNL     1      27.568  41.765  53.789  1.00  0.00     0.123 A 
ENDBRANCH   3  19
TORSDOF 4
ENDMDL
MODEL 2
REMARK VINA RESULT:      -8.7      2.570      4.066
REMARK  4 active torsions:
REMARK  status: ('A' for Active; 'I' for Inactive)
REMARK    1  A    between atoms: C_4  and  C_5 
REMARK    2  A    between atoms: C_6  and  C_7 
REMARK       I    between atoms: C_7  and  N_8 
REMARK    3  A    between atoms: N_8  and  C_9 
REMARK    4  A    between atoms: C_11  and  C_12 
ROOT
HETATM    1  C   UNL     1      26.993  44.999  54.168  1.00  0.00     0.035 A 
HETATM    2  C   UNL     1      28.087  44.423  54.823  1.00  0.00     0.042 A 
HETATM    3  C   UNL     1      29.024  45.208  55.522  1.00  0.00    -0.021 A 
HETATM    4  C   UNL     1      28.862  46.599  55.513  1.00  0.00     0.012 A 
HETATM    5  C   UNL     1      27.803  47.189  54.823  1.00  0.00     0.003 A 
HETATM    6  C   UNL     1      26.878  46.392  54.151  1.00  0.00     0.029 A 
ENDROOT
BRANCH   1   7
HETATM    7  N   UNL     1      26.006  44.276  53.470  1.00  0.00    -0.324 N 
HETATM    8  C   UNL     1      25.311  44.516  52.319  1.00  0.00     0.245 C 
HETATM    9  O   UNL     1      24.334  43.819  52.046  1.00  0.00    -0.268 OA
HETATM   10  H   UNL     1      25.703  43.409  53.898  1.00  0.00     0.169 HD
BRANCH   8  11
HETATM   11  C   UNL     1      25.786  45.550  51.377  1.00  0.00     0.077 C 
HETATM   12  C   UNL     1      24.992  46.587  51.075  1.00  0.00     0.042 C 
BRANCH  12  13
HETATM   13  C   UNL     1      25.448  47.611  50.203  1.00  0.00     0.075 A 
HETATM   14  O   UNL     1      24.612  48.476  49.528  1.00  0.00    -0.316 OA
HETATM   15  C   UNL     1      25.370  49.301  48.760  1.00  0.00     0.050 A 
HETATM   16  C   UNL     1      24.642  50.297  47.951  1.00  0.00     0.076 C 
HETATM   17  C   UNL     1      26.702  49.006  48.924  1.00  0.00     0.035 A 
HETATM   18  C   UNL     1      26.751  47.924  49.837  1.00  0.00     0.039 A 
ENDBRANCH  12  13
ENDBRANCH   8  11
ENDBRANCH   1   7
BRANCH   3  19
HETATM   19  C   UNL     1      30.136  44.601  56.247  1.00  0.00     0.010 A 
HETATM   20  C   UNL     1      30.719  44.933  57.497  1.00  0.00     0.152 A 
HETATM   21  N   UNL     1      31.727  44.126  57.838  1.00  0.00    -0.187 NA
HETATM   22  N   UNL     1      31.799  43.268  56.810  1.00  0.00    -0.289 N 
HETATM   23  H   UNL     1      32.506  42.541  56.838  1.00  0.00     0.188 HD
HETATM   24  C   UNL     1      30.869  43.505  55.839  1.00  0.00     0.123 A 
ENDBRANCH   3  19
TORSDOF 4
ENDMDL
MODEL 3
REMARK VINA RESULT:      -8.4      3.606      7.529
REMARK  4 active torsions:
REMARK  status: ('A' for Active; 'I' for Inactive)
REMARK    1  A    between atoms: C_4  and  C_5 
REMARK    2  A    between atoms: C_6  and  C_7 
REMARK       I    between atoms: C_7  and  N_8 
REMARK    3  A    between atoms: N_8  and  C_9 
REMARK    4  A    between atoms: C_11  and  C_12 
ROOT
HETATM    1  C   UNL     1      26.442  44.578  51.360  1.00  0.00     0.035 A 
HETATM    2  C   UNL     1      26.579  45.603  50.416  1.00  0.00     0.042 A 
HETATM    3  C   UNL     1      26.102  46.903  50.667  1.00  0.00    -0.021 A 
HETATM    4  C   UNL     1      25.438  47.145  51.876  1.00  0.00     0.012 A 
HETATM    5  C   UNL     1      25.251  46.120  52.804  1.00  0.00     0.003 A 
HETATM    6  C   UNL     1      25.746  44.844  52.543  1.00  0.00     0.029 A 
ENDROOT
BRANCH   1   7
HETATM    7  N   UNL     1      26.914  43.262  51.188  1.00  0.00    -0.324 N 
HETATM    8  C   UNL     1      28.069  42.629  51.551  1.00  0.00     0.245 C 
HETATM    9  O   UNL     1      28.328  41.524  51.076  1.00  0.00    -0.268 OA
HETATM   10  H   UNL     1      26.313  42.638  50.664  1.00  0.00     0.169 HD
BRANCH   8  11
HETATM   11  C   UNL     1      28.950  43.237  52.568  1.00  0.00     0.077 C 
HETATM   12  C   UNL     1      28.570  43.249  53.854  1.00  0.00     0.042 C 
BRANCH  12  13
HETATM   13  C   UNL     1      29.422  43.794  54.851  1.00  0.00     0.075 A 
HETATM   14  O   UNL     1      30.416  43.081  55.488  1.00  0.00    -0.316 OA
HETATM   15  C   UNL     1      31.014  43.890  56.401  1.00  0.00     0.050 A 
HETATM   16  C   UNL     1      32.104  43.291  57.195  1.00  0.00     0.076 C 
HETATM   17  C   UNL     1      30.441  45.138  56.370  1.00  0.00     0.035 A 
HETATM   18  C   UNL     1      29.422  45.075  55.388  1.00  0.00     0.039 A 
ENDBRANCH  12  13
ENDBRANCH   8  11
ENDBRANCH   1   7
BRANCH   3  19
HETATM   19  C   UNL     1      26.291  47.983  49.703  1.00  0.00     0.010 A 
HETATM   20  C   UNL     1      25.352  48.845  49.080  1.00  0.00     0.152 A 
HETATM   21  N   UNL     1      25.917  49.728  48.253  1.00  0.00    -0.187 NA
HETATM   22  N   UNL     1      27.225  49.443  48.340  1.00  0.00    -0.289 N 
HETATM   23  H   UNL     1      27.876  49.993  47.789  1.00  0.00     0.188 HD
HETATM   24  C   UNL     1      27.501  48.415  49.195  1.00  0.00     0.123 A 
ENDBRANCH   3  19
TORSDOF 4
ENDMDL
MODEL 4
REMARK VINA RESULT:      -8.4      2.364      4.391
REMARK  4 active torsions:
REMARK  status: ('A' for Active; 'I' for Inactive)
REMARK    1  A    between atoms: C_4  and  C_5 
REMARK    2  A    between atoms: C_6  and  C_7 
REMARK       I    between atoms: C_7  and  N_8 
REMARK    3  A    between atoms: N_8  and  C_9 
REMARK    4  A    between atoms: C_11  and  C_12 
ROOT
HETATM    1  C   UNL     1      27.494  43.261  53.112  1.00  0.00     0.035 A 
HETATM    2  C   UNL     1      27.782  43.983  54.275  1.00  0.00     0.042 A 
HETATM    3  C   UNL     1      29.105  44.164  54.721  1.00  0.00    -0.021 A 
HETATM    4  C   UNL     1      30.139  43.561  53.994  1.00  0.00     0.012 A 
HETATM    5  C   UNL     1      29.861  42.797  52.860  1.00  0.00     0.003 A 
HETATM    6  C   UNL     1      28.545  42.645  52.426  1.00  0.00     0.029 A 
ENDROOT
BRANCH   1   7
HETATM    7  N   UNL     1      26.199  43.059  52.594  1.00  0.00    -0.324 N 
HETATM    8  C   UNL     1      25.329  43.864  51.915  1.00  0.00     0.245 C 
HETATM    9  O   UNL     1      24.160  43.506  51.774  1.00  0.00    -0.268 OA
HETATM   10  H   UNL     1      25.785  42.151  52.771  1.00  0.00     0.169 HD
BRANCH   8  11
HETATM   11  C   UNL     1      25.817  45.109  51.289  1.00  0.00     0.077 C 
HETATM   12  C   UNL     1      24.984  45.846  50.540  1.00  0.00     0.042 C 
BRANCH  12  13
HETATM   13  C   UNL     1      25.426  47.066  49.963  1.00  0.00     0.075 A 
HETATM   14  O   UNL     1      24.588  47.978  49.356  1.00  0.00    -0.316 OA
HETATM   15  C   UNL     1      25.338  49.009  48.886  1.00  0.00     0.050 A 
HETATM   16  C   UNL     1      24.608  50.087  48.190  1.00  0.00     0.076 C 
HETATM   17  C   UNL     1      26.663  48.803  49.184  1.00  0.00     0.035 A 
HETATM   18  C   UNL     1      26.720  47.561  49.863  1.00  0.00     0.039 A 
ENDBRANCH  12  13
ENDBRANCH   8  11
ENDBRANCH   1   7
BRANCH   3  19
HETATM   19  C   UNL     1      29.407  44.961  55.906  1.00  0.00     0.010 A 
HETATM   20  C   UNL     1      28.586  45.821  56.679  1.00  0.00     0.152 A 
HETATM   21  N   UNL     1      29.228  46.372  57.712  1.00  0.00    -0.187 NA
HETATM   22  N   UNL     1      30.467  45.868  57.614  1.00  0.00    -0.289 N 
HETATM   23  H   UNL     1      31.156  46.146  58.304  1.00  0.00     0.188 HD
HETATM   24  C   UNL     1      30.624  45.017  56.557  1.00  0.00     0.123 A 
ENDBRANCH   3  19
TORSDOF 4
ENDMDL
MODEL 5
REMARK VINA RESULT:      -8.0      2.406      4.741
REMARK  4 active torsions:
REMARK  status: ('A' for Active; 'I' for Inactive)
REMARK    1  A    between atoms: C_4  and  C_5 
REMARK    2  A    between atoms: C_6  and  C_7 
REMARK       I    between atoms: C_7  and  N_8 
REMARK    3  A    between atoms: N_8  and  C_9 
REMARK    4  A    between atoms: C_11  and  C_12 
ROOT
HETATM    1  C   UNL     1      29.419  43.643  54.522  1.00  0.00     0.035 A 
HETATM    2  C   UNL     1      28.392  44.585  54.391  1.00  0.00     0.042 A 
HETATM    3  C   UNL     1      28.403  45.791  55.117  1.00  0.00    -0.021 A 
HETATM    4  C   UNL     1      29.451  46.014  56.019  1.00  0.00     0.012 A 
HETATM    5  C   UNL     1      30.454  45.061  56.195  1.00  0.00     0.003 A 
HETATM    6  C   UNL     1      30.434  43.881  55.454  1.00  0.00     0.029 A 
ENDROOT
BRANCH   1   7
HETATM    7  N   UNL     1      29.486  42.428  53.813  1.00  0.00    -0.324 N 
HETATM    8  C   UNL     1      28.845  41.959  52.701  1.00  0.00     0.245 C 
HETATM    9  O   UNL     1      28.924  40.764  52.417  1.00  0.00    -0.268 OA
HETATM   10  H   UNL     1      30.103  41.721  54.196  1.00  0.00     0.169 HD
BRANCH   8  11
HETATM   11  C   UNL     1      28.138  42.900  51.810  1.00  0.00     0.077 C 
HETATM   12  C   UNL     1      26.818  42.767  51.617  1.00  0.00     0.042 C 
BRANCH  12  13
HETATM   13  C   UNL     1      26.115  43.687  50.795  1.00  0.00     0.075 A 
HETATM   14  O   UNL     1      25.772  44.964  51.188  1.00  0.00    -0.316 OA
HETATM   15  C   UNL     1      25.082  45.557  50.180  1.00  0.00     0.050 A 
HETATM   16  C   UNL     1      24.619  46.937  50.425  1.00  0.00     0.076 C 
HETATM   17  C   UNL     1      24.973  44.697  49.114  1.00  0.00     0.035 A 
HETATM   18  C   UNL     1      25.624  43.503  49.509  1.00  0.00     0.039 A 
ENDBRANCH  12  13
ENDBRANCH   8  11
ENDBRANCH   1   7
BRANCH   3  19
HETATM   19  C   UNL     1      27.358  46.795  54.941  1.00  0.00     0.010 A 
HETATM   20  C   UNL     1      26.329  46.902  53.971  1.00  0.00     0.152 A 
HETATM   21  N   UNL     1      25.547  47.971  54.149  1.00  0.00    -0.187 NA
HETATM   22  N   UNL     1      26.067  48.558  55.236  1.00  0.00    -0.289 N 
HETATM   23  H   UNL     1      25.635  49.410  55.577  1.00  0.00     0.188 HD
HETATM   24  C   UNL     1      27.144  47.894  55.750  1.00  0.00     0.123 A 
ENDBRANCH   3  19
TORSDOF 4
ENDMDL
MODEL 6
REMARK VINA RESULT:      -7.9      2.511      7.118
REMARK  4 active torsions:
REMARK  status: ('A' for Active; 'I' for Inactive)
REMARK    1  A    between atoms: C_4  and  C_5 
REMARK    2  A    between atoms: C_6  and  C_7 
REMARK       I    between atoms: C_7  and  N_8 
REMARK    3  A    between atoms: N_8  and  C_9 
REMARK    4  A    between atoms: C_11  and  C_12 
ROOT
HETATM    1  C   UNL     1      26.936  43.544  52.072  1.00  0.00     0.035 A 
HETATM    2  C   UNL     1      27.107  44.527  53.053  1.00  0.00     0.042 A 
HETATM    3  C   UNL     1      26.360  45.720  53.038  1.00  0.00    -0.021 A 
HETATM    4  C   UNL     1      25.463  45.929  51.983  1.00  0.00     0.012 A 
HETATM    5  C   UNL     1      25.320  44.978  50.971  1.00  0.00     0.003 A 
HETATM    6  C   UNL     1      26.057  43.796  51.015  1.00  0.00     0.029 A 
ENDROOT
BRANCH   1   7
HETATM    7  N   UNL     1      27.631  42.319  52.037  1.00  0.00    -0.324 N 
HETATM    8  C   UNL     1      28.642  41.796  52.792  1.00  0.00     0.245 C 
HETATM    9  O   UNL     1      29.224  40.784  52.404  1.00  0.00    -0.268 OA
HETATM   10  H   UNL     1      27.375  41.683  51.291  1.00  0.00     0.169 HD
BRANCH   8  11
HETATM   11  C   UNL     1      28.969  42.400  54.099  1.00  0.00     0.077 C 
HETATM   12  C   UNL     1      30.202  42.879  54.320  1.00  0.00     0.042 C 
BRANCH  12  13
HETATM   13  C   UNL     1      30.522  43.499  55.557  1.00  0.00     0.075 A 
HETATM   14  O   UNL     1      29.917  44.648  56.021  1.00  0.00    -0.316 OA
HETATM   15  C   UNL     1      30.479  44.983  57.211  1.00  0.00     0.050 A 
HETATM   16  C   UNL     1      29.963  46.204  57.860  1.00  0.00     0.076 C 
HETATM   17  C   UNL     1      31.442  44.065  57.553  1.00  0.00     0.035 A 
HETATM   18  C   UNL     1      31.474  43.123  56.496  1.00  0.00     0.039 A 
ENDBRANCH  12  13
ENDBRANCH   8  11
ENDBRANCH   1   7
BRANCH   3  19
HETATM   19  C   UNL     1      26.502  46.722  54.090  1.00  0.00     0.010 A 
HETATM   20  C   UNL     1      27.408  46.800  55.179  1.00  0.00     0.152 A 
HETATM   21  N   UNL     1      27.233  47.890  55.931  1.00  0.00    -0.187 NA
HETATM   22  N   UNL     1      26.215  48.523  55.330  1.00  0.00    -0.289 N 
HETATM   23  H   UNL     1      25.890  49.399  55.726  1.00  0.00     0.188 HD
HETATM   24  C   UNL     1      25.747  47.871  54.225  1.00  0.00     0.123 A 
ENDBRANCH   3  19
TORSDOF 4
ENDMDL
MODEL 7
REMARK VINA RESULT:      -7.9      1.896      5.525
REMARK  4 active torsions:
REMARK  status: ('A' for Active; 'I' for Inactive)
REMARK    1  A    between atoms: C_4  and  C_5 
REMARK    2  A    between atoms: C_6  and  C_7 
REMARK       I    between atoms: C_7  and  N_8 
REMARK    3  A    between atoms: N_8  and  C_9 
REMARK    4  A    between atoms: C_11  and  C_12 
ROOT
HETATM    1  C   UNL     1      26.164  46.086  51.867  1.00  0.00     0.035 A 
HETATM    2  C   UNL     1      26.686  44.840  52.233  1.00  0.00     0.042 A 
HETATM    3  C   UNL     1      26.938  43.838  51.277  1.00  0.00    -0.021 A 
HETATM    4  C   UNL     1      26.611  44.098  49.941  1.00  0.00     0.012 A 
HETATM    5  C   UNL     1      26.044  45.318  49.570  1.00  0.00     0.003 A 
HETATM    6  C   UNL     1      25.818  46.302  50.530  1.00  0.00     0.029 A 
ENDROOT
BRANCH   1   7
HETATM    7  N   UNL     1      25.908  47.142  52.764  1.00  0.00    -0.324 N 
HETATM    8  C   UNL     1      26.113  47.298  54.105  1.00  0.00     0.245 C 
HETATM    9  O   UNL     1      25.587  48.245  54.690  1.00  0.00    -0.268 OA
HETATM   10  H   UNL     1      25.449  47.957  52.373  1.00  0.00     0.169 HD
BRANCH   8  11
HETATM   11  C   UNL     1      27.026  46.384  54.819  1.00  0.00     0.077 C 
HETATM   12  C   UNL     1      28.343  46.636  54.831  1.00  0.00     0.042 C 
BRANCH  12  13
HETATM   13  C   UNL     1      29.230  45.789  55.546  1.00  0.00     0.075 A 
HETATM   14  O   UNL     1      29.652  46.030  56.837  1.00  0.00    -0.316 OA
HETATM   15  C   UNL     1      30.516  45.046  57.201  1.00  0.00     0.050 A 
HETATM   16  C   UNL     1      31.085  45.143  58.559  1.00  0.00     0.076 C 
HETATM   17  C   UNL     1      30.664  44.145  56.175  1.00  0.00     0.035 A 
HETATM   18  C   UNL     1      29.851  44.622  55.118  1.00  0.00     0.039 A 
ENDBRANCH  12  13
ENDBRANCH   8  11
ENDBRANCH   1   7
BRANCH   3  19
HETATM   19  C   UNL     1      27.530  42.558  51.654  1.00  0.00     0.010 A 
HETATM   20  C   UNL     1      28.563  42.250  52.576  1.00  0.00     0.152 A 
HETATM   21  N   UNL     1      28.823  40.942  52.657  1.00  0.00    -0.187 NA
HETATM   22  N   UNL     1      27.957  40.399  51.788  1.00  0.00    -0.289 N 
HETATM   23  H   UNL     1      27.962  39.391  51.669  1.00  0.00     0.188 HD
HETATM   24  C   UNL     1      27.161  41.319  51.169  1.00  0.00     0.123 A 
ENDBRANCH   3  19
TORSDOF 4
ENDMDL
MODEL 8
REMARK VINA RESULT:      -7.8      3.514      6.746
REMARK  4 active torsions:
REMARK  status: ('A' for Active; 'I' for Inactive)
REMARK    1  A    between atoms: C_4  and  C_5 
REMARK    2  A    between atoms: C_6  and  C_7 
REMARK       I    between atoms: C_7  and  N_8 
REMARK    3  A    between atoms: N_8  and  C_9 
REMARK    4  A    between atoms: C_11  and  C_12 
ROOT
HETATM    1  C   UNL     1      25.601  47.621  49.964  1.00  0.00     0.035 A 
HETATM    2  C   UNL     1      26.192  47.540  51.230  1.00  0.00     0.042 A 
HETATM    3  C   UNL     1      25.948  46.452  52.088  1.00  0.00    -0.021 A 
HETATM    4  C   UNL     1      25.055  45.459  51.665  1.00  0.00     0.012 A 
HETATM    5  C   UNL     1      24.422  45.553  50.425  1.00  0.00     0.003 A 
HETATM    6  C   UNL     1      24.691  46.630  49.583  1.00  0.00     0.029 A 
ENDROOT
BRANCH   1   7
HETATM    7  N   UNL     1      25.817  48.666  49.045  1.00  0.00    -0.324 N 
HETATM    8  C   UNL     1      24.985  49.570  48.445  1.00  0.00     0.245 C 
HETATM    9  O   UNL     1      25.402  50.239  47.500  1.00  0.00    -0.268 OA
HETATM   10  H   UNL     1      26.768  48.781  48.715  1.00  0.00     0.169 HD
BRANCH   8  11
HETATM   11  C   UNL     1      23.630  49.791  48.987  1.00  0.00     0.077 C 
HETATM   12  C   UNL     1      22.750  50.527  48.292  1.00  0.00     0.042 C 
BRANCH  12  13
HETATM   13  C   UNL     1      21.429  50.717  48.779  1.00  0.00     0.075 A 
HETATM   14  O   UNL     1      20.799  49.854  49.651  1.00  0.00    -0.316 OA
HETATM   15  C   UNL     1      19.542  50.314  49.884  1.00  0.00     0.050 A 
HETATM   16  C   UNL     1      18.706  49.507  50.793  1.00  0.00     0.076 C 
HETATM   17  C   UNL     1      19.331  51.481  49.190  1.00  0.00     0.035 A 
HETATM   18  C   UNL     1      20.531  51.733  48.480  1.00  0.00     0.039 A 
ENDBRANCH  12  13
ENDBRANCH   8  11
ENDBRANCH   1   7
BRANCH   3  19
HETATM   19  C   UNL     1      26.604  46.344  53.388  1.00  0.00     0.010 A 
HETATM   20  C   UNL     1      27.212  45.235  54.030  1.00  0.00     0.152 A 
HETATM   21  N   UNL     1      27.724  45.536  55.226  1.00  0.00    -0.187 NA
HETATM   22  N   UNL     1      27.451  46.842  55.362  1.00  0.00    -0.289 N 
HETATM   23  H   UNL     1      27.748  47.311  56.211  1.00  0.00     0.188 HD
HETATM   24  C   UNL     1      26.790  47.372  54.291  1.00  0.00     0.123 A 
ENDBRANCH   3  19
TORSDOF 4
ENDMDL
MODEL 9
REMARK VINA RESULT:      -7.8      5.393      9.674
REMARK  4 active torsions:
REMARK  status: ('A' for Active; 'I' for Inactive)
REMARK    1  A    between atoms: C_4  and  C_5 
REMARK    2  A    between atoms: C_6  and  C_7 
REMARK       I    between atoms: C_7  and  N_8 
REMARK    3  A    between atoms: N_8  and  C_9 
REMARK    4  A    between atoms: C_11  and  C_12 
ROOT
HETATM    1  C   UNL     1      21.845  49.917  48.318  1.00  0.00     0.035 A 
HETATM    2  C   UNL     1      20.959  48.838  48.220  1.00  0.00     0.042 A 
HETATM    3  C   UNL     1      19.743  48.817  48.928  1.00  0.00    -0.021 A 
HETATM    4  C   UNL     1      19.451  49.891  49.779  1.00  0.00     0.012 A 
HETATM    5  C   UNL     1      20.349  50.949  49.924  1.00  0.00     0.003 A 
HETATM    6  C   UNL     1      21.540  50.958  49.200  1.00  0.00     0.029 A 
ENDROOT
BRANCH   1   7
HETATM    7  N   UNL     1      23.066  50.017  47.623  1.00  0.00    -0.324 N 
HETATM    8  C   UNL     1      24.368  49.827  47.989  1.00  0.00     0.245 C 
HETATM    9  O   UNL     1      25.268  50.202  47.238  1.00  0.00    -0.268 OA
HETATM   10  H   UNL     1      23.006  50.319  46.657  1.00  0.00     0.169 HD
BRANCH   8  11
HETATM   11  C   UNL     1      24.680  49.104  49.238  1.00  0.00     0.077 C 
HETATM   12  C   UNL     1      24.408  47.794  49.332  1.00  0.00     0.042 C 
BRANCH  12  13
HETATM   13  C   UNL     1      24.738  47.074  50.511  1.00  0.00     0.075 A 
HETATM   14  O   UNL     1      25.288  47.652  51.637  1.00  0.00    -0.316 OA
HETATM   15  C   UNL     1      25.507  46.679  52.559  1.00  0.00     0.050 A 
HETATM   16  C   UNL     1      26.108  47.110  53.837  1.00  0.00     0.076 C 
HETATM   17  C   UNL     1      25.097  45.463  52.069  1.00  0.00     0.035 A 
HETATM   18  C   UNL     1      24.614  45.714  50.762  1.00  0.00     0.039 A 
ENDBRANCH  12  13
ENDBRANCH   8  11
ENDBRANCH   1   7
BRANCH   3  19
HETATM   19  C   UNL     1      18.797  47.714  48.786  1.00  0.00     0.010 A 
HETATM   20  C   UNL     1      17.380  47.696  48.842  1.00  0.00     0.152 A 
HETATM   21  N   UNL     1      16.862  46.479  48.649  1.00  0.00    -0.187 NA
HETATM   22  N   UNL     1      17.943  45.707  48.465  1.00  0.00    -0.289 N 
HETATM   23  H   UNL     1      17.804  44.717  48.296  1.00  0.00     0.188 HD
HETATM   24  C   UNL     1      19.120  46.396  48.531  1.00  0.00     0.123 A 
ENDBRANCH   3  19
TORSDOF 4
ENDMDL
MODEL 10
REMARK VINA RESULT:      -7.6      4.883      9.469
REMARK  4 active torsions:
REMARK  status: ('A' for Active; 'I' for Inactive)
REMARK    1  A    between atoms: C_4  and  C_5 
REMARK    2  A    between atoms: C_6  and  C_7 
REMARK       I    between atoms: C_7  and  N_8 
REMARK    3  A    between atoms: N_8  and  C_9 
REMARK    4  A    between atoms: C_11  and  C_12 
ROOT
HETATM    1  C   UNL     1      23.264  48.314  49.017  1.00  0.00     0.035 A 
HETATM    2  C   UNL     1      22.042  48.967  49.218  1.00  0.00     0.042 A 
HETATM    3  C   UNL     1      21.919  50.361  49.068  1.00  0.00    -0.021 A 
HETATM    4  C   UNL     1      23.067  51.099  48.755  1.00  0.00     0.012 A 
HETATM    5  C   UNL     1      24.301  50.466  48.601  1.00  0.00     0.003 A 
HETATM    6  C   UNL     1      24.398  49.082  48.736  1.00  0.00     0.029 A 
ENDROOT
BRANCH   1   7
HETATM    7  N   UNL     1      23.456  46.923  49.126  1.00  0.00    -0.324 N 
HETATM    8  C   UNL     1      24.240  46.148  49.933  1.00  0.00     0.245 C 
HETATM    9  O   UNL     1      24.388  44.956  49.667  1.00  0.00    -0.268 OA
HETATM   10  H   UNL     1      22.947  46.349  48.463  1.00  0.00     0.169 HD
BRANCH   8  11
HETATM   11  C   UNL     1      24.831  46.728  51.156  1.00  0.00     0.077 C 
HETATM   12  C   UNL     1      25.464  45.931  52.029  1.00  0.00     0.042 C 
BRANCH  12  13
HETATM   13  C   UNL     1      26.071  46.476  53.191  1.00  0.00     0.075 A 
HETATM   14  O   UNL     1      25.626  47.615  53.830  1.00  0.00    -0.316 OA
HETATM   15  C   UNL     1      26.450  47.873  54.879  1.00  0.00     0.050 A 
HETATM   16  C   UNL     1      26.133  49.071  55.682  1.00  0.00     0.076 C 
HETATM   17  C   UNL     1      27.430  46.914  54.956  1.00  0.00     0.035 A 
HETATM   18  C   UNL     1      27.194  46.029  53.876  1.00  0.00     0.039 A 
ENDBRANCH  12  13
ENDBRANCH   8  11
ENDBRANCH   1   7
BRANCH   3  19
HETATM   19  C   UNL     1      20.634  51.034  49.228  1.00  0.00     0.010 A 
HETATM   20  C   UNL     1      19.986  52.001  48.417  1.00  0.00     0.152 A 
HETATM   21  N   UNL     1      18.796  52.375  48.893  1.00  0.00    -0.187 NA
HETATM   22  N   UNL     1      18.668  51.649  50.014  1.00  0.00    -0.289 N 
HETATM   23  H   UNL     1      17.824  51.761  50.566  1.00  0.00     0.188 HD
HETATM   24  C   UNL     1      19.733  50.830  50.256  1.00  0.00     0.123 A 
ENDBRANCH   3  19
TORSDOF 4
ENDMDL
