MODEL 1
REMARK VINA RESULT:      -8.2      0.000      0.000
REMARK  4 active torsions:
REMARK  status: ('A' for Active; 'I' for Inactive)
REMARK    1  A    between atoms: C_8  and  N_9 
REMARK    2  A    between atoms: C_11  and  C_12 
REMARK    3  A    between atoms: C_13  and  O_14 
REMARK    4  A    between atoms: O_14  and  C_15 
ROOT
HETATM    1  C   UNL     1      26.422  49.708  48.750  1.00  0.00     0.002 A 
HETATM    2  C   UNL     1      25.160  49.103  48.743  1.00  0.00     0.034 A 
HETATM    3  C   UNL     1      25.022  47.825  49.302  1.00  0.00     0.103 A 
HETATM    4  C   UNL     1      26.136  47.194  49.850  1.00  0.00     0.083 A 
HETATM    5  N   UNL     1      25.627  46.009  50.309  1.00  0.00    -0.151 N 
HETATM    6  C   UNL     1      24.295  45.921  49.995  1.00  0.00     0.734 A 
HETATM    7  N   UNL     1      23.546  44.831  50.273  1.00  0.00    -0.033 NA
HETATM    8  C   UNL     1      24.101  43.820  50.836  1.00  0.00     0.193 A 
HETATM    9  N   UNL     1      25.445  43.763  51.213  1.00  0.00    -0.338 N 
HETATM   10  C   UNL     1      26.304  44.921  50.982  1.00  0.00     0.246 A 
HETATM   11  N   UNL     1      23.908  47.032  49.408  1.00  0.00    -0.060 NA
HETATM   12  C   UNL     1      27.407  47.776  49.867  1.00  0.00     0.033 A 
HETATM   13  C   UNL     1      27.524  49.052  49.303  1.00  0.00     0.002 A 
HETATM   14  H   UNL     1      25.844  42.914  51.594  1.00  0.00     0.164 HD
ENDROOT
BRANCH  10  15
HETATM   15  C   UNL     1      26.882  45.310  52.336  1.00  0.00     0.020 A 
HETATM   16  C   UNL     1      27.884  44.517  52.929  1.00  0.00     0.085 A 
HETATM   17  C   UNL     1      28.451  44.860  54.160  1.00  0.00     0.039 A 
HETATM   18  C   UNL     1      27.979  45.973  54.853  1.00  0.00     0.022 A 
HETATM   19  C   UNL     1      26.950  46.738  54.311  1.00  0.00     0.011 A 
HETATM   20 BR   UNL     1      26.302  48.240  55.256  1.00  0.00    -0.051 Br
HETATM   21  C   UNL     1      26.398  46.411  53.070  1.00  0.00     0.033 A 
BRANCH  16  22
HETATM   22  O   UNL     1      28.357  43.422  52.254  1.00  0.00    -0.289 OA
BRANCH  22  23
HETATM   23  C   UNL     1      29.330  42.726  53.032  1.00  0.00     0.505 C 
HETATM   24  F   UNL     1      29.201  41.396  52.753  1.00  0.00    -0.184 F 
HETATM   25  F   UNL     1      30.547  43.088  52.563  1.00  0.00    -0.184 F 
ENDBRANCH  22  23
ENDBRANCH  16  22
ENDBRANCH  10  15
BRANCH   8  26
HETATM   26  N   UNL     1      23.435  42.684  51.125  1.00  0.00    -0.272 NA
HETATM   27  H   UNL     1      24.063  41.884  51.159  1.00  0.00     0.127 HD
HETATM   28  H   UNL     1      22.604  42.487  50.585  1.00  0.00     0.127 HD
ENDBRANCH   8  26
TORSDOF 4
ENDMDL
MODEL 2
REMARK VINA RESULT:      -8.1      7.244      9.063
REMARK  4 active torsions:
REMARK  status: ('A' for Active; 'I' for Inactive)
REMARK    1  A    between atoms: C_8  and  N_9 
REMARK    2  A    between atoms: C_11  and  C_12 
REMARK    3  A    between atoms: C_13  and  O_14 
REMARK    4  A    between atoms: O_14  and  C_15 
ROOT
HETATM    1  C   UNL     1      17.943  51.146  45.007  1.00  0.00     0.002 A 
HETATM    2  C   UNL     1      17.972  51.764  46.262  1.00  0.00     0.034 A 
HETATM    3  C   UNL     1      18.165  50.969  47.400  1.00  0.00     0.103 A 
HETATM    4  C   UNL     1      18.327  49.595  47.255  1.00  0.00     0.083 A 
HETATM    5  N   UNL     1      18.512  49.165  48.541  1.00  0.00    -0.151 N 
HETATM    6  C   UNL     1      18.406  50.225  49.406  1.00  0.00     0.734 A 
HETATM    7  N   UNL     1      18.485  50.089  50.748  1.00  0.00    -0.033 NA
HETATM    8  C   UNL     1      18.645  48.917  51.247  1.00  0.00     0.193 A 
HETATM    9  N   UNL     1      18.768  47.746  50.496  1.00  0.00    -0.338 N 
HETATM   10  C   UNL     1      18.735  47.824  49.038  1.00  0.00     0.246 A 
HETATM   11  N   UNL     1      18.224  51.333  48.721  1.00  0.00    -0.060 NA
HETATM   12  C   UNL     1      18.300  48.953  46.012  1.00  0.00     0.033 A 
HETATM   13  C   UNL     1      18.104  49.764  44.888  1.00  0.00     0.002 A 
HETATM   14  H   UNL     1      18.827  46.841  50.945  1.00  0.00     0.164 HD
ENDROOT
BRANCH  10  15
HETATM   15  C   UNL     1      20.031  47.200  48.540  1.00  0.00     0.020 A 
HETATM   16  C   UNL     1      21.258  47.861  48.745  1.00  0.00     0.085 A 
HETATM   17  C   UNL     1      22.467  47.302  48.321  1.00  0.00     0.039 A 
HETATM   18  C   UNL     1      22.465  46.096  47.624  1.00  0.00     0.022 A 
HETATM   19  C   UNL     1      21.258  45.453  47.362  1.00  0.00     0.011 A 
HETATM   20 BR   UNL     1      21.254  43.823  46.407  1.00  0.00    -0.051 Br
HETATM   21  C   UNL     1      20.050  45.997  47.805  1.00  0.00     0.033 A 
BRANCH  16  22
HETATM   22  O   UNL     1      21.271  49.047  49.432  1.00  0.00    -0.289 OA
BRANCH  22  23
HETATM   23  C   UNL     1      22.128  49.995  48.796  1.00  0.00     0.505 C 
HETATM   24  F   UNL     1      21.428  50.552  47.766  1.00  0.00    -0.184 F 
HETATM   25  F   UNL     1      22.344  50.993  49.683  1.00  0.00    -0.184 F 
ENDBRANCH  22  23
ENDBRANCH  16  22
ENDBRANCH  10  15
BRANCH   8  26
HETATM   26  N   UNL     1      18.708  48.688  52.574  1.00  0.00    -0.272 NA
HETATM   27  H   UNL     1      17.923  48.124  52.891  1.00  0.00     0.127 HD
HETATM   28  H   UNL     1      18.864  49.486  53.173  1.00  0.00     0.127 HD
ENDBRANCH   8  26
TORSDOF 4
ENDMDL
MODEL 3
REMARK VINA RESULT:      -7.8      8.198     10.459
REMARK  4 active torsions:
REMARK  status: ('A' for Active; 'I' for Inactive)
REMARK    1  A    between atoms: C_8  and  N_9 
REMARK    2  A    between atoms: C_11  and  C_12 
REMARK    3  A    between atoms: C_13  and  O_14 
REMARK    4  A    between atoms: O_14  and  C_15 
ROOT
HETATM    1  C   UNL     1      23.782  50.318  48.593  1.00  0.00     0.002 A 
HETATM    2  C   UNL     1      23.536  48.953  48.405  1.00  0.00     0.034 A 
HETATM    3  C   UNL     1      22.209  48.504  48.390  1.00  0.00     0.103 A 
HETATM    4  C   UNL     1      21.174  49.420  48.556  1.00  0.00     0.083 A 
HETATM    5  N   UNL     1      20.052  48.642  48.461  1.00  0.00    -0.151 N 
HETATM    6  C   UNL     1      20.408  47.327  48.306  1.00  0.00     0.734 A 
HETATM    7  N   UNL     1      19.504  46.324  48.245  1.00  0.00    -0.033 NA
HETATM    8  C   UNL     1      18.256  46.601  48.358  1.00  0.00     0.193 A 
HETATM    9  N   UNL     1      17.744  47.890  48.522  1.00  0.00    -0.338 N 
HETATM   10  C   UNL     1      18.660  49.027  48.552  1.00  0.00     0.246 A 
HETATM   11  N   UNL     1      21.718  47.233  48.231  1.00  0.00    -0.060 NA
HETATM   12  C   UNL     1      21.394  50.788  48.747  1.00  0.00     0.033 A 
HETATM   13  C   UNL     1      22.726  51.217  48.761  1.00  0.00     0.002 A 
HETATM   14  H   UNL     1      16.754  48.043  48.671  1.00  0.00     0.164 HD
ENDROOT
BRANCH  10  15
HETATM   15  C   UNL     1      18.216  49.972  47.444  1.00  0.00     0.020 A 
HETATM   16  C   UNL     1      17.435  51.103  47.752  1.00  0.00     0.085 A 
HETATM   17  C   UNL     1      17.032  52.002  46.761  1.00  0.00     0.039 A 
HETATM   18  C   UNL     1      17.352  51.751  45.428  1.00  0.00     0.022 A 
HETATM   19  C   UNL     1      18.076  50.610  45.096  1.00  0.00     0.011 A 
HETATM   20 BR   UNL     1      18.499  50.263  43.287  1.00  0.00    -0.051 Br
HETATM   21  C   UNL     1      18.500  49.722  46.087  1.00  0.00     0.033 A 
BRANCH  16  22
HETATM   22  O   UNL     1      17.117  51.360  49.060  1.00  0.00    -0.289 OA
BRANCH  22  23
HETATM   23  C   UNL     1      17.682  52.599  49.488  1.00  0.00     0.505 C 
HETATM   24  F   UNL     1      16.806  53.167  50.365  1.00  0.00    -0.184 F 
HETATM   25  F   UNL     1      18.790  52.303  50.206  1.00  0.00    -0.184 F 
ENDBRANCH  22  23
ENDBRANCH  16  22
ENDBRANCH  10  15
BRANCH   8  26
HETATM   26  N   UNL     1      17.291  45.661  48.335  1.00  0.00    -0.272 NA
HETATM   27  H   UNL     1      17.585  44.839  47.812  1.00  0.00     0.127 HD
HETATM   28  H   UNL     1      16.362  45.960  48.073  1.00  0.00     0.127 HD
ENDBRANCH   8  26
TORSDOF 4
ENDMDL
MODEL 4
REMARK VINA RESULT:      -7.7      7.074      8.897
REMARK  4 active torsions:
REMARK  status: ('A' for Active; 'I' for Inactive)
REMARK    1  A    between atoms: C_8  and  N_9 
REMARK    2  A    between atoms: C_11  and  C_12 
REMARK    3  A    between atoms: C_13  and  O_14 
REMARK    4  A    between atoms: O_14  and  C_15 
ROOT
HETATM    1  C   UNL     1      18.048  50.865  44.981  1.00  0.00     0.002 A 
HETATM    2  C   UNL     1      17.937  51.519  46.213  1.00  0.00     0.034 A 
HETATM    3  C   UNL     1      18.143  50.783  47.387  1.00  0.00     0.103 A 
HETATM    4  C   UNL     1      18.455  49.429  47.300  1.00  0.00     0.083 A 
HETATM    5  N   UNL     1      18.607  49.060  48.610  1.00  0.00    -0.151 N 
HETATM    6  C   UNL     1      18.339  50.127  49.429  1.00  0.00     0.734 A 
HETATM    7  N   UNL     1      18.352  50.039  50.777  1.00  0.00    -0.033 NA
HETATM    8  C   UNL     1      18.602  48.906  51.326  1.00  0.00     0.193 A 
HETATM    9  N   UNL     1      18.891  47.733  50.624  1.00  0.00    -0.338 N 
HETATM   10  C   UNL     1      18.938  47.765  49.164  1.00  0.00     0.246 A 
HETATM   11  N   UNL     1      18.085  51.189  48.696  1.00  0.00    -0.060 NA
HETATM   12  C   UNL     1      18.570  48.752  46.082  1.00  0.00     0.033 A 
HETATM   13  C   UNL     1      18.359  49.505  44.920  1.00  0.00     0.002 A 
HETATM   14  H   UNL     1      19.016  46.853  51.108  1.00  0.00     0.164 HD
ENDROOT
BRANCH  10  15
HETATM   15  C   UNL     1      20.319  47.267  48.763  1.00  0.00     0.020 A 
HETATM   16  C   UNL     1      20.489  45.942  48.316  1.00  0.00     0.085 A 
HETATM   17  C   UNL     1      21.740  45.462  47.918  1.00  0.00     0.039 A 
HETATM   18  C   UNL     1      22.861  46.284  48.021  1.00  0.00     0.022 A 
HETATM   19  C   UNL     1      22.724  47.578  48.514  1.00  0.00     0.011 A 
HETATM   20 BR   UNL     1      24.245  48.688  48.666  1.00  0.00    -0.051 Br
HETATM   21  C   UNL     1      21.471  48.068  48.890  1.00  0.00     0.033 A 
BRANCH  16  22
HETATM   22  O   UNL     1      19.393  45.127  48.208  1.00  0.00    -0.289 OA
BRANCH  22  23
HETATM   23  C   UNL     1      19.017  44.956  46.842  1.00  0.00     0.505 C 
HETATM   24  F   UNL     1      19.097  43.624  46.559  1.00  0.00    -0.184 F 
HETATM   25  F   UNL     1      17.706  45.279  46.747  1.00  0.00    -0.184 F 
ENDBRANCH  22  23
ENDBRANCH  16  22
ENDBRANCH  10  15
BRANCH   8  26
HETATM   26  N   UNL     1      18.609  48.723  52.661  1.00  0.00    -0.272 NA
HETATM   27  H   UNL     1      19.136  49.454  53.133  1.00  0.00     0.127 HD
HETATM   28  H   UNL     1      18.856  47.803  52.999  1.00  0.00     0.127 HD
ENDBRANCH   8  26
TORSDOF 4
ENDMDL
MODEL 5
REMARK VINA RESULT:      -7.6      4.039      6.173
REMARK  4 active torsions:
REMARK  status: ('A' for Active; 'I' for Inactive)
REMARK    1  A    between atoms: C_8  and  N_9 
REMARK    2  A    between atoms: C_11  and  C_12 
REMARK    3  A    between atoms: C_13  and  O_14 
REMARK    4  A    between atoms: O_14  and  C_15 
ROOT
HETATM    1  C   UNL     1      27.500  46.353  54.792  1.00  0.00     0.002 A 
HETATM    2  C   UNL     1      27.823  45.226  54.028  1.00  0.00     0.034 A 
HETATM    3  C   UNL     1      27.085  44.966  52.865  1.00  0.00     0.103 A 
HETATM    4  C   UNL     1      26.059  45.832  52.498  1.00  0.00     0.083 A 
HETATM    5  N   UNL     1      25.596  45.288  51.330  1.00  0.00    -0.151 N 
HETATM    6  C   UNL     1      26.274  44.129  51.055  1.00  0.00     0.734 A 
HETATM    7  N   UNL     1      25.987  43.344  49.993  1.00  0.00    -0.033 NA
HETATM    8  C   UNL     1      25.023  43.678  49.214  1.00  0.00     0.193 A 
HETATM    9  N   UNL     1      24.243  44.826  49.367  1.00  0.00    -0.338 N 
HETATM   10  C   UNL     1      24.526  45.743  50.468  1.00  0.00     0.246 A 
HETATM   11  N   UNL     1      27.204  43.937  51.965  1.00  0.00    -0.060 NA
HETATM   12  C   UNL     1      25.715  46.964  53.245  1.00  0.00     0.033 A 
HETATM   13  C   UNL     1      26.463  47.205  54.404  1.00  0.00     0.002 A 
HETATM   14  H   UNL     1      23.454  45.006  48.759  1.00  0.00     0.164 HD
ENDROOT
BRANCH  10  15
HETATM   15  C   UNL     1      24.789  47.106  49.842  1.00  0.00     0.020 A 
HETATM   16  C   UNL     1      23.731  47.829  49.255  1.00  0.00     0.085 A 
HETATM   17  C   UNL     1      23.936  49.092  48.694  1.00  0.00     0.039 A 
HETATM   18  C   UNL     1      25.220  49.631  48.652  1.00  0.00     0.022 A 
HETATM   19  C   UNL     1      26.288  48.909  49.176  1.00  0.00     0.011 A 
HETATM   20 BR   UNL     1      28.031  49.634  49.108  1.00  0.00    -0.051 Br
HETATM   21  C   UNL     1      26.083  47.656  49.759  1.00  0.00     0.033 A 
BRANCH  16  22
HETATM   22  O   UNL     1      22.464  47.309  49.294  1.00  0.00    -0.289 OA
BRANCH  22  23
HETATM   23  C   UNL     1      21.572  48.080  48.490  1.00  0.00     0.505 C 
HETATM   24  F   UNL     1      21.330  47.369  47.351  1.00  0.00    -0.184 F 
HETATM   25  F   UNL     1      20.392  48.137  49.150  1.00  0.00    -0.184 F 
ENDBRANCH  22  23
ENDBRANCH  16  22
ENDBRANCH  10  15
BRANCH   8  26
HETATM   26  N   UNL     1      24.652  42.941  48.148  1.00  0.00    -0.272 NA
HETATM   27  H   UNL     1      24.469  43.527  47.337  1.00  0.00     0.127 HD
HETATM   28  H   UNL     1      23.921  42.258  48.292  1.00  0.00     0.127 HD
ENDBRANCH   8  26
TORSDOF 4
ENDMDL
MODEL 6
REMARK VINA RESULT:      -7.6      3.345      5.739
REMARK  4 active torsions:
REMARK  status: ('A' for Active; 'I' for Inactive)
REMARK    1  A    between atoms: C_8  and  N_9 
REMARK    2  A    between atoms: C_11  and  C_12 
REMARK    3  A    between atoms: C_13  and  O_14 
REMARK    4  A    between atoms: O_14  and  C_15 
ROOT
HETATM    1  C   UNL     1      28.386  46.760  55.822  1.00  0.00     0.002 A 
HETATM    2  C   UNL     1      29.128  45.684  55.322  1.00  0.00     0.034 A 
HETATM    3  C   UNL     1      28.545  44.856  54.354  1.00  0.00     0.103 A 
HETATM    4  C   UNL     1      27.252  45.124  53.912  1.00  0.00     0.083 A 
HETATM    5  N   UNL     1      27.034  44.150  52.976  1.00  0.00    -0.151 N 
HETATM    6  C   UNL     1      28.120  43.315  52.912  1.00  0.00     0.734 A 
HETATM    7  N   UNL     1      28.162  42.224  52.114  1.00  0.00    -0.033 NA
HETATM    8  C   UNL     1      27.137  41.936  51.398  1.00  0.00     0.193 A 
HETATM    9  N   UNL     1      25.961  42.689  51.360  1.00  0.00    -0.338 N 
HETATM   10  C   UNL     1      25.863  43.905  52.163  1.00  0.00     0.246 A 
HETATM   11  N   UNL     1      29.059  43.751  53.724  1.00  0.00    -0.060 NA
HETATM   12  C   UNL     1      26.489  46.191  54.398  1.00  0.00     0.033 A 
HETATM   13  C   UNL     1      27.089  47.006  55.365  1.00  0.00     0.002 A 
HETATM   14  H   UNL     1      25.159  42.378  50.826  1.00  0.00     0.164 HD
ENDROOT
BRANCH  10  15
HETATM   15  C   UNL     1      25.545  45.039  51.198  1.00  0.00     0.020 A 
HETATM   16  C   UNL     1      24.267  45.129  50.611  1.00  0.00     0.085 A 
HETATM   17  C   UNL     1      23.937  46.171  49.741  1.00  0.00     0.039 A 
HETATM   18  C   UNL     1      24.904  47.111  49.389  1.00  0.00     0.022 A 
HETATM   19  C   UNL     1      26.189  47.008  49.914  1.00  0.00     0.011 A 
HETATM   20 BR   UNL     1      27.503  48.275  49.428  1.00  0.00    -0.051 Br
HETATM   21  C   UNL     1      26.515  45.981  50.803  1.00  0.00     0.033 A 
BRANCH  16  22
HETATM   22  O   UNL     1      23.308  44.211  50.953  1.00  0.00    -0.289 OA
BRANCH  22  23
HETATM   23  C   UNL     1      22.705  43.647  49.789  1.00  0.00     0.505 C 
HETATM   24  F   UNL     1      22.568  42.307  50.008  1.00  0.00    -0.184 F 
HETATM   25  F   UNL     1      21.449  44.142  49.713  1.00  0.00    -0.184 F 
ENDBRANCH  22  23
ENDBRANCH  16  22
ENDBRANCH  10  15
BRANCH   8  26
HETATM   26  N   UNL     1      27.083  40.854  50.596  1.00  0.00    -0.272 NA
HETATM   27  H   UNL     1      26.527  40.110  51.011  1.00  0.00     0.127 HD
HETATM   28  H   UNL     1      27.959  40.509  50.229  1.00  0.00     0.127 HD
ENDBRANCH   8  26
TORSDOF 4
ENDMDL
MODEL 7
REMARK VINA RESULT:      -7.3      7.557      9.452
REMARK  4 active torsions:
REMARK  status: ('A' for Active; 'I' for Inactive)
REMARK    1  A    between atoms: C_8  and  N_9 
REMARK    2  A    between atoms: C_11  and  C_12 
REMARK    3  A    between atoms: C_13  and  O_14 
REMARK    4  A    between atoms: O_14  and  C_15 
ROOT
HETATM    1  C   UNL     1      23.914  50.767  48.582  1.00  0.00     0.002 A 
HETATM    2  C   UNL     1      23.886  49.474  48.046  1.00  0.00     0.034 A 
HETATM    3  C   UNL     1      22.730  48.700  48.215  1.00  0.00     0.103 A 
HETATM    4  C   UNL     1      21.644  49.233  48.903  1.00  0.00     0.083 A 
HETATM    5  N   UNL     1      20.717  48.228  48.846  1.00  0.00    -0.151 N 
HETATM    6  C   UNL     1      21.250  47.137  48.210  1.00  0.00     0.734 A 
HETATM    7  N   UNL     1      20.580  45.972  48.062  1.00  0.00    -0.033 NA
HETATM    8  C   UNL     1      19.400  45.865  48.555  1.00  0.00     0.193 A 
HETATM    9  N   UNL     1      18.728  46.888  49.229  1.00  0.00    -0.338 N 
HETATM   10  C   UNL     1      19.375  48.187  49.387  1.00  0.00     0.246 A 
HETATM   11  N   UNL     1      22.465  47.422  47.794  1.00  0.00    -0.060 NA
HETATM   12  C   UNL     1      21.648  50.521  49.449  1.00  0.00     0.033 A 
HETATM   13  C   UNL     1      22.812  51.278  49.271  1.00  0.00     0.002 A 
HETATM   14  H   UNL     1      17.823  46.726  49.653  1.00  0.00     0.164 HD
ENDROOT
BRANCH  10  15
HETATM   15  C   UNL     1      18.439  49.217  48.769  1.00  0.00     0.020 A 
HETATM   16  C   UNL     1      18.105  49.137  47.404  1.00  0.00     0.085 A 
HETATM   17  C   UNL     1      17.229  50.053  46.813  1.00  0.00     0.039 A 
HETATM   18  C   UNL     1      16.720  51.108  47.566  1.00  0.00     0.022 A 
HETATM   19  C   UNL     1      17.082  51.238  48.904  1.00  0.00     0.011 A 
HETATM   20 BR   UNL     1      16.402  52.676  49.923  1.00  0.00    -0.051 Br
HETATM   21  C   UNL     1      17.938  50.311  49.504  1.00  0.00     0.033 A 
BRANCH  16  22
HETATM   22  O   UNL     1      18.598  48.101  46.654  1.00  0.00    -0.289 OA
BRANCH  22  23
HETATM   23  C   UNL     1      17.642  47.672  45.685  1.00  0.00     0.505 C 
HETATM   24  F   UNL     1      18.221  47.795  44.456  1.00  0.00    -0.184 F 
HETATM   25  F   UNL     1      17.451  46.346  45.876  1.00  0.00    -0.184 F 
ENDBRANCH  22  23
ENDBRANCH  16  22
ENDBRANCH  10  15
BRANCH   8  26
HETATM   26  N   UNL     1      18.672  44.734  48.476  1.00  0.00    -0.272 NA
HETATM   27  H   UNL     1      19.129  43.963  48.957  1.00  0.00     0.127 HD
HETATM   28  H   UNL     1      18.341  44.462  47.560  1.00  0.00     0.127 HD
ENDBRANCH   8  26
TORSDOF 4
ENDMDL
MODEL 8
REMARK VINA RESULT:      -7.1      3.805      6.129
REMARK  4 active torsions:
REMARK  status: ('A' for Active; 'I' for Inactive)
REMARK    1  A    between atoms: C_8  and  N_9 
REMARK    2  A    between atoms: C_11  and  C_12 
REMARK    3  A    between atoms: C_13  and  O_14 
REMARK    4  A    between atoms: O_14  and  C_15 
ROOT
HETATM    1  C   UNL     1      29.781  43.646  54.959  1.00  0.00     0.002 A 
HETATM    2  C   UNL     1      28.687  44.519  54.956  1.00  0.00     0.034 A 
HETATM    3  C   UNL     1      27.969  44.695  53.766  1.00  0.00     0.103 A 
HETATM    4  C   UNL     1      28.356  44.000  52.624  1.00  0.00     0.083 A 
HETATM    5  N   UNL     1      27.434  44.394  51.692  1.00  0.00    -0.151 N 
HETATM    6  C   UNL     1      26.583  45.319  52.241  1.00  0.00     0.734 A 
HETATM    7  N   UNL     1      25.606  45.929  51.533  1.00  0.00    -0.033 NA
HETATM    8  C   UNL     1      25.475  45.653  50.286  1.00  0.00     0.193 A 
HETATM    9  N   UNL     1      26.265  44.736  49.591  1.00  0.00    -0.338 N 
HETATM   10  C   UNL     1      27.312  44.007  50.303  1.00  0.00     0.246 A 
HETATM   11  N   UNL     1      26.880  45.489  53.511  1.00  0.00    -0.060 NA
HETATM   12  C   UNL     1      29.446  43.124  52.600  1.00  0.00     0.033 A 
HETATM   13  C   UNL     1      30.151  42.962  53.799  1.00  0.00     0.002 A 
HETATM   14  H   UNL     1      26.159  44.606  48.593  1.00  0.00     0.164 HD
ENDROOT
BRANCH  10  15
HETATM   15  C   UNL     1      27.020  42.526  50.107  1.00  0.00     0.020 A 
HETATM   16  C   UNL     1      25.759  42.003  50.452  1.00  0.00     0.085 A 
HETATM   17  C   UNL     1      25.453  40.653  50.262  1.00  0.00     0.039 A 
HETATM   18  C   UNL     1      26.429  39.783  49.780  1.00  0.00     0.022 A 
HETATM   19  C   UNL     1      27.700  40.269  49.485  1.00  0.00     0.011 A 
HETATM   20 BR   UNL     1      29.027  39.088  48.843  1.00  0.00    -0.051 Br
HETATM   21  C   UNL     1      28.002  41.622  49.652  1.00  0.00     0.033 A 
BRANCH  16  22
HETATM   22  O   UNL     1      24.791  42.850  50.925  1.00  0.00    -0.289 OA
BRANCH  22  23
HETATM   23  C   UNL     1      23.564  42.667  50.219  1.00  0.00     0.505 C 
HETATM   24  F   UNL     1      22.723  43.674  50.592  1.00  0.00    -0.184 F 
HETATM   25  F   UNL     1      23.827  42.867  48.907  1.00  0.00    -0.184 F 
ENDBRANCH  22  23
ENDBRANCH  16  22
ENDBRANCH  10  15
BRANCH   8  26
HETATM   26  N   UNL     1      24.545  46.234  49.501  1.00  0.00    -0.272 NA
HETATM   27  H   UNL     1      23.734  45.632  49.379  1.00  0.00     0.127 HD
HETATM   28  H   UNL     1      24.861  46.622  48.623  1.00  0.00     0.127 HD
ENDBRANCH   8  26
TORSDOF 4
ENDMDL
MODEL 9
REMARK VINA RESULT:      -7.1      3.245      4.600
REMARK  4 active torsions:
REMARK  status: ('A' for Active; 'I' for Inactive)
REMARK    1  A    between atoms: C_8  and  N_9 
REMARK    2  A    between atoms: C_11  and  C_12 
REMARK    3  A    between atoms: C_13  and  O_14 
REMARK    4  A    between atoms: O_14  and  C_15 
ROOT
HETATM    1  C   UNL     1      23.827  43.565  48.751  1.00  0.00     0.002 A 
HETATM    2  C   UNL     1      24.008  44.936  48.966  1.00  0.00     0.034 A 
HETATM    3  C   UNL     1      24.466  45.366  50.219  1.00  0.00     0.103 A 
HETATM    4  C   UNL     1      24.731  44.426  51.211  1.00  0.00     0.083 A 
HETATM    5  N   UNL     1      25.171  45.192  52.256  1.00  0.00    -0.151 N 
HETATM    6  C   UNL     1      25.112  46.519  51.918  1.00  0.00     0.734 A 
HETATM    7  N   UNL     1      25.429  47.512  52.780  1.00  0.00    -0.033 NA
HETATM    8  C   UNL     1      25.781  47.209  53.976  1.00  0.00     0.193 A 
HETATM    9  N   UNL     1      25.887  45.905  54.464  1.00  0.00    -0.338 N 
HETATM   10  C   UNL     1      25.601  44.782  53.576  1.00  0.00     0.246 A 
HETATM   11  N   UNL     1      24.712  46.637  50.671  1.00  0.00    -0.060 NA
HETATM   12  C   UNL     1      24.556  43.051  51.021  1.00  0.00     0.033 A 
HETATM   13  C   UNL     1      24.097  42.641  49.764  1.00  0.00     0.002 A 
HETATM   14  H   UNL     1      26.107  45.728  55.437  1.00  0.00     0.164 HD
ENDROOT
BRANCH  10  15
HETATM   15  C   UNL     1      26.848  43.909  53.565  1.00  0.00     0.020 A 
HETATM   16  C   UNL     1      27.883  44.144  54.491  1.00  0.00     0.085 A 
HETATM   17  C   UNL     1      29.029  43.345  54.521  1.00  0.00     0.039 A 
HETATM   18  C   UNL     1      29.191  42.331  53.580  1.00  0.00     0.022 A 
HETATM   19  C   UNL     1      28.206  42.118  52.620  1.00  0.00     0.011 A 
HETATM   20 BR   UNL     1      28.430  40.750  51.335  1.00  0.00    -0.051 Br
HETATM   21  C   UNL     1      27.048  42.899  52.602  1.00  0.00     0.033 A 
BRANCH  16  22
HETATM   22  O   UNL     1      27.733  45.137  55.423  1.00  0.00    -0.289 OA
BRANCH  22  23
HETATM   23  C   UNL     1      28.997  45.684  55.794  1.00  0.00     0.505 C 
HETATM   24  F   UNL     1      29.262  46.717  54.942  1.00  0.00    -0.184 F 
HETATM   25  F   UNL     1      28.846  46.240  57.018  1.00  0.00    -0.184 F 
ENDBRANCH  22  23
ENDBRANCH  16  22
ENDBRANCH  10  15
BRANCH   8  26
HETATM   26  N   UNL     1      26.090  48.135  54.906  1.00  0.00    -0.272 NA
HETATM   27  H   UNL     1      26.659  48.881  54.513  1.00  0.00     0.127 HD
HETATM   28  H   UNL     1      26.461  47.800  55.784  1.00  0.00     0.127 HD
ENDBRANCH   8  26
TORSDOF 4
ENDMDL
MODEL 10
REMARK VINA RESULT:      -7.0     12.681     14.035
REMARK  4 active torsions:
REMARK  status: ('A' for Active; 'I' for Inactive)
REMARK    1  A    between atoms: C_8  and  N_9 
REMARK    2  A    between atoms: C_11  and  C_12 
REMARK    3  A    between atoms: C_13  and  O_14 
REMARK    4  A    between atoms: O_14  and  C_15 
ROOT
HETATM    1  C   UNL     1      33.692  50.320  42.408  1.00  0.00     0.002 A 
HETATM    2  C   UNL     1      33.079  51.575  42.319  1.00  0.00     0.034 A 
HETATM    3  C   UNL     1      32.121  51.787  41.319  1.00  0.00     0.103 A 
HETATM    4  C   UNL     1      31.801  50.751  40.447  1.00  0.00     0.083 A 
HETATM    5  N   UNL     1      30.838  51.303  39.647  1.00  0.00    -0.151 N 
HETATM    6  C   UNL     1      30.642  52.616  39.992  1.00  0.00     0.734 A 
HETATM    7  N   UNL     1      29.789  53.430  39.331  1.00  0.00    -0.033 NA
HETATM    8  C   UNL     1      29.146  52.971  38.320  1.00  0.00     0.193 A 
HETATM    9  N   UNL     1      29.242  51.658  37.851  1.00  0.00    -0.338 N 
HETATM   10  C   UNL     1      30.112  50.711  38.544  1.00  0.00     0.246 A 
HETATM   11  N   UNL     1      31.396  52.914  41.028  1.00  0.00    -0.060 NA
HETATM   12  C   UNL     1      32.401  49.489  40.513  1.00  0.00     0.033 A 
HETATM   13  C   UNL     1      33.356  49.297  41.518  1.00  0.00     0.002 A 
HETATM   14  H   UNL     1      28.760  51.369  37.009  1.00  0.00     0.164 HD
ENDROOT
BRANCH  10  15
HETATM   15  C   UNL     1      29.235  49.536  38.954  1.00  0.00     0.020 A 
HETATM   16  C   UNL     1      28.040  49.761  39.665  1.00  0.00     0.085 A 
HETATM   17  C   UNL     1      27.202  48.706  40.034  1.00  0.00     0.039 A 
HETATM   18  C   UNL     1      27.577  47.393  39.754  1.00  0.00     0.022 A 
HETATM   19  C   UNL     1      28.782  47.145  39.101  1.00  0.00     0.011 A 
HETATM   20 BR   UNL     1      29.296  45.366  38.731  1.00  0.00    -0.051 Br
HETATM   21  C   UNL     1      29.610  48.200  38.709  1.00  0.00     0.033 A 
BRANCH  16  22
HETATM   22  O   UNL     1      27.660  51.048  39.944  1.00  0.00    -0.289 OA
BRANCH  22  23
HETATM   23  C   UNL     1      27.515  51.244  41.350  1.00  0.00     0.505 C 
HETATM   24  F   UNL     1      28.693  50.883  41.937  1.00  0.00    -0.184 F 
HETATM   25  F   UNL     1      27.391  52.576  41.554  1.00  0.00    -0.184 F 
ENDBRANCH  22  23
ENDBRANCH  16  22
ENDBRANCH  10  15
BRANCH   8  26
HETATM   26  N   UNL     1      28.296  53.719  37.589  1.00  0.00    -0.272 NA
HETATM   27  H   UNL     1      28.430  53.566  36.593  1.00  0.00     0.127 HD
HETATM   28  H   UNL     1      28.239  54.703  37.814  1.00  0.00     0.127 HD
ENDBRANCH   8  26
TORSDOF 4
ENDMDL
