MODEL 1
REMARK VINA RESULT:      -8.1      0.000      0.000
REMARK  7 active torsions:
REMARK  status: ('A' for Active; 'I' for Inactive)
REMARK    1  A    between atoms: C_2  and  C_3 
REMARK    2  A    between atoms: C_3  and  N_4 
REMARK    3  A    between atoms: C_7  and  C_8 
REMARK    4  A    between atoms: C_8  and  N_9 
REMARK       I    between atoms: N_9  and  C_10 
REMARK       I    between atoms: C_10  and  N_11 
REMARK    5  A    between atoms: N_11  and  C_12 
REMARK    6  A    between atoms: C_15  and  N_16 
REMARK       I    between atoms: N_16  and  C_17 
REMARK    7  A    between atoms: C_17  and  C_18 
ROOT
HETATM    1  N   UNL     1      27.924  42.443  52.450  1.00  0.00    -0.342 N 
HETATM    2  C   UNL     1      27.754  41.790  51.266  1.00  0.00     0.320 C 
HETATM    3  N   UNL     1      26.790  42.265  50.426  1.00  0.00    -0.309 N 
HETATM    4  O   UNL     1      28.371  40.763  50.993  1.00  0.00    -0.247 OA
HETATM    5  H   UNL     1      27.155  43.027  52.747  1.00  0.00     0.164 HD
HETATM    6  H   UNL     1      26.559  41.596  49.699  1.00  0.00     0.170 HD
ENDROOT
BRANCH   3   7
HETATM    7  C   UNL     1      26.062  43.470  50.430  1.00  0.00     0.036 A 
HETATM    8  C   UNL     1      24.797  43.609  51.001  1.00  0.00     0.032 A 
HETATM    9  C   UNL     1      24.080  44.804  50.869  1.00  0.00     0.032 A 
HETATM   10  C   UNL     1      24.630  45.888  50.188  1.00  0.00     0.035 A 
HETATM   11  C   UNL     1      25.941  45.786  49.712  1.00  0.00     0.032 A 
HETATM   12  C   UNL     1      26.656  44.588  49.840  1.00  0.00     0.032 A 
BRANCH  10  13
HETATM   13  N   UNL     1      23.933  47.080  49.920  1.00  0.00    -0.321 N 
HETATM   14  C   UNL     1      23.034  47.330  48.896  1.00  0.00     0.279 C 
HETATM   15  O   UNL     1      22.625  46.497  48.093  1.00  0.00    -0.265 OA
HETATM   16  H   UNL     1      24.173  47.896  50.475  1.00  0.00     0.169 HD
BRANCH  14  17
HETATM   17  C   UNL     1      22.639  48.726  48.828  1.00  0.00     0.142 A 
HETATM   18  O   UNL     1      23.380  49.669  49.495  1.00  0.00    -0.317 OA
HETATM   19  C   UNL     1      22.817  50.877  49.235  1.00  0.00     0.143 A 
HETATM   20  C   UNL     1      21.725  50.733  48.412  1.00  0.00     0.027 A 
HETATM   21  C   UNL     1      21.607  49.348  48.152  1.00  0.00     0.045 A 
ENDBRANCH  14  17
ENDBRANCH  10  13
ENDBRANCH   3   7
BRANCH   1  22
HETATM   22  C   UNL     1      28.899  42.037  53.436  1.00  0.00     0.130 C 
BRANCH  22  23
HETATM   23  C   UNL     1      29.052  43.075  54.541  1.00  0.00     0.031 C 
HETATM   24  C   UNL     1      28.768  44.481  54.044  1.00  0.00     0.241 C 
HETATM   25  N   UNL     1      29.382  45.381  55.106  1.00  0.00    -0.071 N 
HETATM   26  H   UNL     1      29.899  46.122  54.612  1.00  0.00     0.279 HD
HETATM   27  C   UNL     1      30.392  44.529  55.867  1.00  0.00     0.235 C 
HETATM   28  C   UNL     1      30.461  43.224  55.096  1.00  0.00     0.035 C 
BRANCH  25  29
HETATM   29  C   UNL     1      28.350  46.049  55.984  1.00  0.00     0.234 C 
BRANCH  29  30
HETATM   30  C   UNL     1      27.812  47.307  55.312  1.00  0.00     0.023 C 
HETATM   31  C   UNL     1      26.402  47.081  54.790  1.00  0.00     0.007 C 
ENDBRANCH  29  30
ENDBRANCH  25  29
ENDBRANCH  22  23
ENDBRANCH   1  22
TORSDOF 7
ENDMDL
MODEL 2
REMARK VINA RESULT:      -7.9      1.775      3.021
REMARK  7 active torsions:
REMARK  status: ('A' for Active; 'I' for Inactive)
REMARK    1  A    between atoms: C_2  and  C_3 
REMARK    2  A    between atoms: C_3  and  N_4 
REMARK    3  A    between atoms: C_7  and  C_8 
REMARK    4  A    between atoms: C_8  and  N_9 
REMARK       I    between atoms: N_9  and  C_10 
REMARK       I    between atoms: C_10  and  N_11 
REMARK    5  A    between atoms: N_11  and  C_12 
REMARK    6  A    between atoms: C_15  and  N_16 
REMARK       I    between atoms: N_16  and  C_17 
REMARK    7  A    between atoms: C_17  and  C_18 
ROOT
HETATM    1  N   UNL     1      26.341  44.188  51.993  1.00  0.00    -0.342 N 
HETATM    2  C   UNL     1      26.836  43.814  50.779  1.00  0.00     0.320 C 
HETATM    3  N   UNL     1      26.256  44.365  49.675  1.00  0.00    -0.309 N 
HETATM    4  O   UNL     1      27.703  42.951  50.666  1.00  0.00    -0.247 OA
HETATM    5  H   UNL     1      25.419  44.601  51.986  1.00  0.00     0.164 HD
HETATM    6  H   UNL     1      26.503  43.863  48.828  1.00  0.00     0.170 HD
ENDROOT
BRANCH   3   7
HETATM    7  C   UNL     1      25.373  45.451  49.530  1.00  0.00     0.036 A 
HETATM    8  C   UNL     1      25.712  46.771  49.829  1.00  0.00     0.032 A 
HETATM    9  C   UNL     1      24.751  47.787  49.772  1.00  0.00     0.032 A 
HETATM   10  C   UNL     1      23.442  47.503  49.387  1.00  0.00     0.035 A 
HETATM   11  C   UNL     1      23.130  46.201  48.981  1.00  0.00     0.032 A 
HETATM   12  C   UNL     1      24.091  45.184  49.043  1.00  0.00     0.032 A 
BRANCH  10  13
HETATM   13  N   UNL     1      22.398  48.444  49.409  1.00  0.00    -0.321 N 
HETATM   14  C   UNL     1      22.146  49.459  48.500  1.00  0.00     0.279 C 
HETATM   15  O   UNL     1      22.761  49.644  47.455  1.00  0.00    -0.265 OA
HETATM   16  H   UNL     1      21.799  48.459  50.229  1.00  0.00     0.169 HD
BRANCH  14  17
HETATM   17  C   UNL     1      21.080  50.345  48.933  1.00  0.00     0.142 A 
HETATM   18  O   UNL     1      20.701  51.389  48.125  1.00  0.00    -0.317 OA
HETATM   19  C   UNL     1      19.675  52.024  48.748  1.00  0.00     0.143 A 
HETATM   20  C   UNL     1      19.383  51.413  49.944  1.00  0.00     0.027 A 
HETATM   21  C   UNL     1      20.289  50.332  50.066  1.00  0.00     0.045 A 
ENDBRANCH  14  17
ENDBRANCH  10  13
ENDBRANCH   3   7
BRANCH   1  22
HETATM   22  C   UNL     1      26.852  43.670  53.241  1.00  0.00     0.130 C 
BRANCH  22  23
HETATM   23  C   UNL     1      27.862  44.618  53.876  1.00  0.00     0.031 C 
HETATM   24  C   UNL     1      28.284  44.156  55.259  1.00  0.00     0.241 C 
HETATM   25  N   UNL     1      28.907  45.392  55.889  1.00  0.00    -0.071 N 
HETATM   26  H   UNL     1      28.540  45.460  56.849  1.00  0.00     0.279 HD
HETATM   27  C   UNL     1      28.388  46.591  55.102  1.00  0.00     0.235 C 
HETATM   28  C   UNL     1      27.339  46.018  54.167  1.00  0.00     0.035 C 
BRANCH  25  29
HETATM   29  C   UNL     1      30.413  45.316  55.978  1.00  0.00     0.234 C 
BRANCH  29  30
HETATM   30  C   UNL     1      30.884  43.875  55.827  1.00  0.00     0.023 C 
HETATM   31  C   UNL     1      31.525  43.378  57.113  1.00  0.00     0.007 C 
ENDBRANCH  29  30
ENDBRANCH  25  29
ENDBRANCH  22  23
ENDBRANCH   1  22
TORSDOF 7
ENDMDL
MODEL 3
REMARK VINA RESULT:      -7.8      2.269      8.878
REMARK  7 active torsions:
REMARK  status: ('A' for Active; 'I' for Inactive)
REMARK    1  A    between atoms: C_2  and  C_3 
REMARK    2  A    between atoms: C_3  and  N_4 
REMARK    3  A    between atoms: C_7  and  C_8 
REMARK    4  A    between atoms: C_8  and  N_9 
REMARK       I    between atoms: N_9  and  C_10 
REMARK       I    between atoms: C_10  and  N_11 
REMARK    5  A    between atoms: N_11  and  C_12 
REMARK    6  A    between atoms: C_15  and  N_16 
REMARK       I    between atoms: N_16  and  C_17 
REMARK    7  A    between atoms: C_17  and  C_18 
ROOT
HETATM    1  N   UNL     1      22.955  45.783  49.054  1.00  0.00    -0.342 N 
HETATM    2  C   UNL     1      22.582  44.485  49.237  1.00  0.00     0.320 C 
HETATM    3  N   UNL     1      23.466  43.668  49.880  1.00  0.00    -0.309 N 
HETATM    4  O   UNL     1      21.539  44.034  48.769  1.00  0.00    -0.247 OA
HETATM    5  H   UNL     1      23.944  45.975  49.135  1.00  0.00     0.164 HD
HETATM    6  H   UNL     1      23.231  42.689  49.759  1.00  0.00     0.170 HD
ENDROOT
BRANCH   3   7
HETATM    7  C   UNL     1      24.628  43.952  50.620  1.00  0.00     0.036 A 
HETATM    8  C   UNL     1      25.919  43.865  50.097  1.00  0.00     0.032 A 
HETATM    9  C   UNL     1      27.037  44.051  50.920  1.00  0.00     0.032 A 
HETATM   10  C   UNL     1      26.880  44.352  52.271  1.00  0.00     0.035 A 
HETATM   11  C   UNL     1      25.588  44.548  52.768  1.00  0.00     0.032 A 
HETATM   12  C   UNL     1      24.470  44.358  51.947  1.00  0.00     0.032 A 
BRANCH  10  13
HETATM   13  N   UNL     1      27.948  44.445  53.181  1.00  0.00    -0.321 N 
HETATM   14  C   UNL     1      28.591  43.415  53.849  1.00  0.00     0.279 C 
HETATM   15  O   UNL     1      28.383  42.219  53.675  1.00  0.00    -0.265 OA
HETATM   16  H   UNL     1      28.236  45.375  53.470  1.00  0.00     0.169 HD
BRANCH  14  17
HETATM   17  C   UNL     1      29.536  43.896  54.841  1.00  0.00     0.142 A 
HETATM   18  O   UNL     1      29.375  45.152  55.372  1.00  0.00    -0.317 OA
HETATM   19  C   UNL     1      30.363  45.329  56.287  1.00  0.00     0.143 A 
HETATM   20  C   UNL     1      31.161  44.212  56.358  1.00  0.00     0.027 A 
HETATM   21  C   UNL     1      30.631  43.289  55.424  1.00  0.00     0.045 A 
ENDBRANCH  14  17
ENDBRANCH  10  13
ENDBRANCH   3   7
BRANCH   1  22
HETATM   22  C   UNL     1      22.123  46.751  48.378  1.00  0.00     0.130 C 
BRANCH  22  23
HETATM   23  C   UNL     1      22.232  48.133  49.011  1.00  0.00     0.031 C 
HETATM   24  C   UNL     1      21.102  49.048  48.576  1.00  0.00     0.241 C 
HETATM   25  N   UNL     1      21.601  50.443  48.924  1.00  0.00    -0.071 N 
HETATM   26  H   UNL     1      21.392  51.049  48.117  1.00  0.00     0.279 HD
HETATM   27  C   UNL     1      23.116  50.342  49.057  1.00  0.00     0.235 C 
HETATM   28  C   UNL     1      23.456  48.937  48.597  1.00  0.00     0.035 C 
BRANCH  25  29
HETATM   29  C   UNL     1      20.911  51.034  50.130  1.00  0.00     0.234 C 
BRANCH  29  30
HETATM   30  C   UNL     1      19.445  51.318  49.822  1.00  0.00     0.023 C 
HETATM   31  C   UNL     1      19.317  52.300  48.667  1.00  0.00     0.007 C 
ENDBRANCH  29  30
ENDBRANCH  25  29
ENDBRANCH  22  23
ENDBRANCH   1  22
TORSDOF 7
ENDMDL
MODEL 4
REMARK VINA RESULT:      -7.6      2.819      8.952
REMARK  7 active torsions:
REMARK  status: ('A' for Active; 'I' for Inactive)
REMARK    1  A    between atoms: C_2  and  C_3 
REMARK    2  A    between atoms: C_3  and  N_4 
REMARK    3  A    between atoms: C_7  and  C_8 
REMARK    4  A    between atoms: C_8  and  N_9 
REMARK       I    between atoms: N_9  and  C_10 
REMARK       I    between atoms: C_10  and  N_11 
REMARK    5  A    between atoms: N_11  and  C_12 
REMARK    6  A    between atoms: C_15  and  N_16 
REMARK       I    between atoms: N_16  and  C_17 
REMARK    7  A    between atoms: C_17  and  C_18 
ROOT
HETATM    1  N   UNL     1      20.926  46.175  48.833  1.00  0.00    -0.342 N 
HETATM    2  C   UNL     1      21.540  45.286  48.002  1.00  0.00     0.320 C 
HETATM    3  N   UNL     1      22.828  44.948  48.296  1.00  0.00    -0.309 N 
HETATM    4  O   UNL     1      21.001  44.871  46.979  1.00  0.00    -0.247 OA
HETATM    5  H   UNL     1      21.537  46.732  49.415  1.00  0.00     0.164 HD
HETATM    6  H   UNL     1      23.286  44.490  47.515  1.00  0.00     0.170 HD
ENDROOT
BRANCH   3   7
HETATM    7  C   UNL     1      23.608  45.159  49.449  1.00  0.00     0.036 A 
HETATM    8  C   UNL     1      24.291  46.347  49.714  1.00  0.00     0.032 A 
HETATM    9  C   UNL     1      25.140  46.450  50.823  1.00  0.00     0.032 A 
HETATM   10  C   UNL     1      25.298  45.377  51.697  1.00  0.00     0.035 A 
HETATM   11  C   UNL     1      24.529  44.227  51.492  1.00  0.00     0.032 A 
HETATM   12  C   UNL     1      23.683  44.122  50.381  1.00  0.00     0.032 A 
BRANCH  10  13
HETATM   13  N   UNL     1      26.211  45.366  52.766  1.00  0.00    -0.321 N 
HETATM   14  C   UNL     1      26.387  46.329  53.747  1.00  0.00     0.279 C 
HETATM   15  O   UNL     1      25.691  47.329  53.891  1.00  0.00    -0.265 OA
HETATM   16  H   UNL     1      26.896  44.617  52.788  1.00  0.00     0.169 HD
BRANCH  14  17
HETATM   17  C   UNL     1      27.538  46.063  54.591  1.00  0.00     0.142 A 
HETATM   18  O   UNL     1      28.277  44.924  54.384  1.00  0.00    -0.317 OA
HETATM   19  C   UNL     1      29.300  44.944  55.277  1.00  0.00     0.143 A 
HETATM   20  C   UNL     1      29.237  46.073  56.059  1.00  0.00     0.027 A 
HETATM   21  C   UNL     1      28.100  46.793  55.620  1.00  0.00     0.045 A 
ENDBRANCH  14  17
ENDBRANCH  10  13
ENDBRANCH   3   7
BRANCH   1  22
HETATM   22  C   UNL     1      19.570  46.631  48.631  1.00  0.00     0.130 C 
BRANCH  22  23
HETATM   23  C   UNL     1      19.388  48.079  49.066  1.00  0.00     0.031 C 
HETATM   24  C   UNL     1      20.716  48.761  49.344  1.00  0.00     0.241 C 
HETATM   25  N   UNL     1      20.339  49.987  50.162  1.00  0.00    -0.071 N 
HETATM   26  H   UNL     1      21.006  50.044  50.945  1.00  0.00     0.279 HD
HETATM   27  C   UNL     1      18.955  49.715  50.741  1.00  0.00     0.235 C 
HETATM   28  C   UNL     1      18.663  48.268  50.391  1.00  0.00     0.035 C 
BRANCH  25  29
HETATM   29  C   UNL     1      20.441  51.274  49.379  1.00  0.00     0.234 C 
BRANCH  29  30
HETATM   30  C   UNL     1      19.112  52.020  49.403  1.00  0.00     0.023 C 
HETATM   31  C   UNL     1      18.629  52.310  47.989  1.00  0.00     0.007 C 
ENDBRANCH  29  30
ENDBRANCH  25  29
ENDBRANCH  22  23
ENDBRANCH   1  22
TORSDOF 7
ENDMDL
MODEL 5
REMARK VINA RESULT:      -7.5      6.522     12.758
REMARK  7 active torsions:
REMARK  status: ('A' for Active; 'I' for Inactive)
REMARK    1  A    between atoms: C_2  and  C_3 
REMARK    2  A    between atoms: C_3  and  N_4 
REMARK    3  A    between atoms: C_7  and  C_8 
REMARK    4  A    between atoms: C_8  and  N_9 
REMARK       I    between atoms: N_9  and  C_10 
REMARK       I    between atoms: C_10  and  N_11 
REMARK    5  A    between atoms: N_11  and  C_12 
REMARK    6  A    between atoms: C_15  and  N_16 
REMARK       I    between atoms: N_16  and  C_17 
REMARK    7  A    between atoms: C_17  and  C_18 
ROOT
HETATM    1  N   UNL     1      16.332  52.016  49.292  1.00  0.00    -0.342 N 
HETATM    2  C   UNL     1      16.298  51.715  47.963  1.00  0.00     0.320 C 
HETATM    3  N   UNL     1      17.483  51.396  47.367  1.00  0.00    -0.309 N 
HETATM    4  O   UNL     1      15.269  51.812  47.298  1.00  0.00    -0.247 OA
HETATM    5  H   UNL     1      17.237  52.266  49.666  1.00  0.00     0.164 HD
HETATM    6  H   UNL     1      17.418  51.429  46.356  1.00  0.00     0.170 HD
ENDROOT
BRANCH   3   7
HETATM    7  C   UNL     1      18.743  51.082  47.909  1.00  0.00     0.036 A 
HETATM    8  C   UNL     1      19.651  52.038  48.365  1.00  0.00     0.032 A 
HETATM    9  C   UNL     1      20.933  51.664  48.787  1.00  0.00     0.032 A 
HETATM   10  C   UNL     1      21.316  50.325  48.783  1.00  0.00     0.035 A 
HETATM   11  C   UNL     1      20.370  49.357  48.431  1.00  0.00     0.032 A 
HETATM   12  C   UNL     1      19.089  49.732  48.006  1.00  0.00     0.032 A 
BRANCH  10  13
HETATM   13  N   UNL     1      22.616  49.881  49.087  1.00  0.00    -0.321 N 
HETATM   14  C   UNL     1      23.746  49.943  48.288  1.00  0.00     0.279 C 
HETATM   15  O   UNL     1      23.810  50.493  47.193  1.00  0.00    -0.265 OA
HETATM   16  H   UNL     1      22.744  49.368  49.953  1.00  0.00     0.169 HD
BRANCH  14  17
HETATM   17  C   UNL     1      24.876  49.235  48.862  1.00  0.00     0.142 A 
HETATM   18  O   UNL     1      24.658  48.306  49.849  1.00  0.00    -0.317 OA
HETATM   19  C   UNL     1      25.866  47.779  50.176  1.00  0.00     0.143 A 
HETATM   20  C   UNL     1      26.862  48.349  49.419  1.00  0.00     0.027 A 
HETATM   21  C   UNL     1      26.226  49.290  48.574  1.00  0.00     0.045 A 
ENDBRANCH  14  17
ENDBRANCH  10  13
ENDBRANCH   3   7
BRANCH   1  22
HETATM   22  C   UNL     1      15.153  52.385  50.043  1.00  0.00     0.130 C 
BRANCH  22  23
HETATM   23  C   UNL     1      15.291  53.765  50.671  1.00  0.00     0.031 C 
HETATM   24  C   UNL     1      14.044  54.168  51.437  1.00  0.00     0.241 C 
HETATM   25  N   UNL     1      14.180  55.675  51.600  1.00  0.00    -0.071 N 
HETATM   26  H   UNL     1      13.262  56.087  51.378  1.00  0.00     0.279 HD
HETATM   27  C   UNL     1      15.172  56.140  50.539  1.00  0.00     0.235 C 
HETATM   28  C   UNL     1      15.429  54.914  49.682  1.00  0.00     0.035 C 
BRANCH  25  29
HETATM   29  C   UNL     1      14.540  56.088  53.007  1.00  0.00     0.234 C 
BRANCH  29  30
HETATM   30  C   UNL     1      15.328  57.393  52.995  1.00  0.00     0.023 C 
HETATM   31  C   UNL     1      15.978  57.644  54.347  1.00  0.00     0.007 C 
ENDBRANCH  29  30
ENDBRANCH  25  29
ENDBRANCH  22  23
ENDBRANCH   1  22
TORSDOF 7
ENDMDL
MODEL 6
REMARK VINA RESULT:      -7.5      3.332      5.606
REMARK  7 active torsions:
REMARK  status: ('A' for Active; 'I' for Inactive)
REMARK    1  A    between atoms: C_2  and  C_3 
REMARK    2  A    between atoms: C_3  and  N_4 
REMARK    3  A    between atoms: C_7  and  C_8 
REMARK    4  A    between atoms: C_8  and  N_9 
REMARK       I    between atoms: N_9  and  C_10 
REMARK       I    between atoms: C_10  and  N_11 
REMARK    5  A    between atoms: N_11  and  C_12 
REMARK    6  A    between atoms: C_15  and  N_16 
REMARK       I    between atoms: N_16  and  C_17 
REMARK    7  A    between atoms: C_17  and  C_18 
ROOT
HETATM    1  N   UNL     1      25.059  46.941  50.480  1.00  0.00    -0.342 N 
HETATM    2  C   UNL     1      25.694  47.741  49.578  1.00  0.00     0.320 C 
HETATM    3  N   UNL     1      24.921  48.609  48.864  1.00  0.00    -0.309 N 
HETATM    4  O   UNL     1      26.895  47.632  49.341  1.00  0.00    -0.247 OA
HETATM    5  H   UNL     1      24.062  46.835  50.353  1.00  0.00     0.164 HD
HETATM    6  H   UNL     1      25.415  48.980  48.060  1.00  0.00     0.170 HD
ENDROOT
BRANCH   3   7
HETATM    7  C   UNL     1      23.587  49.024  49.034  1.00  0.00     0.036 A 
HETATM    8  C   UNL     1      22.496  48.155  49.002  1.00  0.00     0.032 A 
HETATM    9  C   UNL     1      21.187  48.649  49.064  1.00  0.00     0.032 A 
HETATM   10  C   UNL     1      20.951  50.017  49.184  1.00  0.00     0.035 A 
HETATM   11  C   UNL     1      22.045  50.876  49.327  1.00  0.00     0.032 A 
HETATM   12  C   UNL     1      23.354  50.383  49.261  1.00  0.00     0.032 A 
BRANCH  10  13
HETATM   13  N   UNL     1      19.671  50.597  49.143  1.00  0.00    -0.321 N 
HETATM   14  C   UNL     1      18.621  50.411  50.028  1.00  0.00     0.279 C 
HETATM   15  O   UNL     1      18.678  49.760  51.067  1.00  0.00    -0.265 OA
HETATM   16  H   UNL     1      19.434  51.150  48.325  1.00  0.00     0.169 HD
BRANCH  14  17
HETATM   17  C   UNL     1      17.392  51.038  49.578  1.00  0.00     0.142 A 
HETATM   18  O   UNL     1      16.867  52.085  50.296  1.00  0.00    -0.317 OA
HETATM   19  C   UNL     1      15.751  52.498  49.641  1.00  0.00     0.143 A 
HETATM   20  C   UNL     1      15.544  51.740  48.514  1.00  0.00     0.027 A 
HETATM   21  C   UNL     1      16.598  50.796  48.473  1.00  0.00     0.045 A 
ENDBRANCH  14  17
ENDBRANCH  10  13
ENDBRANCH   3   7
BRANCH   1  22
HETATM   22  C   UNL     1      25.755  45.968  51.291  1.00  0.00     0.130 C 
BRANCH  22  23
HETATM   23  C   UNL     1      26.407  46.609  52.510  1.00  0.00     0.031 C 
HETATM   24  C   UNL     1      26.913  45.571  53.495  1.00  0.00     0.241 C 
HETATM   25  N   UNL     1      27.109  46.352  54.787  1.00  0.00    -0.071 N 
HETATM   26  H   UNL     1      26.712  45.782  55.548  1.00  0.00     0.279 HD
HETATM   27  C   UNL     1      26.269  47.619  54.661  1.00  0.00     0.235 C 
HETATM   28  C   UNL     1      25.472  47.433  53.383  1.00  0.00     0.035 C 
BRANCH  25  29
HETATM   29  C   UNL     1      28.562  46.602  55.112  1.00  0.00     0.234 C 
BRANCH  29  30
HETATM   30  C   UNL     1      28.921  45.988  56.460  1.00  0.00     0.023 C 
HETATM   31  C   UNL     1      30.361  45.499  56.465  1.00  0.00     0.007 C 
ENDBRANCH  29  30
ENDBRANCH  25  29
ENDBRANCH  22  23
ENDBRANCH   1  22
TORSDOF 7
ENDMDL
MODEL 7
REMARK VINA RESULT:      -7.4      2.883      9.303
REMARK  7 active torsions:
REMARK  status: ('A' for Active; 'I' for Inactive)
REMARK    1  A    between atoms: C_2  and  C_3 
REMARK    2  A    between atoms: C_3  and  N_4 
REMARK    3  A    between atoms: C_7  and  C_8 
REMARK    4  A    between atoms: C_8  and  N_9 
REMARK       I    between atoms: N_9  and  C_10 
REMARK       I    between atoms: C_10  and  N_11 
REMARK    5  A    between atoms: N_11  and  C_12 
REMARK    6  A    between atoms: C_15  and  N_16 
REMARK       I    between atoms: N_16  and  C_17 
REMARK    7  A    between atoms: C_17  and  C_18 
ROOT
HETATM    1  N   UNL     1      23.850  47.907  49.298  1.00  0.00    -0.342 N 
HETATM    2  C   UNL     1      23.398  46.630  49.149  1.00  0.00     0.320 C 
HETATM    3  N   UNL     1      23.918  45.686  49.985  1.00  0.00    -0.309 N 
HETATM    4  O   UNL     1      22.626  46.312  48.248  1.00  0.00    -0.247 OA
HETATM    5  H   UNL     1      24.724  48.013  49.794  1.00  0.00     0.164 HD
HETATM    6  H   UNL     1      23.726  44.745  49.657  1.00  0.00     0.170 HD
ENDROOT
BRANCH   3   7
HETATM    7  C   UNL     1      24.683  45.801  51.160  1.00  0.00     0.036 A 
HETATM    8  C   UNL     1      25.420  46.937  51.496  1.00  0.00     0.032 A 
HETATM    9  C   UNL     1      26.250  46.943  52.624  1.00  0.00     0.032 A 
HETATM   10  C   UNL     1      26.335  45.822  53.447  1.00  0.00     0.035 A 
HETATM   11  C   UNL     1      25.512  44.725  53.172  1.00  0.00     0.032 A 
HETATM   12  C   UNL     1      24.685  44.717  52.042  1.00  0.00     0.032 A 
BRANCH  10  13
HETATM   13  N   UNL     1      27.223  45.712  54.531  1.00  0.00    -0.321 N 
HETATM   14  C   UNL     1      27.490  46.652  55.514  1.00  0.00     0.279 C 
HETATM   15  O   UNL     1      26.907  47.724  55.646  1.00  0.00    -0.265 OA
HETATM   16  H   UNL     1      27.821  44.892  54.565  1.00  0.00     0.169 HD
BRANCH  14  17
HETATM   17  C   UNL     1      28.591  46.262  56.377  1.00  0.00     0.142 A 
HETATM   18  O   UNL     1      29.775  45.852  55.815  1.00  0.00    -0.317 OA
HETATM   19  C   UNL     1      30.629  45.584  56.836  1.00  0.00     0.143 A 
HETATM   20  C   UNL     1      30.021  45.812  58.047  1.00  0.00     0.027 A 
HETATM   21  C   UNL     1      28.706  46.245  57.753  1.00  0.00     0.045 A 
ENDBRANCH  14  17
ENDBRANCH  10  13
ENDBRANCH   3   7
BRANCH   1  22
HETATM   22  C   UNL     1      23.395  49.001  48.471  1.00  0.00     0.130 C 
BRANCH  22  23
HETATM   23  C   UNL     1      22.032  49.518  48.915  1.00  0.00     0.031 C 
HETATM   24  C   UNL     1      20.991  49.392  47.817  1.00  0.00     0.241 C 
HETATM   25  N   UNL     1      19.873  50.325  48.258  1.00  0.00    -0.071 N 
HETATM   26  H   UNL     1      19.585  50.865  47.429  1.00  0.00     0.279 HD
HETATM   27  C   UNL     1      20.487  51.295  49.262  1.00  0.00     0.235 C 
HETATM   28  C   UNL     1      21.976  51.008  49.222  1.00  0.00     0.035 C 
BRANCH  25  29
HETATM   29  C   UNL     1      18.658  49.590  48.771  1.00  0.00     0.234 C 
BRANCH  29  30
HETATM   30  C   UNL     1      18.430  49.900  50.246  1.00  0.00     0.023 C 
HETATM   31  C   UNL     1      18.667  48.664  51.100  1.00  0.00     0.007 C 
ENDBRANCH  29  30
ENDBRANCH  25  29
ENDBRANCH  22  23
ENDBRANCH   1  22
TORSDOF 7
ENDMDL
MODEL 8
REMARK VINA RESULT:      -7.4      2.373      9.083
REMARK  7 active torsions:
REMARK  status: ('A' for Active; 'I' for Inactive)
REMARK    1  A    between atoms: C_2  and  C_3 
REMARK    2  A    between atoms: C_3  and  N_4 
REMARK    3  A    between atoms: C_7  and  C_8 
REMARK    4  A    between atoms: C_8  and  N_9 
REMARK       I    between atoms: N_9  and  C_10 
REMARK       I    between atoms: C_10  and  N_11 
REMARK    5  A    between atoms: N_11  and  C_12 
REMARK    6  A    between atoms: C_15  and  N_16 
REMARK       I    between atoms: N_16  and  C_17 
REMARK    7  A    between atoms: C_17  and  C_18 
ROOT
HETATM    1  N   UNL     1      23.699  47.379  48.906  1.00  0.00    -0.342 N 
HETATM    2  C   UNL     1      23.131  46.201  48.523  1.00  0.00     0.320 C 
HETATM    3  N   UNL     1      23.696  45.054  49.001  1.00  0.00    -0.309 N 
HETATM    4  O   UNL     1      22.209  46.154  47.712  1.00  0.00    -0.247 OA
HETATM    5  H   UNL     1      24.643  47.321  49.261  1.00  0.00     0.164 HD
HETATM    6  H   UNL     1      23.383  44.237  48.487  1.00  0.00     0.170 HD
ENDROOT
BRANCH   3   7
HETATM    7  C   UNL     1      24.636  44.835  50.024  1.00  0.00     0.036 A 
HETATM    8  C   UNL     1      24.320  44.850  51.383  1.00  0.00     0.032 A 
HETATM    9  C   UNL     1      25.324  44.738  52.352  1.00  0.00     0.032 A 
HETATM   10  C   UNL     1      26.657  44.583  51.977  1.00  0.00     0.035 A 
HETATM   11  C   UNL     1      26.960  44.458  50.617  1.00  0.00     0.032 A 
HETATM   12  C   UNL     1      25.956  44.574  49.648  1.00  0.00     0.032 A 
BRANCH  10  13
HETATM   13  N   UNL     1      27.730  44.573  52.885  1.00  0.00    -0.321 N 
HETATM   14  C   UNL     1      28.250  43.492  53.579  1.00  0.00     0.279 C 
HETATM   15  O   UNL     1      27.901  42.324  53.435  1.00  0.00    -0.265 OA
HETATM   16  H   UNL     1      28.127  45.470  53.150  1.00  0.00     0.169 HD
BRANCH  14  17
HETATM   17  C   UNL     1      29.247  43.884  54.558  1.00  0.00     0.142 A 
HETATM   18  O   UNL     1      29.098  45.069  55.236  1.00  0.00    -0.317 OA
HETATM   19  C   UNL     1      30.138  45.168  56.102  1.00  0.00     0.143 A 
HETATM   20  C   UNL     1      30.960  44.070  55.998  1.00  0.00     0.027 A 
HETATM   21  C   UNL     1      30.388  43.244  55.002  1.00  0.00     0.045 A 
ENDBRANCH  14  17
ENDBRANCH  10  13
ENDBRANCH   3   7
BRANCH   1  22
HETATM   22  C   UNL     1      23.211  48.665  48.463  1.00  0.00     0.130 C 
BRANCH  22  23
HETATM   23  C   UNL     1      22.093  49.185  49.358  1.00  0.00     0.031 C 
HETATM   24  C   UNL     1      20.739  49.118  48.674  1.00  0.00     0.241 C 
HETATM   25  N   UNL     1      19.862  50.051  49.496  1.00  0.00    -0.071 N 
HETATM   26  H   UNL     1      19.327  50.627  48.831  1.00  0.00     0.279 HD
HETATM   27  C   UNL     1      20.805  50.972  50.263  1.00  0.00     0.235 C 
HETATM   28  C   UNL     1      22.185  50.663  49.713  1.00  0.00     0.035 C 
BRANCH  25  29
HETATM   29  C   UNL     1      18.871  49.316  50.367  1.00  0.00     0.234 C 
BRANCH  29  30
HETATM   30  C   UNL     1      18.327  48.091  49.640  1.00  0.00     0.023 C 
HETATM   31  C   UNL     1      17.196  48.478  48.701  1.00  0.00     0.007 C 
ENDBRANCH  29  30
ENDBRANCH  25  29
ENDBRANCH  22  23
ENDBRANCH   1  22
TORSDOF 7
ENDMDL
MODEL 9
REMARK VINA RESULT:      -7.3      3.302      5.992
REMARK  7 active torsions:
REMARK  status: ('A' for Active; 'I' for Inactive)
REMARK    1  A    between atoms: C_2  and  C_3 
REMARK    2  A    between atoms: C_3  and  N_4 
REMARK    3  A    between atoms: C_7  and  C_8 
REMARK    4  A    between atoms: C_8  and  N_9 
REMARK       I    between atoms: N_9  and  C_10 
REMARK       I    between atoms: C_10  and  N_11 
REMARK    5  A    between atoms: N_11  and  C_12 
REMARK    6  A    between atoms: C_15  and  N_16 
REMARK       I    between atoms: N_16  and  C_17 
REMARK    7  A    between atoms: C_17  and  C_18 
ROOT
HETATM    1  N   UNL     1      25.201  47.422  51.050  1.00  0.00    -0.342 N 
HETATM    2  C   UNL     1      25.723  47.828  49.858  1.00  0.00     0.320 C 
HETATM    3  N   UNL     1      24.858  48.367  48.951  1.00  0.00    -0.309 N 
HETATM    4  O   UNL     1      26.901  47.639  49.564  1.00  0.00    -0.247 OA
HETATM    5  H   UNL     1      24.201  47.277  51.068  1.00  0.00     0.164 HD
HETATM    6  H   UNL     1      25.264  48.411  48.023  1.00  0.00     0.170 HD
ENDROOT
BRANCH   3   7
HETATM    7  C   UNL     1      23.530  48.815  49.082  1.00  0.00     0.036 A 
HETATM    8  C   UNL     1      22.417  47.983  48.959  1.00  0.00     0.032 A 
HETATM    9  C   UNL     1      21.121  48.514  48.987  1.00  0.00     0.032 A 
HETATM   10  C   UNL     1      20.920  49.881  49.164  1.00  0.00     0.035 A 
HETATM   11  C   UNL     1      22.031  50.698  49.397  1.00  0.00     0.032 A 
HETATM   12  C   UNL     1      23.327  50.168  49.365  1.00  0.00     0.032 A 
BRANCH  10  13
HETATM   13  N   UNL     1      19.661  50.503  49.095  1.00  0.00    -0.321 N 
HETATM   14  C   UNL     1      18.603  50.387  49.983  1.00  0.00     0.279 C 
HETATM   15  O   UNL     1      18.635  49.777  51.048  1.00  0.00    -0.265 OA
HETATM   16  H   UNL     1      19.445  51.030  48.255  1.00  0.00     0.169 HD
BRANCH  14  17
HETATM   17  C   UNL     1      17.397  51.038  49.504  1.00  0.00     0.142 A 
HETATM   18  O   UNL     1      16.677  50.458  48.488  1.00  0.00    -0.317 OA
HETATM   19  C   UNL     1      15.594  51.247  48.265  1.00  0.00     0.143 A 
HETATM   20  C   UNL     1      15.600  52.327  49.116  1.00  0.00     0.027 A 
HETATM   21  C   UNL     1      16.762  52.195  49.913  1.00  0.00     0.045 A 
ENDBRANCH  14  17
ENDBRANCH  10  13
ENDBRANCH   3   7
BRANCH   1  22
HETATM   22  C   UNL     1      26.000  46.823  52.093  1.00  0.00     0.130 C 
BRANCH  22  23
HETATM   23  C   UNL     1      25.880  45.304  52.097  1.00  0.00     0.031 C 
HETATM   24  C   UNL     1      26.982  44.645  51.287  1.00  0.00     0.241 C 
HETATM   25  N   UNL     1      26.466  43.236  51.037  1.00  0.00    -0.071 N 
HETATM   26  H   UNL     1      26.644  43.020  50.045  1.00  0.00     0.279 HD
HETATM   27  C   UNL     1      24.956  43.283  51.244  1.00  0.00     0.235 C 
HETATM   28  C   UNL     1      24.632  44.754  51.421  1.00  0.00     0.035 C 
BRANCH  25  29
HETATM   29  C   UNL     1      27.173  42.191  51.867  1.00  0.00     0.234 C 
BRANCH  29  30
HETATM   30  C   UNL     1      28.558  42.680  52.276  1.00  0.00     0.023 C 
HETATM   31  C   UNL     1      28.778  42.492  53.769  1.00  0.00     0.007 C 
ENDBRANCH  29  30
ENDBRANCH  25  29
ENDBRANCH  22  23
ENDBRANCH   1  22
TORSDOF 7
ENDMDL
MODEL 10
REMARK VINA RESULT:      -7.3      1.408      2.526
REMARK  7 active torsions:
REMARK  status: ('A' for Active; 'I' for Inactive)
REMARK    1  A    between atoms: C_2  and  C_3 
REMARK    2  A    between atoms: C_3  and  N_4 
REMARK    3  A    between atoms: C_7  and  C_8 
REMARK    4  A    between atoms: C_8  and  N_9 
REMARK       I    between atoms: N_9  and  C_10 
REMARK       I    between atoms: C_10  and  N_11 
REMARK    5  A    between atoms: N_11  and  C_12 
REMARK    6  A    between atoms: C_15  and  N_16 
REMARK       I    between atoms: N_16  and  C_17 
REMARK    7  A    between atoms: C_17  and  C_18 
ROOT
HETATM    1  N   UNL     1      27.279  42.613  51.591  1.00  0.00    -0.342 N 
HETATM    2  C   UNL     1      26.596  41.565  51.052  1.00  0.00     0.320 C 
HETATM    3  N   UNL     1      25.430  41.850  50.404  1.00  0.00    -0.309 N 
HETATM    4  O   UNL     1      26.954  40.400  51.213  1.00  0.00    -0.247 OA
HETATM    5  H   UNL     1      26.749  43.462  51.731  1.00  0.00     0.164 HD
HETATM    6  H   UNL     1      24.869  41.018  50.253  1.00  0.00     0.170 HD
ENDROOT
BRANCH   3   7
HETATM    7  C   UNL     1      24.882  43.069  49.964  1.00  0.00     0.036 A 
HETATM    8  C   UNL     1      25.636  44.098  49.400  1.00  0.00     0.032 A 
HETATM    9  C   UNL     1      25.047  45.330  49.089  1.00  0.00     0.032 A 
HETATM   10  C   UNL     1      23.688  45.541  49.314  1.00  0.00     0.035 A 
HETATM   11  C   UNL     1      22.911  44.474  49.776  1.00  0.00     0.032 A 
HETATM   12  C   UNL     1      23.502  43.244  50.091  1.00  0.00     0.032 A 
BRANCH  10  13
HETATM   13  N   UNL     1      23.048  46.779  49.131  1.00  0.00    -0.321 N 
HETATM   14  C   UNL     1      23.474  48.030  49.549  1.00  0.00     0.279 C 
HETATM   15  O   UNL     1      24.554  48.269  50.082  1.00  0.00    -0.265 OA
HETATM   16  H   UNL     1      22.116  46.769  48.728  1.00  0.00     0.169 HD
BRANCH  14  17
HETATM   17  C   UNL     1      22.475  49.061  49.335  1.00  0.00     0.142 A 
HETATM   18  O   UNL     1      21.145  48.720  49.324  1.00  0.00    -0.317 OA
HETATM   19  C   UNL     1      20.440  49.866  49.142  1.00  0.00     0.143 A 
HETATM   20  C   UNL     1      21.288  50.943  49.034  1.00  0.00     0.027 A 
HETATM   21  C   UNL     1      22.599  50.426  49.155  1.00  0.00     0.045 A 
ENDBRANCH  14  17
ENDBRANCH  10  13
ENDBRANCH   3   7
BRANCH   1  22
HETATM   22  C   UNL     1      28.519  42.452  52.315  1.00  0.00     0.130 C 
BRANCH  22  23
HETATM   23  C   UNL     1      28.805  43.644  53.221  1.00  0.00     0.031 C 
HETATM   24  C   UNL     1      29.027  43.222  54.662  1.00  0.00     0.241 C 
HETATM   25  N   UNL     1      28.852  44.508  55.456  1.00  0.00    -0.071 N 
HETATM   26  H   UNL     1      28.266  44.282  56.272  1.00  0.00     0.279 HD
HETATM   27  C   UNL     1      28.069  45.466  54.565  1.00  0.00     0.235 C 
HETATM   28  C   UNL     1      27.658  44.635  53.364  1.00  0.00     0.035 C 
BRANCH  25  29
HETATM   29  C   UNL     1      30.157  45.067  55.970  1.00  0.00     0.234 C 
BRANCH  29  30
HETATM   30  C   UNL     1      31.250  44.005  55.920  1.00  0.00     0.023 C 
HETATM   31  C   UNL     1      31.588  43.512  57.318  1.00  0.00     0.007 C 
ENDBRANCH  29  30
ENDBRANCH  25  29
ENDBRANCH  22  23
ENDBRANCH   1  22
TORSDOF 7
ENDMDL
