MODEL 1
REMARK VINA RESULT:      -9.6      0.000      0.000
REMARK  5 active torsions:
REMARK  status: ('A' for Active; 'I' for Inactive)
REMARK    1  A    between atoms: C_3  and  N_4 
REMARK       I    between atoms: N_4  and  C_5 
REMARK    2  A    between atoms: C_9  and  N_10 
REMARK       I    between atoms: N_10  and  C_11 
REMARK    3  A    between atoms: C_11  and  C_12 
REMARK    4  A    between atoms: C_17  and  C_18 
REMARK    5  A    between atoms: C_24  and  C_25 
ROOT
HETATM    1  C   UNL     1      24.283  47.134  49.681  1.00  0.00     0.148 A 
HETATM    2  N   UNL     1      23.916  48.406  49.964  1.00  0.00    -0.165 NA
HETATM    3  N   UNL     1      22.698  48.512  49.399  1.00  0.00    -0.240 N 
HETATM    4  C   UNL     1      22.260  47.363  48.801  1.00  0.00     0.123 A 
HETATM    5  N   UNL     1      21.041  47.286  48.227  1.00  0.00    -0.364 N 
HETATM    6  C   UNL     1      20.229  48.488  48.020  1.00  0.00     0.143 C 
HETATM    7  C   UNL     1      20.435  49.441  49.214  1.00  0.00     0.068 C 
HETATM    8  C   UNL     1      21.927  49.741  49.452  1.00  0.00     0.221 C 
HETATM    9  C   UNL     1      23.266  46.450  48.959  1.00  0.00     0.089 A 
HETATM   10  H   UNL     1      20.823  46.514  47.597  1.00  0.00     0.162 HD
ENDROOT
BRANCH   1  11
HETATM   11  C   UNL     1      25.587  46.581  50.086  1.00  0.00     0.276 C 
HETATM   12  N   UNL     1      25.495  45.815  51.232  1.00  0.00    -0.322 N 
HETATM   13  H   UNL     1      24.550  45.755  51.604  1.00  0.00     0.169 HD
HETATM   14  O   UNL     1      26.607  46.822  49.447  1.00  0.00    -0.266 OA
BRANCH  12  15
HETATM   15  C   UNL     1      26.531  45.183  51.944  1.00  0.00     0.037 A 
HETATM   16  C   UNL     1      26.825  45.442  53.283  1.00  0.00     0.059 A 
HETATM   17  C   UNL     1      27.847  44.755  53.972  1.00  0.00     0.042 A 
HETATM   18  C   UNL     1      28.645  43.839  53.268  1.00  0.00    -0.035 A 
HETATM   19  C   UNL     1      29.851  43.139  53.829  1.00  0.00     0.050 C 
HETATM   20  C   UNL     1      28.332  43.573  51.920  1.00  0.00     0.011 A 
HETATM   21  C   UNL     1      27.291  44.234  51.266  1.00  0.00     0.030 A 
BRANCH  17  22
HETATM   22  N   UNL     1      27.983  45.117  55.334  1.00  0.00    -0.327 N 
HETATM   23  C   UNL     1      28.907  45.971  55.904  1.00  0.00     0.218 C 
HETATM   24  C   UNL     1      28.683  46.138  57.387  1.00  0.00     0.117 C 
HETATM   25  O   UNL     1      29.831  46.547  55.345  1.00  0.00    -0.274 OA
HETATM   26  H   UNL     1      27.523  44.493  55.987  1.00  0.00     0.169 HD
ENDBRANCH  17  22
ENDBRANCH  12  15
ENDBRANCH   1  11
BRANCH   8  27
HETATM   27  C   UNL     1      22.477  50.733  48.450  1.00  0.00     0.409 C 
HETATM   28  F   UNL     1      23.451  51.512  48.971  1.00  0.00    -0.169 F 
HETATM   29  F   UNL     1      22.967  50.147  47.338  1.00  0.00    -0.169 F 
HETATM   30  F   UNL     1      21.490  51.574  48.045  1.00  0.00    -0.169 F 
ENDBRANCH   8  27
BRANCH   6  31
HETATM   31  C   UNL     1      18.773  48.180  47.857  1.00  0.00     0.075 A 
HETATM   32  O   UNL     1      18.232  47.299  48.746  1.00  0.00    -0.325 OA
HETATM   33  C   UNL     1      16.915  47.179  48.436  1.00  0.00     0.142 A 
HETATM   34  C   UNL     1      16.602  47.966  47.353  1.00  0.00     0.027 A 
HETATM   35  C   UNL     1      17.802  48.613  46.974  1.00  0.00     0.037 A 
ENDBRANCH   6  31
TORSDOF 5
ENDMDL
MODEL 2
REMARK VINA RESULT:      -9.5      4.099     10.474
REMARK  5 active torsions:
REMARK  status: ('A' for Active; 'I' for Inactive)
REMARK    1  A    between atoms: C_3  and  N_4 
REMARK       I    between atoms: N_4  and  C_5 
REMARK    2  A    between atoms: C_9  and  N_10 
REMARK       I    between atoms: N_10  and  C_11 
REMARK    3  A    between atoms: C_11  and  C_12 
REMARK    4  A    between atoms: C_17  and  C_18 
REMARK    5  A    between atoms: C_24  and  C_25 
ROOT
HETATM    1  C   UNL     1      25.639  44.269  52.116  1.00  0.00     0.148 A 
HETATM    2  N   UNL     1      26.396  43.157  52.270  1.00  0.00    -0.165 NA
HETATM    3  N   UNL     1      27.328  43.536  53.164  1.00  0.00    -0.240 N 
HETATM    4  C   UNL     1      27.182  44.820  53.611  1.00  0.00     0.123 A 
HETATM    5  N   UNL     1      28.006  45.342  54.544  1.00  0.00    -0.364 N 
HETATM    6  C   UNL     1      29.224  44.638  54.951  1.00  0.00     0.143 C 
HETATM    7  C   UNL     1      28.944  43.122  54.964  1.00  0.00     0.068 C 
HETATM    8  C   UNL     1      28.375  42.637  53.616  1.00  0.00     0.221 C 
HETATM    9  C   UNL     1      26.099  45.328  52.947  1.00  0.00     0.089 A 
HETATM   10  H   UNL     1      28.029  46.351  54.696  1.00  0.00     0.162 HD
ENDROOT
BRANCH   1  11
HETATM   11  C   UNL     1      24.498  44.324  51.186  1.00  0.00     0.276 C 
HETATM   12  N   UNL     1      24.618  45.355  50.274  1.00  0.00    -0.322 N 
HETATM   13  H   UNL     1      25.470  45.901  50.389  1.00  0.00     0.169 HD
HETATM   14  O   UNL     1      23.568  43.529  51.272  1.00  0.00    -0.266 OA
BRANCH  12  15
HETATM   15  C   UNL     1      23.704  45.752  49.281  1.00  0.00     0.037 A 
HETATM   16  C   UNL     1      23.094  47.007  49.242  1.00  0.00     0.059 A 
HETATM   17  C   UNL     1      22.214  47.379  48.204  1.00  0.00     0.042 A 
HETATM   18  C   UNL     1      21.880  46.432  47.223  1.00  0.00    -0.035 A 
HETATM   19  C   UNL     1      20.856  46.638  46.142  1.00  0.00     0.050 C 
HETATM   20  C   UNL     1      22.511  45.174  47.261  1.00  0.00     0.011 A 
HETATM   21  C   UNL     1      23.410  44.837  48.274  1.00  0.00     0.030 A 
BRANCH  17  22
HETATM   22  N   UNL     1      21.716  48.701  48.303  1.00  0.00    -0.327 N 
HETATM   23  C   UNL     1      22.290  49.869  47.838  1.00  0.00     0.218 C 
HETATM   24  C   UNL     1      21.413  51.070  48.094  1.00  0.00     0.117 C 
HETATM   25  O   UNL     1      23.377  49.997  47.291  1.00  0.00    -0.274 OA
HETATM   26  H   UNL     1      20.997  48.832  49.004  1.00  0.00     0.169 HD
ENDBRANCH  17  22
ENDBRANCH  12  15
ENDBRANCH   1  11
BRANCH   8  27
HETATM   27  C   UNL     1      29.445  42.521  52.553  1.00  0.00     0.409 C 
HETATM   28  F   UNL     1      30.668  42.273  53.070  1.00  0.00    -0.169 F 
HETATM   29  F   UNL     1      29.181  41.564  51.639  1.00  0.00    -0.169 F 
HETATM   30  F   UNL     1      29.548  43.692  51.872  1.00  0.00    -0.169 F 
ENDBRANCH   8  27
BRANCH   6  31
HETATM   31  C   UNL     1      29.726  45.077  56.292  1.00  0.00     0.075 A 
HETATM   32  O   UNL     1      30.791  44.392  56.798  1.00  0.00    -0.325 OA
HETATM   33  C   UNL     1      31.093  44.957  57.996  1.00  0.00     0.142 A 
HETATM   34  C   UNL     1      30.231  45.993  58.271  1.00  0.00     0.027 A 
HETATM   35  C   UNL     1      29.344  46.070  57.171  1.00  0.00     0.037 A 
ENDBRANCH   6  31
TORSDOF 5
ENDMDL
MODEL 3
REMARK VINA RESULT:      -9.3      3.433     10.243
REMARK  5 active torsions:
REMARK  status: ('A' for Active; 'I' for Inactive)
REMARK    1  A    between atoms: C_3  and  N_4 
REMARK       I    between atoms: N_4  and  C_5 
REMARK    2  A    between atoms: C_9  and  N_10 
REMARK       I    between atoms: N_10  and  C_11 
REMARK    3  A    between atoms: C_11  and  C_12 
REMARK    4  A    between atoms: C_17  and  C_18 
REMARK    5  A    between atoms: C_24  and  C_25 
ROOT
HETATM    1  C   UNL     1      23.874  46.248  49.456  1.00  0.00     0.148 A 
HETATM    2  N   UNL     1      23.514  44.988  49.797  1.00  0.00    -0.165 NA
HETATM    3  N   UNL     1      24.623  44.496  50.382  1.00  0.00    -0.240 N 
HETATM    4  C   UNL     1      25.656  45.388  50.458  1.00  0.00     0.123 A 
HETATM    5  N   UNL     1      26.824  45.070  51.055  1.00  0.00    -0.364 N 
HETATM    6  C   UNL     1      27.117  43.688  51.444  1.00  0.00     0.143 C 
HETATM    7  C   UNL     1      25.818  43.021  51.937  1.00  0.00     0.068 C 
HETATM    8  C   UNL     1      24.687  43.140  50.897  1.00  0.00     0.221 C 
HETATM    9  C   UNL     1      25.207  46.535  49.861  1.00  0.00     0.089 A 
HETATM   10  H   UNL     1      27.648  45.651  50.905  1.00  0.00     0.162 HD
ENDROOT
BRANCH   1  11
HETATM   11  C   UNL     1      22.962  47.163  48.747  1.00  0.00     0.276 C 
HETATM   12  N   UNL     1      22.474  48.156  49.575  1.00  0.00    -0.322 N 
HETATM   13  H   UNL     1      22.824  48.097  50.528  1.00  0.00     0.169 HD
HETATM   14  O   UNL     1      22.691  47.000  47.562  1.00  0.00    -0.266 OA
BRANCH  12  15
HETATM   15  C   UNL     1      21.541  49.164  49.270  1.00  0.00     0.037 A 
HETATM   16  C   UNL     1      20.166  48.947  49.168  1.00  0.00     0.059 A 
HETATM   17  C   UNL     1      19.260  49.995  48.901  1.00  0.00     0.042 A 
HETATM   18  C   UNL     1      19.763  51.282  48.652  1.00  0.00    -0.035 A 
HETATM   19  C   UNL     1      18.935  52.460  48.221  1.00  0.00     0.050 C 
HETATM   20  C   UNL     1      21.150  51.496  48.772  1.00  0.00     0.011 A 
HETATM   21  C   UNL     1      22.028  50.454  49.076  1.00  0.00     0.030 A 
BRANCH  17  22
HETATM   22  N   UNL     1      17.900  49.601  48.869  1.00  0.00    -0.327 N 
HETATM   23  C   UNL     1      17.131  49.271  47.770  1.00  0.00     0.218 C 
HETATM   24  C   UNL     1      15.736  48.850  48.163  1.00  0.00     0.117 C 
HETATM   25  O   UNL     1      17.463  49.306  46.592  1.00  0.00    -0.274 OA
HETATM   26  H   UNL     1      17.372  49.830  49.703  1.00  0.00     0.169 HD
ENDBRANCH  17  22
ENDBRANCH  12  15
ENDBRANCH   1  11
BRANCH   8  27
HETATM   27  C   UNL     1      24.858  42.165  49.752  1.00  0.00     0.409 C 
HETATM   28  F   UNL     1      23.678  41.756  49.237  1.00  0.00    -0.169 F 
HETATM   29  F   UNL     1      25.602  42.660  48.742  1.00  0.00    -0.169 F 
HETATM   30  F   UNL     1      25.492  41.046  50.191  1.00  0.00    -0.169 F 
ENDBRANCH   8  27
BRANCH   6  31
HETATM   31  C   UNL     1      28.172  43.597  52.502  1.00  0.00     0.075 A 
HETATM   32  O   UNL     1      29.281  42.863  52.195  1.00  0.00    -0.325 OA
HETATM   33  C   UNL     1      30.109  42.927  53.271  1.00  0.00     0.142 A 
HETATM   34  C   UNL     1      29.545  43.686  54.269  1.00  0.00     0.027 A 
HETATM   35  C   UNL     1      28.291  44.118  53.775  1.00  0.00     0.037 A 
ENDBRANCH   6  31
TORSDOF 5
ENDMDL
MODEL 4
REMARK VINA RESULT:      -9.3      8.127      9.858
REMARK  5 active torsions:
REMARK  status: ('A' for Active; 'I' for Inactive)
REMARK    1  A    between atoms: C_3  and  N_4 
REMARK       I    between atoms: N_4  and  C_5 
REMARK    2  A    between atoms: C_9  and  N_10 
REMARK       I    between atoms: N_10  and  C_11 
REMARK    3  A    between atoms: C_11  and  C_12 
REMARK    4  A    between atoms: C_17  and  C_18 
REMARK    5  A    between atoms: C_24  and  C_25 
ROOT
HETATM    1  C   UNL     1      28.388  40.728  51.431  1.00  0.00     0.148 A 
HETATM    2  N   UNL     1      28.689  39.434  51.170  1.00  0.00    -0.165 NA
HETATM    3  N   UNL     1      28.442  39.317  49.851  1.00  0.00    -0.240 N 
HETATM    4  C   UNL     1      28.032  40.478  49.256  1.00  0.00     0.123 A 
HETATM    5  N   UNL     1      27.787  40.545  47.931  1.00  0.00    -0.364 N 
HETATM    6  C   UNL     1      27.728  39.330  47.114  1.00  0.00     0.143 C 
HETATM    7  C   UNL     1      28.782  38.330  47.630  1.00  0.00     0.068 C 
HETATM    8  C   UNL     1      28.623  38.064  49.140  1.00  0.00     0.221 C 
HETATM    9  C   UNL     1      27.980  41.413  50.254  1.00  0.00     0.089 A 
HETATM   10  H   UNL     1      27.271  41.337  47.548  1.00  0.00     0.162 HD
ENDROOT
BRANCH   1  11
HETATM   11  C   UNL     1      28.482  41.301  52.785  1.00  0.00     0.276 C 
HETATM   12  N   UNL     1      28.967  42.595  52.771  1.00  0.00    -0.322 N 
HETATM   13  H   UNL     1      29.175  42.939  51.836  1.00  0.00     0.169 HD
HETATM   14  O   UNL     1      28.167  40.649  53.775  1.00  0.00    -0.266 OA
BRANCH  12  15
HETATM   15  C   UNL     1      29.247  43.433  53.866  1.00  0.00     0.037 A 
HETATM   16  C   UNL     1      28.422  44.482  54.274  1.00  0.00     0.059 A 
HETATM   17  C   UNL     1      28.720  45.272  55.404  1.00  0.00     0.042 A 
HETATM   18  C   UNL     1      29.922  45.048  56.094  1.00  0.00    -0.035 A 
HETATM   19  C   UNL     1      30.436  45.895  57.224  1.00  0.00     0.050 C 
HETATM   20  C   UNL     1      30.741  43.978  55.685  1.00  0.00     0.011 A 
HETATM   21  C   UNL     1      30.410  43.181  54.588  1.00  0.00     0.030 A 
BRANCH  17  22
HETATM   22  N   UNL     1      27.756  46.268  55.694  1.00  0.00    -0.327 N 
HETATM   23  C   UNL     1      27.664  47.546  55.178  1.00  0.00     0.218 C 
HETATM   24  C   UNL     1      26.454  48.281  55.702  1.00  0.00     0.117 C 
HETATM   25  O   UNL     1      28.437  48.092  54.401  1.00  0.00    -0.274 OA
HETATM   26  H   UNL     1      27.235  46.118  56.550  1.00  0.00     0.169 HD
ENDBRANCH  17  22
ENDBRANCH  12  15
ENDBRANCH   1  11
BRANCH   8  27
HETATM   27  C   UNL     1      27.466  37.136  49.438  1.00  0.00     0.409 C 
HETATM   28  F   UNL     1      26.358  37.797  49.838  1.00  0.00    -0.169 F 
HETATM   29  F   UNL     1      27.127  36.359  48.388  1.00  0.00    -0.169 F 
HETATM   30  F   UNL     1      27.798  36.297  50.453  1.00  0.00    -0.169 F 
ENDBRANCH   8  27
BRANCH   6  31
HETATM   31  C   UNL     1      27.950  39.601  45.659  1.00  0.00     0.075 A 
HETATM   32  O   UNL     1      27.804  38.540  44.812  1.00  0.00    -0.325 OA
HETATM   33  C   UNL     1      28.026  39.003  43.554  1.00  0.00     0.142 A 
HETATM   34  C   UNL     1      28.321  40.346  43.580  1.00  0.00     0.027 A 
HETATM   35  C   UNL     1      28.275  40.734  44.940  1.00  0.00     0.037 A 
ENDBRANCH   6  31
TORSDOF 5
ENDMDL
MODEL 5
REMARK VINA RESULT:      -9.3      4.066      6.259
REMARK  5 active torsions:
REMARK  status: ('A' for Active; 'I' for Inactive)
REMARK    1  A    between atoms: C_3  and  N_4 
REMARK       I    between atoms: N_4  and  C_5 
REMARK    2  A    between atoms: C_9  and  N_10 
REMARK       I    between atoms: N_10  and  C_11 
REMARK    3  A    between atoms: C_11  and  C_12 
REMARK    4  A    between atoms: C_17  and  C_18 
REMARK    5  A    between atoms: C_24  and  C_25 
ROOT
HETATM    1  C   UNL     1      19.964  49.404  48.005  1.00  0.00     0.148 A 
HETATM    2  N   UNL     1      18.987  49.124  47.111  1.00  0.00    -0.165 NA
HETATM    3  N   UNL     1      17.927  49.809  47.583  1.00  0.00    -0.240 N 
HETATM    4  C   UNL     1      18.191  50.534  48.712  1.00  0.00     0.123 A 
HETATM    5  N   UNL     1      17.251  51.313  49.288  1.00  0.00    -0.364 N 
HETATM    6  C   UNL     1      15.850  51.238  48.864  1.00  0.00     0.143 C 
HETATM    7  C   UNL     1      15.800  51.008  47.341  1.00  0.00     0.068 C 
HETATM    8  C   UNL     1      16.634  49.781  46.924  1.00  0.00     0.221 C 
HETATM    9  C   UNL     1      19.502  50.290  49.018  1.00  0.00     0.089 A 
HETATM   10  H   UNL     1      17.388  51.659  50.237  1.00  0.00     0.162 HD
ENDROOT
BRANCH   1  11
HETATM   11  C   UNL     1      21.316  48.829  47.900  1.00  0.00     0.276 C 
HETATM   12  N   UNL     1      22.218  49.462  48.735  1.00  0.00    -0.322 N 
HETATM   13  H   UNL     1      21.803  50.212  49.284  1.00  0.00     0.169 HD
HETATM   14  O   UNL     1      21.558  47.906  47.129  1.00  0.00    -0.266 OA
BRANCH  12  15
HETATM   15  C   UNL     1      23.599  49.231  48.861  1.00  0.00     0.037 A 
HETATM   16  C   UNL     1      24.149  48.210  49.639  1.00  0.00     0.059 A 
HETATM   17  C   UNL     1      25.540  47.986  49.705  1.00  0.00     0.042 A 
HETATM   18  C   UNL     1      26.404  48.864  49.031  1.00  0.00    -0.035 A 
HETATM   19  C   UNL     1      27.904  48.835  49.122  1.00  0.00     0.050 C 
HETATM   20  C   UNL     1      25.841  49.882  48.236  1.00  0.00     0.011 A 
HETATM   21  C   UNL     1      24.459  50.064  48.152  1.00  0.00     0.030 A 
BRANCH  17  22
HETATM   22  N   UNL     1      25.920  46.886  50.512  1.00  0.00    -0.327 N 
HETATM   23  C   UNL     1      25.845  46.768  51.887  1.00  0.00     0.218 C 
HETATM   24  C   UNL     1      26.299  45.409  52.362  1.00  0.00     0.117 C 
HETATM   25  O   UNL     1      25.481  47.618  52.688  1.00  0.00    -0.274 OA
HETATM   26  H   UNL     1      26.542  46.224  50.063  1.00  0.00     0.169 HD
ENDBRANCH  17  22
ENDBRANCH  12  15
ENDBRANCH   1  11
BRANCH   8  27
HETATM   27  C   UNL     1      15.929  48.479  47.234  1.00  0.00     0.409 C 
HETATM   28  F   UNL     1      16.238  47.499  46.356  1.00  0.00    -0.169 F 
HETATM   29  F   UNL     1      16.188  48.018  48.475  1.00  0.00    -0.169 F 
HETATM   30  F   UNL     1      14.584  48.652  47.155  1.00  0.00    -0.169 F 
ENDBRANCH   8  27
BRANCH   6  31
HETATM   31  C   UNL     1      15.073  52.467  49.222  1.00  0.00     0.075 A 
HETATM   32  O   UNL     1      14.857  53.365  48.218  1.00  0.00    -0.325 OA
HETATM   33  C   UNL     1      14.125  54.381  48.745  1.00  0.00     0.142 A 
HETATM   34  C   UNL     1      13.873  54.153  50.077  1.00  0.00     0.027 A 
HETATM   35  C   UNL     1      14.487  52.917  50.389  1.00  0.00     0.037 A 
ENDBRANCH   6  31
TORSDOF 5
ENDMDL
MODEL 6
REMARK VINA RESULT:      -9.2      1.321      2.176
REMARK  5 active torsions:
REMARK  status: ('A' for Active; 'I' for Inactive)
REMARK    1  A    between atoms: C_3  and  N_4 
REMARK       I    between atoms: N_4  and  C_5 
REMARK    2  A    between atoms: C_9  and  N_10 
REMARK       I    between atoms: N_10  and  C_11 
REMARK    3  A    between atoms: C_11  and  C_12 
REMARK    4  A    between atoms: C_17  and  C_18 
REMARK    5  A    between atoms: C_24  and  C_25 
ROOT
HETATM    1  C   UNL     1      24.099  47.438  49.848  1.00  0.00     0.148 A 
HETATM    2  N   UNL     1      23.524  48.633  50.120  1.00  0.00    -0.165 NA
HETATM    3  N   UNL     1      22.464  48.664  49.291  1.00  0.00    -0.240 N 
HETATM    4  C   UNL     1      22.318  47.537  48.531  1.00  0.00     0.123 A 
HETATM    5  N   UNL     1      21.280  47.387  47.680  1.00  0.00    -0.364 N 
HETATM    6  C   UNL     1      20.396  48.512  47.366  1.00  0.00     0.143 C 
HETATM    7  C   UNL     1      20.206  49.367  48.635  1.00  0.00     0.068 C 
HETATM    8  C   UNL     1      21.557  49.797  49.239  1.00  0.00     0.221 C 
HETATM    9  C   UNL     1      23.365  46.722  48.862  1.00  0.00     0.089 A 
HETATM   10  H   UNL     1      21.308  46.659  46.966  1.00  0.00     0.162 HD
ENDROOT
BRANCH   1  11
HETATM   11  C   UNL     1      25.334  46.987  50.514  1.00  0.00     0.276 C 
HETATM   12  N   UNL     1      25.154  46.794  51.870  1.00  0.00    -0.322 N 
HETATM   13  H   UNL     1      24.206  46.988  52.185  1.00  0.00     0.169 HD
HETATM   14  O   UNL     1      26.377  46.837  49.885  1.00  0.00    -0.266 OA
BRANCH  12  15
HETATM   15  C   UNL     1      26.113  46.428  52.833  1.00  0.00     0.037 A 
HETATM   16  C   UNL     1      26.579  45.125  53.010  1.00  0.00     0.059 A 
HETATM   17  C   UNL     1      27.573  44.808  53.960  1.00  0.00     0.042 A 
HETATM   18  C   UNL     1      28.052  45.820  54.807  1.00  0.00    -0.035 A 
HETATM   19  C   UNL     1      29.002  45.606  55.952  1.00  0.00     0.050 C 
HETATM   20  C   UNL     1      27.587  47.136  54.612  1.00  0.00     0.011 A 
HETATM   21  C   UNL     1      26.632  47.437  53.639  1.00  0.00     0.030 A 
BRANCH  17  22
HETATM   22  N   UNL     1      27.952  43.444  53.980  1.00  0.00    -0.327 N 
HETATM   23  C   UNL     1      28.949  42.823  53.252  1.00  0.00     0.218 C 
HETATM   24  C   UNL     1      29.075  41.360  53.602  1.00  0.00     0.117 C 
HETATM   25  O   UNL     1      29.671  43.324  52.400  1.00  0.00    -0.274 OA
HETATM   26  H   UNL     1      27.261  42.817  54.374  1.00  0.00     0.169 HD
ENDBRANCH  17  22
ENDBRANCH  12  15
ENDBRANCH   1  11
BRANCH   8  27
HETATM   27  C   UNL     1      22.195  50.929  48.465  1.00  0.00     0.409 C 
HETATM   28  F   UNL     1      23.123  51.595  49.186  1.00  0.00    -0.169 F 
HETATM   29  F   UNL     1      22.776  50.523  47.317  1.00  0.00    -0.169 F 
HETATM   30  F   UNL     1      21.250  51.843  48.122  1.00  0.00    -0.169 F 
ENDBRANCH   8  27
BRANCH   6  31
HETATM   31  C   UNL     1      19.065  48.072  46.842  1.00  0.00     0.075 A 
HETATM   32  O   UNL     1      18.062  47.938  47.758  1.00  0.00    -0.325 OA
HETATM   33  C   UNL     1      16.951  47.555  47.077  1.00  0.00     0.142 A 
HETATM   34  C   UNL     1      17.226  47.434  45.735  1.00  0.00     0.027 A 
HETATM   35  C   UNL     1      18.593  47.765  45.581  1.00  0.00     0.037 A 
ENDBRANCH   6  31
TORSDOF 5
ENDMDL
MODEL 7
REMARK VINA RESULT:      -9.0      3.434      9.879
REMARK  5 active torsions:
REMARK  status: ('A' for Active; 'I' for Inactive)
REMARK    1  A    between atoms: C_3  and  N_4 
REMARK       I    between atoms: N_4  and  C_5 
REMARK    2  A    between atoms: C_9  and  N_10 
REMARK       I    between atoms: N_10  and  C_11 
REMARK    3  A    between atoms: C_11  and  C_12 
REMARK    4  A    between atoms: C_17  and  C_18 
REMARK    5  A    between atoms: C_24  and  C_25 
ROOT
HETATM    1  C   UNL     1      24.801  47.166  50.290  1.00  0.00     0.148 A 
HETATM    2  N   UNL     1      25.504  47.258  51.443  1.00  0.00    -0.165 NA
HETATM    3  N   UNL     1      25.939  46.000  51.644  1.00  0.00    -0.240 N 
HETATM    4  C   UNL     1      25.575  45.122  50.661  1.00  0.00     0.123 A 
HETATM    5  N   UNL     1      25.968  43.830  50.686  1.00  0.00    -0.364 N 
HETATM    6  C   UNL     1      26.605  43.260  51.876  1.00  0.00     0.143 C 
HETATM    7  C   UNL     1      27.510  44.330  52.518  1.00  0.00     0.068 C 
HETATM    8  C   UNL     1      26.739  45.634  52.799  1.00  0.00     0.221 C 
HETATM    9  C   UNL     1      24.831  45.844  49.769  1.00  0.00     0.089 A 
HETATM   10  H   UNL     1      25.509  43.147  50.083  1.00  0.00     0.162 HD
ENDROOT
BRANCH   1  11
HETATM   11  C   UNL     1      24.105  48.322  49.697  1.00  0.00     0.276 C 
HETATM   12  N   UNL     1      22.732  48.216  49.809  1.00  0.00    -0.322 N 
HETATM   13  H   UNL     1      22.428  47.368  50.282  1.00  0.00     0.169 HD
HETATM   14  O   UNL     1      24.728  49.234  49.163  1.00  0.00    -0.266 OA
BRANCH  12  15
HETATM   15  C   UNL     1      21.747  49.089  49.310  1.00  0.00     0.037 A 
HETATM   16  C   UNL     1      20.585  48.663  48.666  1.00  0.00     0.059 A 
HETATM   17  C   UNL     1      19.602  49.571  48.219  1.00  0.00     0.042 A 
HETATM   18  C   UNL     1      19.836  50.949  48.354  1.00  0.00    -0.035 A 
HETATM   19  C   UNL     1      18.949  52.030  47.802  1.00  0.00     0.050 C 
HETATM   20  C   UNL     1      21.004  51.369  49.018  1.00  0.00     0.011 A 
HETATM   21  C   UNL     1      21.947  50.454  49.490  1.00  0.00     0.030 A 
BRANCH  17  22
HETATM   22  N   UNL     1      18.471  48.963  47.621  1.00  0.00    -0.327 N 
HETATM   23  C   UNL     1      17.485  48.208  48.226  1.00  0.00     0.218 C 
HETATM   24  C   UNL     1      16.417  47.786  47.247  1.00  0.00     0.117 C 
HETATM   25  O   UNL     1      17.424  47.868  49.400  1.00  0.00    -0.274 OA
HETATM   26  H   UNL     1      18.528  48.858  46.614  1.00  0.00     0.169 HD
ENDBRANCH  17  22
ENDBRANCH  12  15
ENDBRANCH   1  11
BRANCH   8  27
HETATM   27  C   UNL     1      25.853  45.522  54.021  1.00  0.00     0.409 C 
HETATM   28  F   UNL     1      25.655  46.712  54.630  1.00  0.00    -0.169 F 
HETATM   29  F   UNL     1      24.643  44.990  53.750  1.00  0.00    -0.169 F 
HETATM   30  F   UNL     1      26.438  44.713  54.942  1.00  0.00    -0.169 F 
ENDBRANCH   8  27
BRANCH   6  31
HETATM   31  C   UNL     1      27.403  42.031  51.571  1.00  0.00     0.075 A 
HETATM   32  O   UNL     1      27.204  41.463  50.347  1.00  0.00    -0.325 OA
HETATM   33  C   UNL     1      28.030  40.387  50.270  1.00  0.00     0.142 A 
HETATM   34  C   UNL     1      28.752  40.250  51.432  1.00  0.00     0.027 A 
HETATM   35  C   UNL     1      28.347  41.310  52.276  1.00  0.00     0.037 A 
ENDBRANCH   6  31
TORSDOF 5
ENDMDL
MODEL 8
REMARK VINA RESULT:      -9.0     12.042     12.888
REMARK  5 active torsions:
REMARK  status: ('A' for Active; 'I' for Inactive)
REMARK    1  A    between atoms: C_3  and  N_4 
REMARK       I    between atoms: N_4  and  C_5 
REMARK    2  A    between atoms: C_9  and  N_10 
REMARK       I    between atoms: N_10  and  C_11 
REMARK    3  A    between atoms: C_11  and  C_12 
REMARK    4  A    between atoms: C_17  and  C_18 
REMARK    5  A    between atoms: C_24  and  C_25 
ROOT
HETATM    1  C   UNL     1      31.813  51.400  42.698  1.00  0.00     0.148 A 
HETATM    2  N   UNL     1      31.023  52.439  42.339  1.00  0.00    -0.165 NA
HETATM    3  N   UNL     1      30.010  51.846  41.679  1.00  0.00    -0.240 N 
HETATM    4  C   UNL     1      30.100  50.483  41.629  1.00  0.00     0.123 A 
HETATM    5  N   UNL     1      29.142  49.732  41.045  1.00  0.00    -0.364 N 
HETATM    6  C   UNL     1      28.085  50.353  40.242  1.00  0.00     0.143 C 
HETATM    7  C   UNL     1      27.693  51.697  40.886  1.00  0.00     0.068 C 
HETATM    8  C   UNL     1      28.919  52.606  41.096  1.00  0.00     0.221 C 
HETATM    9  C   UNL     1      31.261  50.159  42.276  1.00  0.00     0.089 A 
HETATM   10  H   UNL     1      29.329  48.756  40.816  1.00  0.00     0.162 HD
ENDROOT
BRANCH   1  11
HETATM   11  C   UNL     1      33.080  51.587  43.428  1.00  0.00     0.276 C 
HETATM   12  N   UNL     1      34.177  51.536  42.588  1.00  0.00    -0.322 N 
HETATM   13  H   UNL     1      33.933  51.383  41.612  1.00  0.00     0.169 HD
HETATM   14  O   UNL     1      33.096  51.748  44.643  1.00  0.00    -0.266 OA
BRANCH  12  15
HETATM   15  C   UNL     1      35.539  51.612  42.930  1.00  0.00     0.037 A 
HETATM   16  C   UNL     1      36.086  52.619  43.727  1.00  0.00     0.059 A 
HETATM   17  C   UNL     1      37.452  52.635  44.080  1.00  0.00     0.042 A 
HETATM   18  C   UNL     1      38.303  51.653  43.550  1.00  0.00    -0.035 A 
HETATM   19  C   UNL     1      39.796  51.623  43.724  1.00  0.00     0.050 C 
HETATM   20  C   UNL     1      37.741  50.632  42.758  1.00  0.00     0.011 A 
HETATM   21  C   UNL     1      36.379  50.611  42.452  1.00  0.00     0.030 A 
BRANCH  17  22
HETATM   22  N   UNL     1      37.827  53.708  44.925  1.00  0.00    -0.327 N 
HETATM   23  C   UNL     1      38.262  53.654  46.235  1.00  0.00     0.218 C 
HETATM   24  C   UNL     1      38.618  55.020  46.769  1.00  0.00     0.117 C 
HETATM   25  O   UNL     1      38.358  52.662  46.947  1.00  0.00    -0.274 OA
HETATM   26  H   UNL     1      37.502  54.619  44.623  1.00  0.00     0.169 HD
ENDBRANCH  17  22
ENDBRANCH  12  15
ENDBRANCH   1  11
BRANCH   8  27
HETATM   27  C   UNL     1      29.377  53.256  39.809  1.00  0.00     0.409 C 
HETATM   28  F   UNL     1      30.505  52.697  39.317  1.00  0.00    -0.169 F 
HETATM   29  F   UNL     1      28.442  53.221  38.837  1.00  0.00    -0.169 F 
HETATM   30  F   UNL     1      29.663  54.565  40.029  1.00  0.00    -0.169 F 
ENDBRANCH   8  27
BRANCH   6  31
HETATM   31  C   UNL     1      26.877  49.480  40.103  1.00  0.00     0.075 A 
HETATM   32  O   UNL     1      26.809  48.397  40.931  1.00  0.00    -0.325 OA
HETATM   33  C   UNL     1      25.640  47.762  40.657  1.00  0.00     0.142 A 
HETATM   34  C   UNL     1      24.958  48.416  39.658  1.00  0.00     0.027 A 
HETATM   35  C   UNL     1      25.758  49.526  39.296  1.00  0.00     0.037 A 
ENDBRANCH   6  31
TORSDOF 5
ENDMDL
MODEL 9
REMARK VINA RESULT:      -8.9     12.829     13.691
REMARK  5 active torsions:
REMARK  status: ('A' for Active; 'I' for Inactive)
REMARK    1  A    between atoms: C_3  and  N_4 
REMARK       I    between atoms: N_4  and  C_5 
REMARK    2  A    between atoms: C_9  and  N_10 
REMARK       I    between atoms: N_10  and  C_11 
REMARK    3  A    between atoms: C_11  and  C_12 
REMARK    4  A    between atoms: C_17  and  C_18 
REMARK    5  A    between atoms: C_24  and  C_25 
ROOT
HETATM    1  C   UNL     1      33.497  51.040  42.019  1.00  0.00     0.148 A 
HETATM    2  N   UNL     1      32.669  52.092  42.216  1.00  0.00    -0.165 NA
HETATM    3  N   UNL     1      31.498  51.667  41.703  1.00  0.00    -0.240 N 
HETATM    4  C   UNL     1      31.533  50.389  41.220  1.00  0.00     0.123 A 
HETATM    5  N   UNL     1      30.432  49.794  40.713  1.00  0.00    -0.364 N 
HETATM    6  C   UNL     1      29.215  50.565  40.449  1.00  0.00     0.143 C 
HETATM    7  C   UNL     1      29.049  51.630  41.550  1.00  0.00     0.068 C 
HETATM    8  C   UNL     1      30.311  52.503  41.692  1.00  0.00     0.221 C 
HETATM    9  C   UNL     1      32.817  49.952  41.403  1.00  0.00     0.089 A 
HETATM   10  H   UNL     1      30.523  48.943  40.158  1.00  0.00     0.162 HD
ENDROOT
BRANCH   1  11
HETATM   11  C   UNL     1      34.919  51.072  42.405  1.00  0.00     0.276 C 
HETATM   12  N   UNL     1      35.296  52.306  42.901  1.00  0.00    -0.322 N 
HETATM   13  H   UNL     1      34.537  52.983  42.923  1.00  0.00     0.169 HD
HETATM   14  O   UNL     1      35.639  50.090  42.262  1.00  0.00    -0.266 OA
BRANCH  12  15
HETATM   15  C   UNL     1      36.575  52.727  43.309  1.00  0.00     0.037 A 
HETATM   16  C   UNL     1      36.980  52.805  44.642  1.00  0.00     0.059 A 
HETATM   17  C   UNL     1      38.286  53.192  45.006  1.00  0.00     0.042 A 
HETATM   18  C   UNL     1      39.183  53.589  44.001  1.00  0.00    -0.035 A 
HETATM   19  C   UNL     1      40.554  54.156  44.246  1.00  0.00     0.050 C 
HETATM   20  C   UNL     1      38.772  53.493  42.658  1.00  0.00     0.011 A 
HETATM   21  C   UNL     1      37.487  53.069  42.315  1.00  0.00     0.030 A 
BRANCH  17  22
HETATM   22  N   UNL     1      38.535  53.180  46.400  1.00  0.00    -0.327 N 
HETATM   23  C   UNL     1      38.510  54.243  47.283  1.00  0.00     0.218 C 
HETATM   24  C   UNL     1      38.777  53.804  48.702  1.00  0.00     0.117 C 
HETATM   25  O   UNL     1      38.318  55.423  47.021  1.00  0.00    -0.274 OA
HETATM   26  H   UNL     1      39.028  52.361  46.736  1.00  0.00     0.169 HD
ENDBRANCH  17  22
ENDBRANCH  12  15
ENDBRANCH   1  11
BRANCH   8  27
HETATM   27  C   UNL     1      30.420  53.533  40.589  1.00  0.00     0.409 C 
HETATM   28  F   UNL     1      29.215  53.912  40.110  1.00  0.00    -0.169 F 
HETATM   29  F   UNL     1      31.083  54.646  40.967  1.00  0.00    -0.169 F 
HETATM   30  F   UNL     1      31.102  53.011  39.537  1.00  0.00    -0.169 F 
ENDBRANCH   8  27
BRANCH   6  31
HETATM   31  C   UNL     1      27.991  49.706  40.379  1.00  0.00     0.075 A 
HETATM   32  O   UNL     1      26.985  50.143  39.567  1.00  0.00    -0.325 OA
HETATM   33  C   UNL     1      25.992  49.219  39.634  1.00  0.00     0.142 A 
HETATM   34  C   UNL     1      26.341  48.197  40.484  1.00  0.00     0.027 A 
HETATM   35  C   UNL     1      27.632  48.511  40.970  1.00  0.00     0.037 A 
ENDBRANCH   6  31
TORSDOF 5
ENDMDL
MODEL 10
REMARK VINA RESULT:      -8.8      3.431     10.339
REMARK  5 active torsions:
REMARK  status: ('A' for Active; 'I' for Inactive)
REMARK    1  A    between atoms: C_3  and  N_4 
REMARK       I    between atoms: N_4  and  C_5 
REMARK    2  A    between atoms: C_9  and  N_10 
REMARK       I    between atoms: N_10  and  C_11 
REMARK    3  A    between atoms: C_11  and  C_12 
REMARK    4  A    between atoms: C_17  and  C_18 
REMARK    5  A    between atoms: C_24  and  C_25 
ROOT
HETATM    1  C   UNL     1      25.188  45.827  51.143  1.00  0.00     0.148 A 
HETATM    2  N   UNL     1      25.498  44.540  51.425  1.00  0.00    -0.165 NA
HETATM    3  N   UNL     1      26.403  44.648  52.416  1.00  0.00    -0.240 N 
HETATM    4  C   UNL     1      26.658  45.935  52.800  1.00  0.00     0.123 A 
HETATM    5  N   UNL     1      27.506  46.216  53.813  1.00  0.00    -0.364 N 
HETATM    6  C   UNL     1      28.360  45.175  54.390  1.00  0.00     0.143 C 
HETATM    7  C   UNL     1      27.579  43.846  54.415  1.00  0.00     0.068 C 
HETATM    8  C   UNL     1      27.025  43.485  53.023  1.00  0.00     0.221 C 
HETATM    9  C   UNL     1      25.891  46.727  51.991  1.00  0.00     0.089 A 
HETATM   10  H   UNL     1      27.856  47.166  53.934  1.00  0.00     0.162 HD
ENDROOT
BRANCH   1  11
HETATM   11  C   UNL     1      24.240  46.195  50.076  1.00  0.00     0.276 C 
HETATM   12  N   UNL     1      23.795  47.497  50.201  1.00  0.00    -0.322 N 
HETATM   13  H   UNL     1      24.193  47.987  50.999  1.00  0.00     0.169 HD
HETATM   14  O   UNL     1      23.909  45.388  49.214  1.00  0.00    -0.266 OA
BRANCH  12  15
HETATM   15  C   UNL     1      22.847  48.173  49.411  1.00  0.00     0.037 A 
HETATM   16  C   UNL     1      21.592  47.654  49.088  1.00  0.00     0.059 A 
HETATM   17  C   UNL     1      20.654  48.383  48.328  1.00  0.00     0.042 A 
HETATM   18  C   UNL     1      21.022  49.637  47.813  1.00  0.00    -0.035 A 
HETATM   19  C   UNL     1      20.184  50.462  46.877  1.00  0.00     0.050 C 
HETATM   20  C   UNL     1      22.284  50.159  48.156  1.00  0.00     0.011 A 
HETATM   21  C   UNL     1      23.184  49.439  48.944  1.00  0.00     0.030 A 
BRANCH  17  22
HETATM   22  N   UNL     1      19.419  47.720  48.126  1.00  0.00    -0.327 N 
HETATM   23  C   UNL     1      18.288  47.756  48.919  1.00  0.00     0.218 C 
HETATM   24  C   UNL     1      17.157  46.952  48.327  1.00  0.00     0.117 C 
HETATM   25  O   UNL     1      18.149  48.332  49.990  1.00  0.00    -0.274 OA
HETATM   26  H   UNL     1      19.455  46.944  47.475  1.00  0.00     0.169 HD
ENDBRANCH  17  22
ENDBRANCH  12  15
ENDBRANCH   1  11
BRANCH   8  27
HETATM   27  C   UNL     1      28.098  42.940  52.106  1.00  0.00     0.409 C 
HETATM   28  F   UNL     1      27.614  42.049  51.213  1.00  0.00    -0.169 F 
HETATM   29  F   UNL     1      28.746  43.903  51.418  1.00  0.00    -0.169 F 
HETATM   30  F   UNL     1      29.036  42.281  52.834  1.00  0.00    -0.169 F 
ENDBRANCH   8  27
BRANCH   6  31
HETATM   31  C   UNL     1      28.834  45.516  55.768  1.00  0.00     0.075 A 
HETATM   32  O   UNL     1      30.073  45.062  56.116  1.00  0.00    -0.325 OA
HETATM   33  C   UNL     1      30.314  45.494  57.381  1.00  0.00     0.142 A 
HETATM   34  C   UNL     1      29.243  46.213  57.856  1.00  0.00     0.027 A 
HETATM   35  C   UNL     1      28.283  46.227  56.816  1.00  0.00     0.037 A 
ENDBRANCH   6  31
TORSDOF 5
ENDMDL
