MODEL 1
REMARK VINA RESULT:      -8.8      0.000      0.000
REMARK  5 active torsions:
REMARK  status: ('A' for Active; 'I' for Inactive)
REMARK    1  A    between atoms: C_2  and  C_3 
REMARK    2  A    between atoms: N_4  and  C_5 
REMARK    3  A    between atoms: C_5  and  C_6 
REMARK    4  A    between atoms: C_11  and  N_12 
REMARK       I    between atoms: N_12  and  C_13 
REMARK       I    between atoms: C_13  and  N_14 
REMARK    5  A    between atoms: N_14  and  C_15 
ROOT
HETATM    1  N   UNL     1      26.338  44.511  53.685  1.00  0.00    -0.306 N 
HETATM    2  C   UNL     1      25.707  44.964  52.563  1.00  0.00     0.321 C 
HETATM    3  N   UNL     1      26.442  45.763  51.734  1.00  0.00    -0.333 N 
HETATM    4  O   UNL     1      24.565  44.590  52.316  1.00  0.00    -0.247 OA
HETATM    5  H   UNL     1      25.829  43.774  54.147  1.00  0.00     0.171 HD
HETATM    6  H   UNL     1      27.432  45.555  51.759  1.00  0.00     0.165 HD
ENDROOT
BRANCH   1   7
HETATM    7  C   UNL     1      27.366  45.104  54.397  1.00  0.00     0.080 A 
HETATM    8  C   UNL     1      28.673  44.642  54.464  1.00  0.00     0.058 A 
HETATM    9  N   UNL     1      29.285  45.457  55.402  1.00  0.00    -0.272 N 
HETATM   10  N   UNL     1      28.507  46.467  55.830  1.00  0.00    -0.182 NA
HETATM   11  C   UNL     1      27.334  46.231  55.247  1.00  0.00     0.170 A 
BRANCH   8  12
HETATM   12  C   UNL     1      29.440  43.544  53.783  1.00  0.00     0.057 C 
HETATM   13  C   UNL     1      29.004  42.123  54.089  1.00  0.00     0.011 C 
ENDBRANCH   8  12
BRANCH   9  14
HETATM   14  C   UNL     1      30.617  45.334  55.977  1.00  0.00     0.155 C 
BRANCH  14  15
HETATM   15  C   UNL     1      30.673  44.409  57.206  1.00  0.00    -0.003 C 
HETATM   16  C   UNL     1      31.733  43.315  57.061  1.00  0.00     0.011 C 
HETATM   17  C   UNL     1      30.953  45.233  58.464  1.00  0.00     0.011 C 
ENDBRANCH  14  15
ENDBRANCH   9  14
ENDBRANCH   1   7
BRANCH   3  18
HETATM   18  C   UNL     1      25.910  46.320  50.479  1.00  0.00     0.039 C 
HETATM   19  C   UNL     1      25.847  45.202  49.415  1.00  0.00     0.039 C 
HETATM   20  C   UNL     1      24.473  46.892  50.706  1.00  0.00     0.070 C 
HETATM   21  C   UNL     1      24.422  48.045  49.751  1.00  0.00    -0.049 A 
HETATM   22  C   UNL     1      25.703  48.400  49.324  1.00  0.00    -0.049 A 
HETATM   23  C   UNL     1      23.308  48.750  49.327  1.00  0.00     0.007 A 
HETATM   24  C   UNL     1      26.745  47.528  49.953  1.00  0.00     0.070 C 
HETATM   25  C   UNL     1      25.900  49.464  48.459  1.00  0.00     0.007 A 
HETATM   26  C   UNL     1      24.782  50.173  48.014  1.00  0.00     0.001 A 
HETATM   27  C   UNL     1      23.496  49.819  48.447  1.00  0.00     0.001 A 
ENDBRANCH   3  18
TORSDOF 5
ENDMDL
MODEL 2
REMARK VINA RESULT:      -8.8      1.859      8.307
REMARK  5 active torsions:
REMARK  status: ('A' for Active; 'I' for Inactive)
REMARK    1  A    between atoms: C_2  and  C_3 
REMARK    2  A    between atoms: N_4  and  C_5 
REMARK    3  A    between atoms: C_5  and  C_6 
REMARK    4  A    between atoms: C_11  and  N_12 
REMARK       I    between atoms: N_12  and  C_13 
REMARK       I    between atoms: C_13  and  N_14 
REMARK    5  A    between atoms: N_14  and  C_15 
ROOT
HETATM    1  N   UNL     1      26.505  44.669  49.841  1.00  0.00    -0.306 N 
HETATM    2  C   UNL     1      27.152  44.465  51.025  1.00  0.00     0.321 C 
HETATM    3  N   UNL     1      26.414  44.651  52.159  1.00  0.00    -0.333 N 
HETATM    4  O   UNL     1      28.312  44.065  51.023  1.00  0.00    -0.247 OA
HETATM    5  H   UNL     1      27.026  44.325  49.049  1.00  0.00     0.171 HD
HETATM    6  H   UNL     1      25.431  44.447  52.030  1.00  0.00     0.165 HD
ENDROOT
BRANCH   1   7
HETATM    7  C   UNL     1      25.439  45.509  49.572  1.00  0.00     0.080 A 
HETATM    8  C   UNL     1      25.431  46.885  49.752  1.00  0.00     0.058 A 
HETATM    9  N   UNL     1      24.122  47.264  49.501  1.00  0.00    -0.272 N 
HETATM   10  N   UNL     1      23.346  46.259  49.055  1.00  0.00    -0.182 NA
HETATM   11  C   UNL     1      24.136  45.191  49.133  1.00  0.00     0.170 A 
BRANCH   8  12
HETATM   12  C   UNL     1      26.466  47.907  50.129  1.00  0.00     0.057 C 
HETATM   13  C   UNL     1      27.446  48.310  49.043  1.00  0.00     0.011 C 
ENDBRANCH   8  12
BRANCH   9  14
HETATM   14  C   UNL     1      23.506  48.570  49.682  1.00  0.00     0.155 C 
BRANCH  14  15
HETATM   15  C   UNL     1      23.232  49.308  48.359  1.00  0.00    -0.003 C 
HETATM   16  C   UNL     1      21.994  50.205  48.442  1.00  0.00     0.011 C 
HETATM   17  C   UNL     1      24.450  50.147  47.971  1.00  0.00     0.011 C 
ENDBRANCH  14  15
ENDBRANCH   9  14
ENDBRANCH   1   7
BRANCH   3  18
HETATM   18  C   UNL     1      26.962  44.456  53.513  1.00  0.00     0.039 C 
HETATM   19  C   UNL     1      25.831  43.989  54.455  1.00  0.00     0.039 C 
HETATM   20  C   UNL     1      28.089  43.375  53.491  1.00  0.00     0.070 C 
HETATM   21  C   UNL     1      29.024  43.849  54.561  1.00  0.00    -0.049 A 
HETATM   22  C   UNL     1      28.771  45.182  54.894  1.00  0.00    -0.049 A 
HETATM   23  C   UNL     1      30.053  43.148  55.165  1.00  0.00     0.007 A 
HETATM   24  C   UNL     1      27.646  45.740  54.077  1.00  0.00     0.070 C 
HETATM   25  C   UNL     1      29.536  45.841  55.841  1.00  0.00     0.007 A 
HETATM   26  C   UNL     1      30.567  45.139  56.466  1.00  0.00     0.001 A 
HETATM   27  C   UNL     1      30.825  43.801  56.129  1.00  0.00     0.001 A 
ENDBRANCH   3  18
TORSDOF 5
ENDMDL
MODEL 3
REMARK VINA RESULT:      -8.6      1.816      8.430
REMARK  5 active torsions:
REMARK  status: ('A' for Active; 'I' for Inactive)
REMARK    1  A    between atoms: C_2  and  C_3 
REMARK    2  A    between atoms: N_4  and  C_5 
REMARK    3  A    between atoms: C_5  and  C_6 
REMARK    4  A    between atoms: C_11  and  N_12 
REMARK       I    between atoms: N_12  and  C_13 
REMARK       I    between atoms: C_13  and  N_14 
REMARK    5  A    between atoms: N_14  and  C_15 
ROOT
HETATM    1  N   UNL     1      26.373  44.954  50.261  1.00  0.00    -0.306 N 
HETATM    2  C   UNL     1      27.037  44.499  51.363  1.00  0.00     0.321 C 
HETATM    3  N   UNL     1      26.583  44.945  52.571  1.00  0.00    -0.333 N 
HETATM    4  O   UNL     1      27.939  43.678  51.233  1.00  0.00    -0.247 OA
HETATM    5  H   UNL     1      26.611  44.443  49.424  1.00  0.00     0.171 HD
HETATM    6  H   UNL     1      25.591  45.144  52.573  1.00  0.00     0.165 HD
ENDROOT
BRANCH   1   7
HETATM    7  C   UNL     1      25.693  46.147  50.093  1.00  0.00     0.080 A 
HETATM    8  C   UNL     1      24.375  46.273  49.675  1.00  0.00     0.058 A 
HETATM    9  N   UNL     1      24.189  47.636  49.509  1.00  0.00    -0.272 N 
HETATM   10  N   UNL     1      25.237  48.376  49.910  1.00  0.00    -0.182 NA
HETATM   11  C   UNL     1      26.160  47.472  50.230  1.00  0.00     0.170 A 
BRANCH   8  12
HETATM   12  C   UNL     1      23.258  45.307  49.403  1.00  0.00     0.057 C 
HETATM   13  C   UNL     1      23.320  44.553  48.086  1.00  0.00     0.011 C 
ENDBRANCH   8  12
BRANCH   9  14
HETATM   14  C   UNL     1      23.040  48.331  48.947  1.00  0.00     0.155 C 
BRANCH  14  15
HETATM   15  C   UNL     1      23.150  49.864  49.030  1.00  0.00    -0.003 C 
HETATM   16  C   UNL     1      23.354  50.506  47.656  1.00  0.00     0.011 C 
HETATM   17  C   UNL     1      21.892  50.439  49.685  1.00  0.00     0.011 C 
ENDBRANCH  14  15
ENDBRANCH   9  14
ENDBRANCH   1   7
BRANCH   3  18
HETATM   18  C   UNL     1      27.183  44.536  53.853  1.00  0.00     0.039 C 
HETATM   19  C   UNL     1      26.117  43.810  54.703  1.00  0.00     0.039 C 
HETATM   20  C   UNL     1      28.385  43.570  53.605  1.00  0.00     0.070 C 
HETATM   21  C   UNL     1      29.313  43.899  54.734  1.00  0.00    -0.049 A 
HETATM   22  C   UNL     1      28.973  45.119  55.323  1.00  0.00    -0.049 A 
HETATM   23  C   UNL     1      30.409  43.176  55.175  1.00  0.00     0.007 A 
HETATM   24  C   UNL     1      27.788  45.736  54.646  1.00  0.00     0.070 C 
HETATM   25  C   UNL     1      29.716  45.640  56.369  1.00  0.00     0.007 A 
HETATM   26  C   UNL     1      30.813  44.912  56.831  1.00  0.00     0.001 A 
HETATM   27  C   UNL     1      31.158  43.689  56.236  1.00  0.00     0.001 A 
ENDBRANCH   3  18
TORSDOF 5
ENDMDL
MODEL 4
REMARK VINA RESULT:      -8.2      1.630      2.356
REMARK  5 active torsions:
REMARK  status: ('A' for Active; 'I' for Inactive)
REMARK    1  A    between atoms: C_2  and  C_3 
REMARK    2  A    between atoms: N_4  and  C_5 
REMARK    3  A    between atoms: C_5  and  C_6 
REMARK    4  A    between atoms: C_11  and  N_12 
REMARK       I    between atoms: N_12  and  C_13 
REMARK       I    between atoms: C_13  and  N_14 
REMARK    5  A    between atoms: N_14  and  C_15 
ROOT
HETATM    1  N   UNL     1      26.458  44.092  53.907  1.00  0.00    -0.306 N 
HETATM    2  C   UNL     1      25.815  44.385  52.739  1.00  0.00     0.321 C 
HETATM    3  N   UNL     1      26.551  45.029  51.786  1.00  0.00    -0.333 N 
HETATM    4  O   UNL     1      24.660  44.007  52.570  1.00  0.00    -0.247 OA
HETATM    5  H   UNL     1      25.941  43.446  54.484  1.00  0.00     0.171 HD
HETATM    6  H   UNL     1      27.536  44.801  51.826  1.00  0.00     0.165 HD
ENDROOT
BRANCH   1   7
HETATM    7  C   UNL     1      27.513  44.758  54.503  1.00  0.00     0.080 A 
HETATM    8  C   UNL     1      28.797  44.258  54.664  1.00  0.00     0.058 A 
HETATM    9  N   UNL     1      29.448  45.204  55.438  1.00  0.00    -0.272 N 
HETATM   10  N   UNL     1      28.718  46.310  55.665  1.00  0.00    -0.182 NA
HETATM   11  C   UNL     1      27.535  46.024  55.129  1.00  0.00     0.170 A 
BRANCH   8  12
HETATM   12  C   UNL     1      29.512  43.019  54.203  1.00  0.00     0.057 C 
HETATM   13  C   UNL     1      29.700  42.864  52.704  1.00  0.00     0.011 C 
ENDBRANCH   8  12
BRANCH   9  14
HETATM   14  C   UNL     1      30.774  45.130  56.034  1.00  0.00     0.155 C 
BRANCH  14  15
HETATM   15  C   UNL     1      30.833  44.244  57.291  1.00  0.00    -0.003 C 
HETATM   16  C   UNL     1      31.960  43.211  57.220  1.00  0.00     0.011 C 
HETATM   17  C   UNL     1      31.015  45.118  58.534  1.00  0.00     0.011 C 
ENDBRANCH  14  15
ENDBRANCH   9  14
ENDBRANCH   1   7
BRANCH   3  18
HETATM   18  C   UNL     1      26.006  45.402  50.469  1.00  0.00     0.039 C 
HETATM   19  C   UNL     1      27.125  46.047  49.622  1.00  0.00     0.039 C 
HETATM   20  C   UNL     1      25.468  44.137  49.727  1.00  0.00     0.070 C 
HETATM   21  C   UNL     1      24.316  44.680  48.939  1.00  0.00    -0.049 A 
HETATM   22  C   UNL     1      23.931  45.936  49.414  1.00  0.00    -0.049 A 
HETATM   23  C   UNL     1      23.637  44.075  47.895  1.00  0.00     0.007 A 
HETATM   24  C   UNL     1      24.779  46.360  50.573  1.00  0.00     0.070 C 
HETATM   25  C   UNL     1      22.863  46.617  48.853  1.00  0.00     0.007 A 
HETATM   26  C   UNL     1      22.181  46.021  47.792  1.00  0.00     0.001 A 
HETATM   27  C   UNL     1      22.564  44.758  47.317  1.00  0.00     0.001 A 
ENDBRANCH   3  18
TORSDOF 5
ENDMDL
MODEL 5
REMARK VINA RESULT:      -8.1      2.599      8.820
REMARK  5 active torsions:
REMARK  status: ('A' for Active; 'I' for Inactive)
REMARK    1  A    between atoms: C_2  and  C_3 
REMARK    2  A    between atoms: N_4  and  C_5 
REMARK    3  A    between atoms: C_5  and  C_6 
REMARK    4  A    between atoms: C_11  and  N_12 
REMARK       I    between atoms: N_12  and  C_13 
REMARK       I    between atoms: C_13  and  N_14 
REMARK    5  A    between atoms: N_14  and  C_15 
ROOT
HETATM    1  N   UNL     1      25.022  47.265  51.280  1.00  0.00    -0.306 N 
HETATM    2  C   UNL     1      25.545  46.811  52.456  1.00  0.00     0.321 C 
HETATM    3  N   UNL     1      26.173  45.599  52.412  1.00  0.00    -0.333 N 
HETATM    4  O   UNL     1      25.494  47.518  53.457  1.00  0.00    -0.247 OA
HETATM    5  H   UNL     1      24.757  48.237  51.322  1.00  0.00     0.171 HD
HETATM    6  H   UNL     1      26.596  45.404  51.514  1.00  0.00     0.165 HD
ENDROOT
BRANCH   1   7
HETATM    7  C   UNL     1      24.553  46.534  50.203  1.00  0.00     0.080 A 
HETATM    8  C   UNL     1      23.598  46.963  49.291  1.00  0.00     0.058 A 
HETATM    9  N   UNL     1      23.344  45.853  48.502  1.00  0.00    -0.272 N 
HETATM   10  N   UNL     1      24.152  44.810  48.762  1.00  0.00    -0.182 NA
HETATM   11  C   UNL     1      24.859  45.212  49.815  1.00  0.00     0.170 A 
BRANCH   8  12
HETATM   12  C   UNL     1      22.879  48.259  49.047  1.00  0.00     0.057 C 
HETATM   13  C   UNL     1      23.663  49.343  48.328  1.00  0.00     0.011 C 
ENDBRANCH   8  12
BRANCH   9  14
HETATM   14  C   UNL     1      22.324  45.684  47.478  1.00  0.00     0.155 C 
BRANCH  14  15
HETATM   15  C   UNL     1      21.233  44.668  47.860  1.00  0.00    -0.003 C 
HETATM   16  C   UNL     1      20.199  45.260  48.821  1.00  0.00     0.011 C 
HETATM   17  C   UNL     1      20.531  44.161  46.599  1.00  0.00     0.011 C 
ENDBRANCH  14  15
ENDBRANCH   9  14
ENDBRANCH   1   7
BRANCH   3  18
HETATM   18  C   UNL     1      26.800  44.978  53.592  1.00  0.00     0.039 C 
HETATM   19  C   UNL     1      25.708  44.299  54.448  1.00  0.00     0.039 C 
HETATM   20  C   UNL     1      27.844  43.904  53.149  1.00  0.00     0.070 C 
HETATM   21  C   UNL     1      28.883  43.989  54.226  1.00  0.00    -0.049 A 
HETATM   22  C   UNL     1      28.748  45.168  54.962  1.00  0.00    -0.049 A 
HETATM   23  C   UNL     1      29.901  43.090  54.499  1.00  0.00     0.007 A 
HETATM   24  C   UNL     1      27.611  45.998  54.451  1.00  0.00     0.070 C 
HETATM   25  C   UNL     1      29.622  45.473  55.991  1.00  0.00     0.007 A 
HETATM   26  C   UNL     1      30.643  44.567  56.284  1.00  0.00     0.001 A 
HETATM   27  C   UNL     1      30.782  43.385  55.542  1.00  0.00     0.001 A 
ENDBRANCH   3  18
TORSDOF 5
ENDMDL
MODEL 6
REMARK VINA RESULT:      -8.0      3.594      6.097
REMARK  5 active torsions:
REMARK  status: ('A' for Active; 'I' for Inactive)
REMARK    1  A    between atoms: C_2  and  C_3 
REMARK    2  A    between atoms: N_4  and  C_5 
REMARK    3  A    between atoms: C_5  and  C_6 
REMARK    4  A    between atoms: C_11  and  N_12 
REMARK       I    between atoms: N_12  and  C_13 
REMARK       I    between atoms: C_13  and  N_14 
REMARK    5  A    between atoms: N_14  and  C_15 
ROOT
HETATM    1  N   UNL     1      24.585  47.822  49.442  1.00  0.00    -0.306 N 
HETATM    2  C   UNL     1      23.561  48.478  48.822  1.00  0.00     0.321 C 
HETATM    3  N   UNL     1      22.317  48.304  49.358  1.00  0.00    -0.333 N 
HETATM    4  O   UNL     1      23.802  49.230  47.883  1.00  0.00    -0.247 OA
HETATM    5  H   UNL     1      25.493  48.143  49.139  1.00  0.00     0.171 HD
HETATM    6  H   UNL     1      22.336  48.137  50.356  1.00  0.00     0.165 HD
ENDROOT
BRANCH   1   7
HETATM    7  C   UNL     1      24.547  46.640  50.158  1.00  0.00     0.080 A 
HETATM    8  C   UNL     1      25.279  46.366  51.305  1.00  0.00     0.058 A 
HETATM    9  N   UNL     1      25.031  45.028  51.568  1.00  0.00    -0.272 N 
HETATM   10  N   UNL     1      24.108  44.481  50.758  1.00  0.00    -0.182 NA
HETATM   11  C   UNL     1      23.842  45.447  49.883  1.00  0.00     0.170 A 
BRANCH   8  12
HETATM   12  C   UNL     1      26.183  47.169  52.196  1.00  0.00     0.057 C 
HETATM   13  C   UNL     1      25.731  47.348  53.635  1.00  0.00     0.011 C 
ENDBRANCH   8  12
BRANCH   9  14
HETATM   14  C   UNL     1      25.652  44.172  52.568  1.00  0.00     0.155 C 
BRANCH  14  15
HETATM   15  C   UNL     1      27.081  43.732  52.198  1.00  0.00    -0.003 C 
HETATM   16  C   UNL     1      28.081  44.005  53.323  1.00  0.00     0.011 C 
HETATM   17  C   UNL     1      27.092  42.243  51.850  1.00  0.00     0.011 C 
ENDBRANCH  14  15
ENDBRANCH   9  14
ENDBRANCH   1   7
BRANCH   3  18
HETATM   18  C   UNL     1      21.112  48.953  48.814  1.00  0.00     0.039 C 
HETATM   19  C   UNL     1      20.684  48.225  47.521  1.00  0.00     0.039 C 
HETATM   20  C   UNL     1      19.945  48.886  49.850  1.00  0.00     0.070 C 
HETATM   21  C   UNL     1      19.197  50.157  49.590  1.00  0.00    -0.049 A 
HETATM   22  C   UNL     1      19.972  51.052  48.847  1.00  0.00    -0.049 A 
HETATM   23  C   UNL     1      17.928  50.503  50.022  1.00  0.00     0.007 A 
HETATM   24  C   UNL     1      21.319  50.475  48.539  1.00  0.00     0.070 C 
HETATM   25  C   UNL     1      19.493  52.308  48.514  1.00  0.00     0.007 A 
HETATM   26  C   UNL     1      18.209  52.661  48.934  1.00  0.00     0.001 A 
HETATM   27  C   UNL     1      17.433  51.765  49.684  1.00  0.00     0.001 A 
ENDBRANCH   3  18
TORSDOF 5
ENDMDL
MODEL 7
REMARK VINA RESULT:      -8.0      3.036      9.109
REMARK  5 active torsions:
REMARK  status: ('A' for Active; 'I' for Inactive)
REMARK    1  A    between atoms: C_2  and  C_3 
REMARK    2  A    between atoms: N_4  and  C_5 
REMARK    3  A    between atoms: C_5  and  C_6 
REMARK    4  A    between atoms: C_11  and  N_12 
REMARK       I    between atoms: N_12  and  C_13 
REMARK       I    between atoms: C_13  and  N_14 
REMARK    5  A    between atoms: N_14  and  C_15 
ROOT
HETATM    1  N   UNL     1      24.655  47.922  49.653  1.00  0.00    -0.306 N 
HETATM    2  C   UNL     1      25.320  47.124  50.539  1.00  0.00     0.321 C 
HETATM    3  N   UNL     1      24.937  45.814  50.581  1.00  0.00    -0.333 N 
HETATM    4  O   UNL     1      26.253  47.585  51.189  1.00  0.00    -0.247 OA
HETATM    5  H   UNL     1      25.107  48.813  49.516  1.00  0.00     0.171 HD
HETATM    6  H   UNL     1      24.589  45.474  49.694  1.00  0.00     0.165 HD
ENDROOT
BRANCH   1   7
HETATM    7  C   UNL     1      23.361  47.798  49.182  1.00  0.00     0.080 A 
HETATM    8  C   UNL     1      22.394  48.794  49.205  1.00  0.00     0.058 A 
HETATM    9  N   UNL     1      21.235  48.168  48.778  1.00  0.00    -0.272 N 
HETATM   10  N   UNL     1      21.425  46.901  48.369  1.00  0.00    -0.182 NA
HETATM   11  C   UNL     1      22.705  46.667  48.648  1.00  0.00     0.170 A 
BRANCH   8  12
HETATM   12  C   UNL     1      22.390  50.251  49.571  1.00  0.00     0.057 C 
HETATM   13  C   UNL     1      23.004  51.205  48.562  1.00  0.00     0.011 C 
ENDBRANCH   8  12
BRANCH   9  14
HETATM   14  C   UNL     1      19.879  48.697  48.746  1.00  0.00     0.155 C 
BRANCH  14  15
HETATM   15  C   UNL     1      18.924  47.996  49.730  1.00  0.00    -0.003 C 
HETATM   16  C   UNL     1      18.724  48.801  51.016  1.00  0.00     0.011 C 
HETATM   17  C   UNL     1      17.571  47.756  49.058  1.00  0.00     0.011 C 
ENDBRANCH  14  15
ENDBRANCH   9  14
ENDBRANCH   1   7
BRANCH   3  18
HETATM   18  C   UNL     1      25.566  44.824  51.473  1.00  0.00     0.039 C 
HETATM   19  C   UNL     1      24.668  43.570  51.551  1.00  0.00     0.039 C 
HETATM   20  C   UNL     1      26.970  44.415  50.924  1.00  0.00     0.070 C 
HETATM   21  C   UNL     1      27.750  44.149  52.176  1.00  0.00    -0.049 A 
HETATM   22  C   UNL     1      27.110  44.696  53.291  1.00  0.00    -0.049 A 
HETATM   23  C   UNL     1      28.966  43.499  52.299  1.00  0.00     0.007 A 
HETATM   24  C   UNL     1      25.841  45.388  52.902  1.00  0.00     0.070 C 
HETATM   25  C   UNL     1      27.669  44.599  54.554  1.00  0.00     0.007 A 
HETATM   26  C   UNL     1      28.887  43.933  54.692  1.00  0.00     0.001 A 
HETATM   27  C   UNL     1      29.533  43.388  53.571  1.00  0.00     0.001 A 
ENDBRANCH   3  18
TORSDOF 5
ENDMDL
MODEL 8
REMARK VINA RESULT:      -7.8      3.691      5.586
REMARK  5 active torsions:
REMARK  status: ('A' for Active; 'I' for Inactive)
REMARK    1  A    between atoms: C_2  and  C_3 
REMARK    2  A    between atoms: N_4  and  C_5 
REMARK    3  A    between atoms: C_5  and  C_6 
REMARK    4  A    between atoms: C_11  and  N_12 
REMARK       I    between atoms: N_12  and  C_13 
REMARK       I    between atoms: C_13  and  N_14 
REMARK    5  A    between atoms: N_14  and  C_15 
ROOT
HETATM    1  N   UNL     1      25.322  42.633  51.450  1.00  0.00    -0.306 N 
HETATM    2  C   UNL     1      25.092  43.974  51.551  1.00  0.00     0.321 C 
HETATM    3  N   UNL     1      25.883  44.784  50.787  1.00  0.00    -0.333 N 
HETATM    4  O   UNL     1      24.167  44.381  52.246  1.00  0.00    -0.247 OA
HETATM    5  H   UNL     1      24.589  42.080  51.869  1.00  0.00     0.171 HD
HETATM    6  H   UNL     1      26.187  44.344  49.928  1.00  0.00     0.165 HD
ENDROOT
BRANCH   1   7
HETATM    7  C   UNL     1      26.502  41.979  51.143  1.00  0.00     0.080 A 
HETATM    8  C   UNL     1      26.858  41.502  49.889  1.00  0.00     0.058 A 
HETATM    9  N   UNL     1      28.032  40.798  50.102  1.00  0.00    -0.272 N 
HETATM   10  N   UNL     1      28.505  40.905  51.356  1.00  0.00    -0.182 NA
HETATM   11  C   UNL     1      27.559  41.590  51.994  1.00  0.00     0.170 A 
BRANCH   8  12
HETATM   12  C   UNL     1      26.261  41.601  48.514  1.00  0.00     0.057 C 
HETATM   13  C   UNL     1      25.289  40.504  48.117  1.00  0.00     0.011 C 
ENDBRANCH   8  12
BRANCH   9  14
HETATM   14  C   UNL     1      28.772  39.967  49.165  1.00  0.00     0.155 C 
BRANCH  14  15
HETATM   15  C   UNL     1      28.569  38.457  49.390  1.00  0.00    -0.003 C 
HETATM   16  C   UNL     1      28.173  37.727  48.105  1.00  0.00     0.011 C 
HETATM   17  C   UNL     1      29.848  37.841  49.958  1.00  0.00     0.011 C 
ENDBRANCH  14  15
ENDBRANCH   9  14
ENDBRANCH   1   7
BRANCH   3  18
HETATM   18  C   UNL     1      25.750  46.251  50.773  1.00  0.00     0.039 C 
HETATM   19  C   UNL     1      25.873  46.785  52.216  1.00  0.00     0.039 C 
HETATM   20  C   UNL     1      26.874  46.888  49.894  1.00  0.00     0.070 C 
HETATM   21  C   UNL     1      26.199  48.095  49.318  1.00  0.00    -0.049 A 
HETATM   22  C   UNL     1      24.812  48.007  49.453  1.00  0.00    -0.049 A 
HETATM   23  C   UNL     1      26.786  49.177  48.683  1.00  0.00     0.007 A 
HETATM   24  C   UNL     1      24.413  46.730  50.126  1.00  0.00     0.070 C 
HETATM   25  C   UNL     1      23.980  49.000  48.962  1.00  0.00     0.007 A 
HETATM   26  C   UNL     1      24.563  50.101  48.333  1.00  0.00     0.001 A 
HETATM   27  C   UNL     1      25.956  50.188  48.192  1.00  0.00     0.001 A 
ENDBRANCH   3  18
TORSDOF 5
ENDMDL
MODEL 9
REMARK VINA RESULT:      -7.7      3.804      9.700
REMARK  5 active torsions:
REMARK  status: ('A' for Active; 'I' for Inactive)
REMARK    1  A    between atoms: C_2  and  C_3 
REMARK    2  A    between atoms: N_4  and  C_5 
REMARK    3  A    between atoms: C_5  and  C_6 
REMARK    4  A    between atoms: C_11  and  N_12 
REMARK       I    between atoms: N_12  and  C_13 
REMARK       I    between atoms: C_13  and  N_14 
REMARK    5  A    between atoms: N_14  and  C_15 
ROOT
HETATM    1  N   UNL     1      23.460  48.627  48.647  1.00  0.00    -0.306 N 
HETATM    2  C   UNL     1      24.497  48.150  49.395  1.00  0.00     0.321 C 
HETATM    3  N   UNL     1      24.376  46.869  49.852  1.00  0.00    -0.333 N 
HETATM    4  O   UNL     1      25.496  48.843  49.560  1.00  0.00    -0.247 OA
HETATM    5  H   UNL     1      23.686  49.487  48.171  1.00  0.00     0.171 HD
HETATM    6  H   UNL     1      23.827  46.279  49.239  1.00  0.00     0.165 HD
ENDROOT
BRANCH   1   7
HETATM    7  C   UNL     1      22.123  48.274  48.699  1.00  0.00     0.080 A 
HETATM    8  C   UNL     1      21.091  49.082  49.155  1.00  0.00     0.058 A 
HETATM    9  N   UNL     1      19.977  48.259  49.162  1.00  0.00    -0.272 N 
HETATM   10  N   UNL     1      20.201  47.045  48.628  1.00  0.00    -0.182 NA
HETATM   11  C   UNL     1      21.508  47.043  48.380  1.00  0.00     0.170 A 
BRANCH   8  12
HETATM   12  C   UNL     1      20.989  50.515  49.593  1.00  0.00     0.057 C 
HETATM   13  C   UNL     1      20.513  51.510  48.548  1.00  0.00     0.011 C 
ENDBRANCH   8  12
BRANCH   9  14
HETATM   14  C   UNL     1      18.649  48.537  49.686  1.00  0.00     0.155 C 
BRANCH  14  15
HETATM   15  C   UNL     1      17.557  48.582  48.600  1.00  0.00    -0.003 C 
HETATM   16  C   UNL     1      16.519  47.472  48.777  1.00  0.00     0.011 C 
HETATM   17  C   UNL     1      16.863  49.944  48.619  1.00  0.00     0.011 C 
ENDBRANCH  14  15
ENDBRANCH   9  14
ENDBRANCH   1   7
BRANCH   3  18
HETATM   18  C   UNL     1      25.414  46.205  50.659  1.00  0.00     0.039 C 
HETATM   19  C   UNL     1      26.579  45.780  49.738  1.00  0.00     0.039 C 
HETATM   20  C   UNL     1      25.957  47.180  51.753  1.00  0.00     0.070 C 
HETATM   21  C   UNL     1      26.285  46.257  52.886  1.00  0.00    -0.049 A 
HETATM   22  C   UNL     1      25.674  45.013  52.713  1.00  0.00    -0.049 A 
HETATM   23  C   UNL     1      27.045  46.527  54.011  1.00  0.00     0.007 A 
HETATM   24  C   UNL     1      24.869  44.976  51.451  1.00  0.00     0.070 C 
HETATM   25  C   UNL     1      25.815  44.009  53.657  1.00  0.00     0.007 A 
HETATM   26  C   UNL     1      26.590  44.266  54.788  1.00  0.00     0.001 A 
HETATM   27  C   UNL     1      27.200  45.518  54.965  1.00  0.00     0.001 A 
ENDBRANCH   3  18
TORSDOF 5
ENDMDL
MODEL 10
REMARK VINA RESULT:      -7.6      3.629      9.607
REMARK  5 active torsions:
REMARK  status: ('A' for Active; 'I' for Inactive)
REMARK    1  A    between atoms: C_2  and  C_3 
REMARK    2  A    between atoms: N_4  and  C_5 
REMARK    3  A    between atoms: C_5  and  C_6 
REMARK    4  A    between atoms: C_11  and  N_12 
REMARK       I    between atoms: N_12  and  C_13 
REMARK       I    between atoms: C_13  and  N_14 
REMARK    5  A    between atoms: N_14  and  C_15 
ROOT
HETATM    1  N   UNL     1      22.325  47.273  48.951  1.00  0.00    -0.306 N 
HETATM    2  C   UNL     1      23.455  46.615  49.340  1.00  0.00     0.321 C 
HETATM    3  N   UNL     1      24.054  47.062  50.483  1.00  0.00    -0.333 N 
HETATM    4  O   UNL     1      23.836  45.635  48.708  1.00  0.00    -0.247 OA
HETATM    5  H   UNL     1      21.817  46.782  48.231  1.00  0.00     0.171 HD
HETATM    6  H   UNL     1      23.399  47.462  51.143  1.00  0.00     0.165 HD
ENDROOT
BRANCH   1   7
HETATM    7  C   UNL     1      21.969  48.590  49.180  1.00  0.00     0.080 A 
HETATM    8  C   UNL     1      20.709  49.031  49.563  1.00  0.00     0.058 A 
HETATM    9  N   UNL     1      20.794  50.413  49.519  1.00  0.00    -0.272 N 
HETATM   10  N   UNL     1      22.033  50.870  49.266  1.00  0.00    -0.182 NA
HETATM   11  C   UNL     1      22.735  49.765  49.026  1.00  0.00     0.170 A 
BRANCH   8  12
HETATM   12  C   UNL     1      19.430  48.352  49.963  1.00  0.00     0.057 C 
HETATM   13  C   UNL     1      18.641  47.686  48.850  1.00  0.00     0.011 C 
ENDBRANCH   8  12
BRANCH   9  14
HETATM   14  C   UNL     1      19.728  51.391  49.683  1.00  0.00     0.155 C 
BRANCH  14  15
HETATM   15  C   UNL     1      19.290  52.050  48.363  1.00  0.00    -0.003 C 
HETATM   16  C   UNL     1      19.085  51.026  47.244  1.00  0.00     0.011 C 
HETATM   17  C   UNL     1      17.999  52.840  48.580  1.00  0.00     0.011 C 
ENDBRANCH  14  15
ENDBRANCH   9  14
ENDBRANCH   1   7
BRANCH   3  18
HETATM   18  C   UNL     1      25.272  46.450  51.042  1.00  0.00     0.039 C 
HETATM   19  C   UNL     1      26.396  46.502  49.985  1.00  0.00     0.039 C 
HETATM   20  C   UNL     1      25.732  47.227  52.317  1.00  0.00     0.070 C 
HETATM   21  C   UNL     1      26.337  46.147  53.162  1.00  0.00    -0.049 A 
HETATM   22  C   UNL     1      25.951  44.883  52.712  1.00  0.00    -0.049 A 
HETATM   23  C   UNL     1      27.143  46.291  54.278  1.00  0.00     0.007 A 
HETATM   24  C   UNL     1      25.043  44.984  51.525  1.00  0.00     0.070 C 
HETATM   25  C   UNL     1      26.367  43.734  53.363  1.00  0.00     0.007 A 
HETATM   26  C   UNL     1      27.191  43.866  54.481  1.00  0.00     0.001 A 
HETATM   27  C   UNL     1      27.575  45.137  54.937  1.00  0.00     0.001 A 
ENDBRANCH   3  18
TORSDOF 5
ENDMDL
