MODEL 1
REMARK VINA RESULT:      -9.8      0.000      0.000
REMARK  4 active torsions:
REMARK  status: ('A' for Active; 'I' for Inactive)
REMARK    1  A    between atoms: C_5  and  C_6 
REMARK    2  A    between atoms: C_8  and  O_9 
REMARK    3  A    between atoms: C_15  and  C_16 
REMARK       I    between atoms: C_16  and  N_17 
REMARK    4  A    between atoms: N_17  and  C_18 
ROOT
HETATM    1  C   UNL     1      24.766  43.320  51.464  1.00  0.00     0.071 C 
HETATM    2  C   UNL     1      25.235  44.723  51.410  1.00  0.00     0.041 A 
HETATM    3  N   UNL     1      24.931  45.577  50.382  1.00  0.00    -0.342 N 
HETATM    4  H   UNL     1      24.354  45.358  49.583  1.00  0.00     0.167 HD
HETATM    5  C   UNL     1      25.529  46.794  50.621  1.00  0.00     0.139 A 
HETATM    6  N   UNL     1      26.157  46.762  51.783  1.00  0.00    -0.223 NA
HETATM    7  C   UNL     1      26.014  45.469  52.275  1.00  0.00     0.149 A 
ENDROOT
BRANCH   7   8
HETATM    8  C   UNL     1      26.632  45.029  53.533  1.00  0.00     0.276 C 
HETATM    9  N   UNL     1      28.008  45.078  53.451  1.00  0.00    -0.322 N 
HETATM   10  H   UNL     1      28.350  45.444  52.565  1.00  0.00     0.169 HD
HETATM   11  O   UNL     1      25.965  44.678  54.500  1.00  0.00    -0.266 OA
BRANCH   9  12
HETATM   12  C   UNL     1      28.954  44.686  54.413  1.00  0.00     0.035 A 
HETATM   13  C   UNL     1      29.244  45.433  55.558  1.00  0.00     0.039 A 
HETATM   14  C   UNL     1      30.178  44.938  56.457  1.00  0.00    -0.024 A 
HETATM   15  C   UNL     1      30.834  43.740  56.233  1.00  0.00    -0.026 A 
HETATM   16  C   UNL     1      30.656  45.531  57.731  1.00  0.00     0.207 C 
HETATM   17  C   UNL     1      31.787  43.488  57.342  1.00  0.00     0.207 C 
HETATM   18  C   UNL     1      30.574  42.987  55.104  1.00  0.00     0.012 A 
HETATM   19  O   UNL     1      31.486  44.505  58.326  1.00  0.00    -0.382 OA
HETATM   20  C   UNL     1      29.622  43.463  54.196  1.00  0.00     0.030 A 
ENDBRANCH   9  12
ENDBRANCH   7   8
BRANCH   5  21
HETATM   21  C   UNL     1      25.443  47.940  49.712  1.00  0.00     0.013 A 
HETATM   22  C   UNL     1      24.209  48.418  49.237  1.00  0.00     0.052 A 
HETATM   23  C   UNL     1      24.154  49.511  48.365  1.00  0.00     0.069 A 
HETATM   24  C   UNL     1      25.340  50.134  47.971  1.00  0.00     0.037 A 
HETATM   25  C   UNL     1      26.571  49.663  48.424  1.00  0.00     0.004 A 
HETATM   26  C   UNL     1      26.621  48.568  49.285  1.00  0.00     0.015 A 
BRANCH  23  27
HETATM   27  O   UNL     1      23.019  50.061  47.836  1.00  0.00    -0.356 OA
HETATM   28  C   UNL     1      21.850  49.251  47.825  1.00  0.00     0.210 C 
ENDBRANCH  23  27
ENDBRANCH   5  21
TORSDOF 4
ENDMDL
MODEL 2
REMARK VINA RESULT:      -9.1      1.283      1.800
REMARK  4 active torsions:
REMARK  status: ('A' for Active; 'I' for Inactive)
REMARK    1  A    between atoms: C_5  and  C_6 
REMARK    2  A    between atoms: C_8  and  O_9 
REMARK    3  A    between atoms: C_15  and  C_16 
REMARK       I    between atoms: C_16  and  N_17 
REMARK    4  A    between atoms: N_17  and  C_18 
ROOT
HETATM    1  C   UNL     1      26.135  42.115  50.943  1.00  0.00     0.071 C 
HETATM    2  C   UNL     1      25.673  43.512  51.100  1.00  0.00     0.041 A 
HETATM    3  N   UNL     1      24.993  44.193  50.124  1.00  0.00    -0.342 N 
HETATM    4  H   UNL     1      24.721  43.822  49.225  1.00  0.00     0.167 HD
HETATM    5  C   UNL     1      24.724  45.467  50.573  1.00  0.00     0.139 A 
HETATM    6  N   UNL     1      25.160  45.605  51.812  1.00  0.00    -0.223 NA
HETATM    7  C   UNL     1      25.784  44.408  52.148  1.00  0.00     0.149 A 
ENDROOT
BRANCH   7   8
HETATM    8  C   UNL     1      26.450  44.199  53.441  1.00  0.00     0.276 C 
HETATM    9  N   UNL     1      27.797  44.485  53.354  1.00  0.00    -0.322 N 
HETATM   10  H   UNL     1      28.083  44.827  52.440  1.00  0.00     0.169 HD
HETATM   11  O   UNL     1      25.840  43.822  54.436  1.00  0.00    -0.266 OA
BRANCH   9  12
HETATM   12  C   UNL     1      28.782  44.356  54.348  1.00  0.00     0.035 A 
HETATM   13  C   UNL     1      28.939  45.262  55.401  1.00  0.00     0.039 A 
HETATM   14  C   UNL     1      29.929  45.023  56.344  1.00  0.00    -0.024 A 
HETATM   15  C   UNL     1      30.766  43.924  56.251  1.00  0.00    -0.026 A 
HETATM   16  C   UNL     1      30.294  45.821  57.540  1.00  0.00     0.207 C 
HETATM   17  C   UNL     1      31.734  43.949  57.375  1.00  0.00     0.207 C 
HETATM   18  C   UNL     1      30.639  43.018  55.214  1.00  0.00     0.012 A 
HETATM   19  O   UNL     1      31.267  45.010  58.241  1.00  0.00    -0.382 OA
HETATM   20  C   UNL     1      29.635  43.236  54.266  1.00  0.00     0.030 A 
ENDBRANCH   9  12
ENDBRANCH   7   8
BRANCH   5  21
HETATM   21  C   UNL     1      24.034  46.485  49.777  1.00  0.00     0.013 A 
HETATM   22  C   UNL     1      24.304  47.857  49.933  1.00  0.00     0.052 A 
HETATM   23  C   UNL     1      23.627  48.809  49.164  1.00  0.00     0.069 A 
HETATM   24  C   UNL     1      22.680  48.388  48.228  1.00  0.00     0.037 A 
HETATM   25  C   UNL     1      22.394  47.034  48.071  1.00  0.00     0.004 A 
HETATM   26  C   UNL     1      23.064  46.089  48.846  1.00  0.00     0.015 A 
BRANCH  23  27
HETATM   27  O   UNL     1      23.800  50.165  49.229  1.00  0.00    -0.356 OA
HETATM   28  C   UNL     1      22.635  50.973  49.124  1.00  0.00     0.210 C 
ENDBRANCH  23  27
ENDBRANCH   5  21
TORSDOF 4
ENDMDL
MODEL 3
REMARK VINA RESULT:      -9.1      1.656      8.992
REMARK  4 active torsions:
REMARK  status: ('A' for Active; 'I' for Inactive)
REMARK    1  A    between atoms: C_5  and  C_6 
REMARK    2  A    between atoms: C_8  and  O_9 
REMARK    3  A    between atoms: C_15  and  C_16 
REMARK       I    between atoms: C_16  and  N_17 
REMARK    4  A    between atoms: N_17  and  C_18 
ROOT
HETATM    1  C   UNL     1      25.755  41.939  50.803  1.00  0.00     0.071 C 
HETATM    2  C   UNL     1      26.558  42.986  51.474  1.00  0.00     0.041 A 
HETATM    3  N   UNL     1      27.376  42.733  52.545  1.00  0.00    -0.342 N 
HETATM    4  H   UNL     1      27.534  41.830  52.968  1.00  0.00     0.167 HD
HETATM    5  C   UNL     1      27.965  43.912  52.944  1.00  0.00     0.139 A 
HETATM    6  N   UNL     1      27.595  44.892  52.139  1.00  0.00    -0.223 NA
HETATM    7  C   UNL     1      26.691  44.341  51.236  1.00  0.00     0.149 A 
ENDROOT
BRANCH   7   8
HETATM    8  C   UNL     1      26.010  45.144  50.210  1.00  0.00     0.276 C 
HETATM    9  N   UNL     1      25.952  46.472  50.581  1.00  0.00    -0.322 N 
HETATM   10  H   UNL     1      26.420  46.669  51.462  1.00  0.00     0.169 HD
HETATM   11  O   UNL     1      25.573  44.648  49.178  1.00  0.00    -0.266 OA
BRANCH   9  12
HETATM   12  C   UNL     1      25.337  47.540  49.906  1.00  0.00     0.035 A 
HETATM   13  C   UNL     1      23.952  47.727  49.860  1.00  0.00     0.039 A 
HETATM   14  C   UNL     1      23.452  48.832  49.186  1.00  0.00    -0.024 A 
HETATM   15  C   UNL     1      24.289  49.733  48.551  1.00  0.00    -0.026 A 
HETATM   16  C   UNL     1      22.041  49.251  48.995  1.00  0.00     0.207 C 
HETATM   17  C   UNL     1      23.472  50.785  47.898  1.00  0.00     0.207 C 
HETATM   18  C   UNL     1      25.662  49.565  48.572  1.00  0.00     0.012 A 
HETATM   19  O   UNL     1      22.126  50.557  48.375  1.00  0.00    -0.382 OA
HETATM   20  C   UNL     1      26.182  48.465  49.261  1.00  0.00     0.030 A 
ENDBRANCH   9  12
ENDBRANCH   7   8
BRANCH   5  21
HETATM   21  C   UNL     1      28.880  44.024  54.083  1.00  0.00     0.013 A 
HETATM   22  C   UNL     1      28.778  45.070  55.017  1.00  0.00     0.052 A 
HETATM   23  C   UNL     1      29.669  45.157  56.092  1.00  0.00     0.069 A 
HETATM   24  C   UNL     1      30.663  44.188  56.239  1.00  0.00     0.037 A 
HETATM   25  C   UNL     1      30.784  43.152  55.316  1.00  0.00     0.004 A 
HETATM   26  C   UNL     1      29.900  43.075  54.240  1.00  0.00     0.015 A 
BRANCH  23  27
HETATM   27  O   UNL     1      29.672  46.127  57.057  1.00  0.00    -0.356 OA
HETATM   28  C   UNL     1      30.561  45.948  58.152  1.00  0.00     0.210 C 
ENDBRANCH  23  27
ENDBRANCH   5  21
TORSDOF 4
ENDMDL
MODEL 4
REMARK VINA RESULT:      -8.9      2.725     10.399
REMARK  4 active torsions:
REMARK  status: ('A' for Active; 'I' for Inactive)
REMARK    1  A    between atoms: C_5  and  C_6 
REMARK    2  A    between atoms: C_8  and  O_9 
REMARK    3  A    between atoms: C_15  and  C_16 
REMARK       I    between atoms: C_16  and  N_17 
REMARK    4  A    between atoms: N_17  and  C_18 
ROOT
HETATM    1  C   UNL     1      26.340  49.548  48.246  1.00  0.00     0.071 C 
HETATM    2  C   UNL     1      25.801  48.671  49.309  1.00  0.00     0.041 A 
HETATM    3  N   UNL     1      26.585  48.084  50.268  1.00  0.00    -0.342 N 
HETATM    4  H   UNL     1      27.584  48.198  50.366  1.00  0.00     0.167 HD
HETATM    5  C   UNL     1      25.788  47.321  51.091  1.00  0.00     0.139 A 
HETATM    6  N   UNL     1      24.524  47.441  50.725  1.00  0.00    -0.223 NA
HETATM    7  C   UNL     1      24.514  48.252  49.595  1.00  0.00     0.149 A 
ENDROOT
BRANCH   7   8
HETATM    8  C   UNL     1      23.282  48.570  48.860  1.00  0.00     0.276 C 
HETATM    9  N   UNL     1      22.492  49.444  49.577  1.00  0.00    -0.322 N 
HETATM   10  H   UNL     1      22.910  49.746  50.454  1.00  0.00     0.169 HD
HETATM   11  O   UNL     1      23.040  48.095  47.756  1.00  0.00    -0.266 OA
BRANCH   9  12
HETATM   12  C   UNL     1      21.219  49.940  49.248  1.00  0.00     0.035 A 
HETATM   13  C   UNL     1      20.057  49.163  49.278  1.00  0.00     0.039 A 
HETATM   14  C   UNL     1      18.847  49.762  48.959  1.00  0.00    -0.024 A 
HETATM   15  C   UNL     1      18.772  51.097  48.598  1.00  0.00    -0.026 A 
HETATM   16  C   UNL     1      17.489  49.164  48.918  1.00  0.00     0.207 C 
HETATM   17  C   UNL     1      17.364  51.443  48.288  1.00  0.00     0.207 C 
HETATM   18  C   UNL     1      19.907  51.885  48.550  1.00  0.00     0.012 A 
HETATM   19  O   UNL     1      16.599  50.285  48.700  1.00  0.00    -0.382 OA
HETATM   20  C   UNL     1      21.133  51.300  48.885  1.00  0.00     0.030 A 
ENDBRANCH   9  12
ENDBRANCH   7   8
BRANCH   5  21
HETATM   21  C   UNL     1      26.295  46.525  52.211  1.00  0.00     0.013 A 
HETATM   22  C   UNL     1      26.666  47.116  53.433  1.00  0.00     0.052 A 
HETATM   23  C   UNL     1      27.153  46.333  54.485  1.00  0.00     0.069 A 
HETATM   24  C   UNL     1      27.263  44.951  54.319  1.00  0.00     0.037 A 
HETATM   25  C   UNL     1      26.910  44.353  53.111  1.00  0.00     0.004 A 
HETATM   26  C   UNL     1      26.434  45.138  52.062  1.00  0.00     0.015 A 
BRANCH  23  27
HETATM   27  O   UNL     1      27.548  46.793  55.712  1.00  0.00    -0.356 OA
HETATM   28  C   UNL     1      28.702  46.194  56.288  1.00  0.00     0.210 C 
ENDBRANCH  23  27
ENDBRANCH   5  21
TORSDOF 4
ENDMDL
MODEL 5
REMARK VINA RESULT:      -8.9      1.733      2.649
REMARK  4 active torsions:
REMARK  status: ('A' for Active; 'I' for Inactive)
REMARK    1  A    between atoms: C_5  and  C_6 
REMARK    2  A    between atoms: C_8  and  O_9 
REMARK    3  A    between atoms: C_15  and  C_16 
REMARK       I    between atoms: C_16  and  N_17 
REMARK    4  A    between atoms: N_17  and  C_18 
ROOT
HETATM    1  C   UNL     1      23.826  43.706  50.286  1.00  0.00     0.071 C 
HETATM    2  C   UNL     1      24.153  45.147  50.205  1.00  0.00     0.041 A 
HETATM    3  N   UNL     1      23.326  46.073  49.625  1.00  0.00    -0.342 N 
HETATM    4  H   UNL     1      22.420  45.885  49.220  1.00  0.00     0.167 HD
HETATM    5  C   UNL     1      23.923  47.312  49.696  1.00  0.00     0.139 A 
HETATM    6  N   UNL     1      25.071  47.218  50.344  1.00  0.00    -0.223 NA
HETATM    7  C   UNL     1      25.248  45.870  50.640  1.00  0.00     0.149 A 
ENDROOT
BRANCH   7   8
HETATM    8  C   UNL     1      26.451  45.360  51.313  1.00  0.00     0.276 C 
HETATM    9  N   UNL     1      26.450  45.700  52.650  1.00  0.00    -0.322 N 
HETATM   10  H   UNL     1      25.612  46.196  52.943  1.00  0.00     0.169 HD
HETATM   11  O   UNL     1      27.311  44.721  50.717  1.00  0.00    -0.266 OA
BRANCH   9  12
HETATM   12  C   UNL     1      27.442  45.451  53.614  1.00  0.00     0.035 A 
HETATM   13  C   UNL     1      28.224  44.293  53.635  1.00  0.00     0.039 A 
HETATM   14  C   UNL     1      29.195  44.162  54.618  1.00  0.00    -0.024 A 
HETATM   15  C   UNL     1      29.389  45.141  55.578  1.00  0.00    -0.026 A 
HETATM   16  C   UNL     1      30.143  43.045  54.853  1.00  0.00     0.207 C 
HETATM   17  C   UNL     1      30.466  44.712  56.503  1.00  0.00     0.207 C 
HETATM   18  C   UNL     1      28.622  46.291  55.587  1.00  0.00     0.012 A 
HETATM   19  O   UNL     1      31.029  43.528  55.893  1.00  0.00    -0.382 OA
HETATM   20  C   UNL     1      27.651  46.445  54.592  1.00  0.00     0.030 A 
ENDBRANCH   9  12
ENDBRANCH   7   8
BRANCH   5  21
HETATM   21  C   UNL     1      23.334  48.536  49.147  1.00  0.00     0.013 A 
HETATM   22  C   UNL     1      21.960  48.811  49.256  1.00  0.00     0.052 A 
HETATM   23  C   UNL     1      21.422  49.985  48.717  1.00  0.00     0.069 A 
HETATM   24  C   UNL     1      22.265  50.893  48.072  1.00  0.00     0.037 A 
HETATM   25  C   UNL     1      23.627  50.628  47.946  1.00  0.00     0.004 A 
HETATM   26  C   UNL     1      24.156  49.452  48.476  1.00  0.00     0.015 A 
BRANCH  23  27
HETATM   27  O   UNL     1      20.107  50.359  48.757  1.00  0.00    -0.356 OA
HETATM   28  C   UNL     1      19.825  51.750  48.672  1.00  0.00     0.210 C 
ENDBRANCH  23  27
ENDBRANCH   5  21
TORSDOF 4
ENDMDL
MODEL 6
REMARK VINA RESULT:      -8.8      3.127     10.500
REMARK  4 active torsions:
REMARK  status: ('A' for Active; 'I' for Inactive)
REMARK    1  A    between atoms: C_5  and  C_6 
REMARK    2  A    between atoms: C_8  and  O_9 
REMARK    3  A    between atoms: C_15  and  C_16 
REMARK       I    between atoms: C_16  and  N_17 
REMARK    4  A    between atoms: N_17  and  C_18 
ROOT
HETATM    1  C   UNL     1      26.568  49.822  48.173  1.00  0.00     0.071 C 
HETATM    2  C   UNL     1      25.861  48.940  49.129  1.00  0.00     0.041 A 
HETATM    3  N   UNL     1      26.509  48.150  50.043  1.00  0.00    -0.342 N 
HETATM    4  H   UNL     1      27.508  48.099  50.177  1.00  0.00     0.167 HD
HETATM    5  C   UNL     1      25.573  47.443  50.764  1.00  0.00     0.139 A 
HETATM    6  N   UNL     1      24.357  47.790  50.381  1.00  0.00    -0.223 NA
HETATM    7  C   UNL     1      24.515  48.698  49.339  1.00  0.00     0.149 A 
ENDROOT
BRANCH   7   8
HETATM    8  C   UNL     1      23.376  49.270  48.610  1.00  0.00     0.276 C 
HETATM    9  N   UNL     1      22.314  49.506  49.459  1.00  0.00    -0.322 N 
HETATM   10  H   UNL     1      22.515  49.288  50.432  1.00  0.00     0.169 HD
HETATM   11  O   UNL     1      23.417  49.493  47.405  1.00  0.00    -0.266 OA
BRANCH   9  12
HETATM   12  C   UNL     1      21.033  49.988  49.141  1.00  0.00     0.035 A 
HETATM   13  C   UNL     1      19.895  49.178  49.088  1.00  0.00     0.039 A 
HETATM   14  C   UNL     1      18.673  49.764  48.790  1.00  0.00    -0.024 A 
HETATM   15  C   UNL     1      18.565  51.120  48.530  1.00  0.00    -0.026 A 
HETATM   16  C   UNL     1      17.336  49.132  48.675  1.00  0.00     0.207 C 
HETATM   17  C   UNL     1      17.153  51.448  48.217  1.00  0.00     0.207 C 
HETATM   18  C   UNL     1      19.676  51.942  48.565  1.00  0.00     0.012 A 
HETATM   19  O   UNL     1      16.417  50.241  48.524  1.00  0.00    -0.382 OA
HETATM   20  C   UNL     1      20.912  51.369  48.881  1.00  0.00     0.030 A 
ENDBRANCH   9  12
ENDBRANCH   7   8
BRANCH   5  21
HETATM   21  C   UNL     1      25.909  46.475  51.811  1.00  0.00     0.013 A 
HETATM   22  C   UNL     1      26.328  45.167  51.506  1.00  0.00     0.052 A 
HETATM   23  C   UNL     1      26.638  44.260  52.524  1.00  0.00     0.069 A 
HETATM   24  C   UNL     1      26.536  44.664  53.857  1.00  0.00     0.037 A 
HETATM   25  C   UNL     1      26.111  45.952  54.176  1.00  0.00     0.004 A 
HETATM   26  C   UNL     1      25.794  46.850  53.157  1.00  0.00     0.015 A 
BRANCH  23  27
HETATM   27  O   UNL     1      27.050  42.967  52.351  1.00  0.00    -0.356 OA
HETATM   28  C   UNL     1      27.810  42.383  53.402  1.00  0.00     0.210 C 
ENDBRANCH  23  27
ENDBRANCH   5  21
TORSDOF 4
ENDMDL
MODEL 7
REMARK VINA RESULT:      -8.8      2.666     10.416
REMARK  4 active torsions:
REMARK  status: ('A' for Active; 'I' for Inactive)
REMARK    1  A    between atoms: C_5  and  C_6 
REMARK    2  A    between atoms: C_8  and  O_9 
REMARK    3  A    between atoms: C_15  and  C_16 
REMARK       I    between atoms: C_16  and  N_17 
REMARK    4  A    between atoms: N_17  and  C_18 
ROOT
HETATM    1  C   UNL     1      23.456  45.211  48.816  1.00  0.00     0.071 C 
HETATM    2  C   UNL     1      24.121  46.054  49.835  1.00  0.00     0.041 A 
HETATM    3  N   UNL     1      24.868  45.541  50.863  1.00  0.00    -0.342 N 
HETATM    4  H   UNL     1      25.060  44.562  51.022  1.00  0.00     0.167 HD
HETATM    5  C   UNL     1      25.330  46.579  51.640  1.00  0.00     0.139 A 
HETATM    6  N   UNL     1      24.951  47.732  51.118  1.00  0.00    -0.223 NA
HETATM    7  C   UNL     1      24.167  47.425  50.010  1.00  0.00     0.149 A 
ENDROOT
BRANCH   7   8
HETATM    8  C   UNL     1      23.510  48.457  49.196  1.00  0.00     0.276 C 
HETATM    9  N   UNL     1      22.176  48.574  49.530  1.00  0.00    -0.322 N 
HETATM   10  H   UNL     1      21.894  47.969  50.297  1.00  0.00     0.169 HD
HETATM   11  O   UNL     1      24.116  49.102  48.347  1.00  0.00    -0.266 OA
BRANCH   9  12
HETATM   12  C   UNL     1      21.200  49.400  48.946  1.00  0.00     0.035 A 
HETATM   13  C   UNL     1      20.279  48.951  47.996  1.00  0.00     0.039 A 
HETATM   14  C   UNL     1      19.340  49.846  47.505  1.00  0.00    -0.024 A 
HETATM   15  C   UNL     1      19.311  51.166  47.921  1.00  0.00    -0.026 A 
HETATM   16  C   UNL     1      18.267  49.621  46.504  1.00  0.00     0.207 C 
HETATM   17  C   UNL     1      18.225  51.882  47.207  1.00  0.00     0.207 C 
HETATM   18  C   UNL     1      20.217  51.639  48.852  1.00  0.00     0.012 A 
HETATM   19  O   UNL     1      17.492  50.845  46.514  1.00  0.00    -0.382 OA
HETATM   20  C   UNL     1      21.160  50.744  49.369  1.00  0.00     0.030 A 
ENDBRANCH   9  12
ENDBRANCH   7   8
BRANCH   5  21
HETATM   21  C   UNL     1      26.141  46.398  52.847  1.00  0.00     0.013 A 
HETATM   22  C   UNL     1      26.846  45.207  53.095  1.00  0.00     0.052 A 
HETATM   23  C   UNL     1      27.608  45.058  54.259  1.00  0.00     0.069 A 
HETATM   24  C   UNL     1      27.672  46.109  55.176  1.00  0.00     0.037 A 
HETATM   25  C   UNL     1      26.970  47.290  54.949  1.00  0.00     0.004 A 
HETATM   26  C   UNL     1      26.204  47.430  53.793  1.00  0.00     0.015 A 
BRANCH  23  27
HETATM   27  O   UNL     1      28.331  43.951  54.610  1.00  0.00    -0.356 OA
HETATM   28  C   UNL     1      27.938  42.711  54.034  1.00  0.00     0.210 C 
ENDBRANCH  23  27
ENDBRANCH   5  21
TORSDOF 4
ENDMDL
MODEL 8
REMARK VINA RESULT:      -8.6      2.593      4.319
REMARK  4 active torsions:
REMARK  status: ('A' for Active; 'I' for Inactive)
REMARK    1  A    between atoms: C_5  and  C_6 
REMARK    2  A    between atoms: C_8  and  O_9 
REMARK    3  A    between atoms: C_15  and  C_16 
REMARK       I    between atoms: C_16  and  N_17 
REMARK    4  A    between atoms: N_17  and  C_18 
ROOT
HETATM    1  C   UNL     1      23.828  44.908  48.922  1.00  0.00     0.071 C 
HETATM    2  C   UNL     1      23.526  46.333  49.188  1.00  0.00     0.041 A 
HETATM    3  N   UNL     1      22.430  46.977  48.674  1.00  0.00    -0.342 N 
HETATM    4  H   UNL     1      21.718  46.559  48.092  1.00  0.00     0.167 HD
HETATM    5  C   UNL     1      22.447  48.288  49.091  1.00  0.00     0.139 A 
HETATM    6  N   UNL     1      23.479  48.490  49.891  1.00  0.00    -0.223 NA
HETATM    7  C   UNL     1      24.183  47.291  49.937  1.00  0.00     0.149 A 
ENDROOT
BRANCH   7   8
HETATM    8  C   UNL     1      25.437  47.140  50.688  1.00  0.00     0.276 C 
HETATM    9  N   UNL     1      25.191  46.743  51.986  1.00  0.00    -0.322 N 
HETATM   10  H   UNL     1      24.205  46.584  52.183  1.00  0.00     0.169 HD
HETATM   11  O   UNL     1      26.532  47.348  50.177  1.00  0.00    -0.266 OA
BRANCH   9  12
HETATM   12  C   UNL     1      26.113  46.547  53.028  1.00  0.00     0.035 A 
HETATM   13  C   UNL     1      26.915  45.409  53.145  1.00  0.00     0.039 A 
HETATM   14  C   UNL     1      27.812  45.331  54.200  1.00  0.00    -0.024 A 
HETATM   15  C   UNL     1      27.913  46.342  55.140  1.00  0.00    -0.026 A 
HETATM   16  C   UNL     1      28.764  44.245  54.541  1.00  0.00     0.207 C 
HETATM   17  C   UNL     1      28.927  45.968  56.157  1.00  0.00     0.207 C 
HETATM   18  C   UNL     1      27.123  47.474  55.055  1.00  0.00     0.012 A 
HETATM   19  O   UNL     1      29.558  44.779  55.628  1.00  0.00    -0.382 OA
HETATM   20  C   UNL     1      26.226  47.575  53.987  1.00  0.00     0.030 A 
ENDBRANCH   9  12
ENDBRANCH   7   8
BRANCH   5  21
HETATM   21  C   UNL     1      21.440  49.281  48.706  1.00  0.00     0.013 A 
HETATM   22  C   UNL     1      20.242  48.914  48.067  1.00  0.00     0.052 A 
HETATM   23  C   UNL     1      19.301  49.883  47.705  1.00  0.00     0.069 A 
HETATM   24  C   UNL     1      19.554  51.226  47.990  1.00  0.00     0.037 A 
HETATM   25  C   UNL     1      20.741  51.606  48.611  1.00  0.00     0.004 A 
HETATM   26  C   UNL     1      21.681  50.638  48.962  1.00  0.00     0.015 A 
BRANCH  23  27
HETATM   27  O   UNL     1      18.107  49.649  47.079  1.00  0.00    -0.356 OA
HETATM   28  C   UNL     1      18.058  49.867  45.674  1.00  0.00     0.210 C 
ENDBRANCH  23  27
ENDBRANCH   5  21
TORSDOF 4
ENDMDL
MODEL 9
REMARK VINA RESULT:      -8.6      4.830      6.731
REMARK  4 active torsions:
REMARK  status: ('A' for Active; 'I' for Inactive)
REMARK    1  A    between atoms: C_5  and  C_6 
REMARK    2  A    between atoms: C_8  and  O_9 
REMARK    3  A    between atoms: C_15  and  C_16 
REMARK       I    between atoms: C_16  and  N_17 
REMARK    4  A    between atoms: N_17  and  C_18 
ROOT
HETATM    1  C   UNL     1      26.624  44.160  50.840  1.00  0.00     0.071 C 
HETATM    2  C   UNL     1      27.242  42.828  50.652  1.00  0.00     0.041 A 
HETATM    3  N   UNL     1      27.262  42.173  49.448  1.00  0.00    -0.342 N 
HETATM    4  H   UNL     1      26.888  42.524  48.578  1.00  0.00     0.167 HD
HETATM    5  C   UNL     1      27.890  40.959  49.611  1.00  0.00     0.139 A 
HETATM    6  N   UNL     1      28.316  40.839  50.856  1.00  0.00    -0.223 NA
HETATM    7  C   UNL     1      27.892  41.980  51.529  1.00  0.00     0.149 A 
ENDROOT
BRANCH   7   8
HETATM    8  C   UNL     1      28.130  42.185  52.965  1.00  0.00     0.276 C 
HETATM    9  N   UNL     1      28.940  43.281  53.180  1.00  0.00    -0.322 N 
HETATM   10  H   UNL     1      29.193  43.774  52.327  1.00  0.00     0.169 HD
HETATM   11  O   UNL     1      27.644  41.450  53.818  1.00  0.00    -0.266 OA
BRANCH   9  12
HETATM   12  C   UNL     1      29.443  43.769  54.398  1.00  0.00     0.035 A 
HETATM   13  C   UNL     1      30.447  43.129  55.130  1.00  0.00     0.039 A 
HETATM   14  C   UNL     1      30.888  43.713  56.309  1.00  0.00    -0.024 A 
HETATM   15  C   UNL     1      30.344  44.897  56.777  1.00  0.00    -0.026 A 
HETATM   16  C   UNL     1      31.929  43.240  57.254  1.00  0.00     0.207 C 
HETATM   17  C   UNL     1      30.990  45.258  58.063  1.00  0.00     0.207 C 
HETATM   18  C   UNL     1      29.342  45.545  56.079  1.00  0.00     0.012 A 
HETATM   19  O   UNL     1      32.089  44.327  58.199  1.00  0.00    -0.382 OA
HETATM   20  C   UNL     1      28.899  44.977  54.880  1.00  0.00     0.030 A 
ENDBRANCH   9  12
ENDBRANCH   7   8
BRANCH   5  21
HETATM   21  C   UNL     1      28.065  39.978  48.536  1.00  0.00     0.013 A 
HETATM   22  C   UNL     1      27.707  40.264  47.207  1.00  0.00     0.052 A 
HETATM   23  C   UNL     1      27.879  39.307  46.200  1.00  0.00     0.069 A 
HETATM   24  C   UNL     1      28.419  38.061  46.523  1.00  0.00     0.037 A 
HETATM   25  C   UNL     1      28.768  37.760  47.838  1.00  0.00     0.004 A 
HETATM   26  C   UNL     1      28.586  38.713  48.839  1.00  0.00     0.015 A 
BRANCH  23  27
HETATM   27  O   UNL     1      27.565  39.466  44.878  1.00  0.00    -0.356 OA
HETATM   28  C   UNL     1      28.601  39.227  43.933  1.00  0.00     0.210 C 
ENDBRANCH  23  27
ENDBRANCH   5  21
TORSDOF 4
ENDMDL
MODEL 10
REMARK VINA RESULT:      -8.4      2.352      9.172
REMARK  4 active torsions:
REMARK  status: ('A' for Active; 'I' for Inactive)
REMARK    1  A    between atoms: C_5  and  C_6 
REMARK    2  A    between atoms: C_8  and  O_9 
REMARK    3  A    between atoms: C_15  and  C_16 
REMARK       I    between atoms: C_16  and  N_17 
REMARK    4  A    between atoms: N_17  and  C_18 
ROOT
HETATM    1  C   UNL     1      27.188  41.395  49.994  1.00  0.00     0.071 C 
HETATM    2  C   UNL     1      27.249  42.361  51.114  1.00  0.00     0.041 A 
HETATM    3  N   UNL     1      28.307  42.438  51.982  1.00  0.00    -0.342 N 
HETATM    4  H   UNL     1      29.146  41.878  51.942  1.00  0.00     0.167 HD
HETATM    5  C   UNL     1      28.050  43.419  52.913  1.00  0.00     0.139 A 
HETATM    6  N   UNL     1      26.896  44.002  52.641  1.00  0.00    -0.223 NA
HETATM    7  C   UNL     1      26.365  43.334  51.543  1.00  0.00     0.149 A 
ENDROOT
BRANCH   7   8
HETATM    8  C   UNL     1      25.049  43.663  50.978  1.00  0.00     0.276 C 
HETATM    9  N   UNL     1      25.171  44.548  49.926  1.00  0.00    -0.322 N 
HETATM   10  H   UNL     1      26.135  44.780  49.699  1.00  0.00     0.169 HD
HETATM   11  O   UNL     1      24.011  43.184  51.420  1.00  0.00    -0.266 OA
BRANCH   9  12
HETATM   12  C   UNL     1      24.151  45.145  49.166  1.00  0.00     0.035 A 
HETATM   13  C   UNL     1      23.669  46.435  49.402  1.00  0.00     0.039 A 
HETATM   14  C   UNL     1      22.676  46.938  48.573  1.00  0.00    -0.024 A 
HETATM   15  C   UNL     1      22.149  46.185  47.537  1.00  0.00    -0.026 A 
HETATM   16  C   UNL     1      22.005  48.261  48.612  1.00  0.00     0.207 C 
HETATM   17  C   UNL     1      21.094  46.970  46.849  1.00  0.00     0.207 C 
HETATM   18  C   UNL     1      22.601  44.903  47.288  1.00  0.00     0.012 A 
HETATM   19  O   UNL     1      21.194  48.298  47.413  1.00  0.00    -0.382 OA
HETATM   20  C   UNL     1      23.613  44.388  48.105  1.00  0.00     0.030 A 
ENDBRANCH   9  12
ENDBRANCH   7   8
BRANCH   5  21
HETATM   21  C   UNL     1      28.954  43.757  54.016  1.00  0.00     0.013 A 
HETATM   22  C   UNL     1      28.758  44.899  54.813  1.00  0.00     0.052 A 
HETATM   23  C   UNL     1      29.640  45.202  55.855  1.00  0.00     0.069 A 
HETATM   24  C   UNL     1      30.720  44.354  56.108  1.00  0.00     0.037 A 
HETATM   25  C   UNL     1      30.934  43.226  55.320  1.00  0.00     0.004 A 
HETATM   26  C   UNL     1      30.058  42.933  54.276  1.00  0.00     0.015 A 
BRANCH  23  27
HETATM   27  O   UNL     1      29.554  46.281  56.692  1.00  0.00    -0.356 OA
HETATM   28  C   UNL     1      28.677  46.170  57.806  1.00  0.00     0.210 C 
ENDBRANCH  23  27
ENDBRANCH   5  21
TORSDOF 4
ENDMDL
