MODEL 1
REMARK VINA RESULT:      -7.8      0.000      0.000
REMARK  8 active torsions:
REMARK  status: ('A' for Active; 'I' for Inactive)
REMARK    1  A    between atoms: C_2  and  S_3 
REMARK    2  A    between atoms: S_3  and  C_4 
REMARK    3  A    between atoms: C_4  and  C_5 
REMARK    4  A    between atoms: C_5  and  N_6 
REMARK       I    between atoms: N_6  and  C_7 
REMARK    5  A    between atoms: N_6  and  C_22 
REMARK    6  A    between atoms: C_7  and  C_8 
REMARK    7  A    between atoms: C_12  and  C_13 
REMARK    8  A    between atoms: C_16  and  O_17 
ROOT
HETATM    1  C   UNL     1      28.283  42.190  52.584  1.00  0.00     0.120 A 
HETATM    2  N   UNL     1      29.609  42.232  52.250  1.00  0.00    -0.272 N 
HETATM    3  H   UNL     1      30.025  41.924  51.376  1.00  0.00     0.189 HD
HETATM    4  N   UNL     1      30.406  42.727  53.206  1.00  0.00    -0.174 NA
HETATM    5  C   UNL     1      29.566  43.117  54.179  1.00  0.00     0.089 A 
HETATM    6  C   UNL     1      28.223  42.820  53.810  1.00  0.00     0.071 A 
ENDROOT
BRANCH   1   7
HETATM    7  C   UNL     1      27.305  41.682  51.655  1.00  0.00     0.272 C 
HETATM    8  N   UNL     1      26.360  42.543  51.058  1.00  0.00    -0.341 N 
HETATM    9  O   UNL     1      27.289  40.474  51.418  1.00  0.00    -0.266 OA
BRANCH   8  10
HETATM   10  C   UNL     1      25.442  41.890  50.109  1.00  0.00     0.136 C 
BRANCH  10  11
HETATM   11  C   UNL     1      25.920  42.056  48.662  1.00  0.00     0.093 C 
BRANCH  11  12
HETATM   12  S   UNL     1      26.381  40.449  47.937  1.00  0.00    -0.168 SA
BRANCH  12  13
HETATM   13  C   UNL     1      28.190  40.646  47.991  1.00  0.00     0.069 C 
HETATM   14  C   UNL     1      28.841  39.367  48.484  1.00  0.00     0.016 C 
ENDBRANCH  12  13
ENDBRANCH  11  12
ENDBRANCH  10  11
ENDBRANCH   8  10
BRANCH   8  15
HETATM   15  C   UNL     1      26.097  43.937  51.505  1.00  0.00     0.087 C 
HETATM   16  C   UNL     1      26.829  45.067  50.745  1.00  0.00     0.025 C 
HETATM   17  C   UNL     1      26.088  45.697  49.562  1.00  0.00     0.002 C 
HETATM   18  C   UNL     1      24.611  45.939  49.843  1.00  0.00     0.000 C 
HETATM   19  C   UNL     1      23.930  44.686  50.373  1.00  0.00     0.002 C 
HETATM   20  C   UNL     1      24.592  44.216  51.662  1.00  0.00     0.025 C 
ENDBRANCH   8  15
ENDBRANCH   1   7
BRANCH   5  21
HETATM   21  C   UNL     1      30.052  43.765  55.402  1.00  0.00    -0.005 A 
HETATM   22  C   UNL     1      31.015  43.133  56.205  1.00  0.00     0.016 A 
HETATM   23  C   UNL     1      31.495  43.742  57.369  1.00  0.00     0.037 A 
HETATM   24  C   UNL     1      31.006  44.989  57.736  1.00  0.00     0.065 A 
HETATM   25  C   UNL     1      30.048  45.632  56.963  1.00  0.00     0.037 A 
HETATM   26  C   UNL     1      29.571  45.023  55.797  1.00  0.00     0.016 A 
BRANCH  24  27
HETATM   27  O   UNL     1      31.441  45.621  58.862  1.00  0.00    -0.361 OA
HETATM   28  H   UNL     1      30.955  46.457  58.953  1.00  0.00     0.217 HD
ENDBRANCH  24  27
ENDBRANCH   5  21
TORSDOF 8
ENDMDL
MODEL 2
REMARK VINA RESULT:      -7.5      7.858     11.152
REMARK  8 active torsions:
REMARK  status: ('A' for Active; 'I' for Inactive)
REMARK    1  A    between atoms: C_2  and  S_3 
REMARK    2  A    between atoms: S_3  and  C_4 
REMARK    3  A    between atoms: C_4  and  C_5 
REMARK    4  A    between atoms: C_5  and  N_6 
REMARK       I    between atoms: N_6  and  C_7 
REMARK    5  A    between atoms: N_6  and  C_22 
REMARK    6  A    between atoms: C_7  and  C_8 
REMARK    7  A    between atoms: C_12  and  C_13 
REMARK    8  A    between atoms: C_16  and  O_17 
ROOT
HETATM    1  C   UNL     1      21.208  48.053  48.214  1.00  0.00     0.120 A 
HETATM    2  N   UNL     1      21.687  46.987  48.926  1.00  0.00    -0.272 N 
HETATM    3  H   UNL     1      21.167  46.161  49.206  1.00  0.00     0.189 HD
HETATM    4  N   UNL     1      22.975  47.089  49.278  1.00  0.00    -0.174 NA
HETATM    5  C   UNL     1      23.396  48.225  48.698  1.00  0.00     0.089 A 
HETATM    6  C   UNL     1      22.319  48.842  47.999  1.00  0.00     0.071 A 
ENDROOT
BRANCH   1   7
HETATM    7  C   UNL     1      19.838  48.086  47.767  1.00  0.00     0.272 C 
HETATM    8  N   UNL     1      18.995  49.167  48.100  1.00  0.00    -0.341 N 
HETATM    9  O   UNL     1      19.409  47.135  47.113  1.00  0.00    -0.266 OA
BRANCH   8  10
HETATM   10  C   UNL     1      17.632  49.080  47.550  1.00  0.00     0.136 C 
BRANCH  10  11
HETATM   11  C   UNL     1      17.479  49.942  46.292  1.00  0.00     0.093 C 
BRANCH  11  12
HETATM   12  S   UNL     1      15.749  50.465  46.063  1.00  0.00    -0.168 SA
BRANCH  12  13
HETATM   13  C   UNL     1      16.005  52.265  46.157  1.00  0.00     0.069 C 
HETATM   14  C   UNL     1      16.923  52.722  45.038  1.00  0.00     0.016 C 
ENDBRANCH  12  13
ENDBRANCH  11  12
ENDBRANCH  10  11
ENDBRANCH   8  10
BRANCH   8  15
HETATM   15  C   UNL     1      19.317  50.194  49.127  1.00  0.00     0.087 C 
HETATM   16  C   UNL     1      19.872  51.545  48.618  1.00  0.00     0.025 C 
HETATM   17  C   UNL     1      18.851  52.656  48.356  1.00  0.00     0.002 C 
HETATM   18  C   UNL     1      17.778  52.747  49.431  1.00  0.00     0.000 C 
HETATM   19  C   UNL     1      17.130  51.394  49.691  1.00  0.00     0.002 C 
HETATM   20  C   UNL     1      18.171  50.375  50.137  1.00  0.00     0.025 C 
ENDBRANCH   8  15
ENDBRANCH   1   7
BRANCH   5  21
HETATM   21  C   UNL     1      24.788  48.675  48.806  1.00  0.00    -0.005 A 
HETATM   22  C   UNL     1      25.219  49.820  48.117  1.00  0.00     0.016 A 
HETATM   23  C   UNL     1      26.541  50.267  48.215  1.00  0.00     0.037 A 
HETATM   24  C   UNL     1      27.440  49.561  49.005  1.00  0.00     0.065 A 
HETATM   25  C   UNL     1      27.040  48.421  49.691  1.00  0.00     0.037 A 
HETATM   26  C   UNL     1      25.718  47.978  49.593  1.00  0.00     0.016 A 
BRANCH  24  27
HETATM   27  O   UNL     1      28.738  49.956  49.131  1.00  0.00    -0.361 OA
HETATM   28  H   UNL     1      29.240  49.607  48.376  1.00  0.00     0.217 HD
ENDBRANCH  24  27
ENDBRANCH   5  21
TORSDOF 8
ENDMDL
MODEL 3
REMARK VINA RESULT:      -7.3      4.659      8.691
REMARK  8 active torsions:
REMARK  status: ('A' for Active; 'I' for Inactive)
REMARK    1  A    between atoms: C_2  and  S_3 
REMARK    2  A    between atoms: S_3  and  C_4 
REMARK    3  A    between atoms: C_4  and  C_5 
REMARK    4  A    between atoms: C_5  and  N_6 
REMARK       I    between atoms: N_6  and  C_7 
REMARK    5  A    between atoms: N_6  and  C_22 
REMARK    6  A    between atoms: C_7  and  C_8 
REMARK    7  A    between atoms: C_12  and  C_13 
REMARK    8  A    between atoms: C_16  and  O_17 
ROOT
HETATM    1  C   UNL     1      25.519  47.082  49.797  1.00  0.00     0.120 A 
HETATM    2  N   UNL     1      25.937  48.347  49.487  1.00  0.00    -0.272 N 
HETATM    3  H   UNL     1      26.898  48.670  49.423  1.00  0.00     0.189 HD
HETATM    4  N   UNL     1      24.946  49.220  49.264  1.00  0.00    -0.174 NA
HETATM    5  C   UNL     1      23.825  48.484  49.336  1.00  0.00     0.089 A 
HETATM    6  C   UNL     1      24.148  47.132  49.642  1.00  0.00     0.071 A 
ENDROOT
BRANCH   1   7
HETATM    7  C   UNL     1      26.472  46.034  50.065  1.00  0.00     0.272 C 
HETATM    8  N   UNL     1      26.468  45.353  51.300  1.00  0.00    -0.341 N 
HETATM    9  O   UNL     1      27.311  45.767  49.204  1.00  0.00    -0.266 OA
BRANCH   8  10
HETATM   10  C   UNL     1      27.478  44.288  51.422  1.00  0.00     0.136 C 
BRANCH  10  11
HETATM   11  C   UNL     1      26.871  42.907  51.155  1.00  0.00     0.093 C 
BRANCH  11  12
HETATM   12  S   UNL     1      28.080  41.584  51.486  1.00  0.00    -0.168 SA
BRANCH  12  13
HETATM   13  C   UNL     1      28.577  42.097  53.160  1.00  0.00     0.069 C 
HETATM   14  C   UNL     1      30.027  42.549  53.160  1.00  0.00     0.016 C 
ENDBRANCH  12  13
ENDBRANCH  11  12
ENDBRANCH  10  11
ENDBRANCH   8  10
BRANCH   8  15
HETATM   15  C   UNL     1      25.714  45.801  52.502  1.00  0.00     0.087 C 
HETATM   16  C   UNL     1      25.570  44.786  53.659  1.00  0.00     0.025 C 
HETATM   17  C   UNL     1      26.633  44.838  54.760  1.00  0.00     0.002 C 
HETATM   18  C   UNL     1      27.001  46.257  55.169  1.00  0.00     0.000 C 
HETATM   19  C   UNL     1      27.353  47.114  53.961  1.00  0.00     0.002 C 
HETATM   20  C   UNL     1      26.181  47.184  52.990  1.00  0.00     0.025 C 
ENDBRANCH   8  15
ENDBRANCH   1   7
BRANCH   5  21
HETATM   21  C   UNL     1      22.502  49.072  49.098  1.00  0.00    -0.005 A 
HETATM   22  C   UNL     1      21.383  48.246  48.899  1.00  0.00     0.016 A 
HETATM   23  C   UNL     1      20.114  48.791  48.679  1.00  0.00     0.037 A 
HETATM   24  C   UNL     1      19.962  50.172  48.652  1.00  0.00     0.065 A 
HETATM   25  C   UNL     1      21.053  51.010  48.839  1.00  0.00     0.037 A 
HETATM   26  C   UNL     1      22.321  50.464  49.062  1.00  0.00     0.016 A 
BRANCH  24  27
HETATM   27  O   UNL     1      18.746  50.749  48.440  1.00  0.00    -0.361 OA
HETATM   28  H   UNL     1      18.794  51.275  47.624  1.00  0.00     0.217 HD
ENDBRANCH  24  27
ENDBRANCH   5  21
TORSDOF 8
ENDMDL
MODEL 4
REMARK VINA RESULT:      -7.2      2.115      4.032
REMARK  8 active torsions:
REMARK  status: ('A' for Active; 'I' for Inactive)
REMARK    1  A    between atoms: C_2  and  S_3 
REMARK    2  A    between atoms: S_3  and  C_4 
REMARK    3  A    between atoms: C_4  and  C_5 
REMARK    4  A    between atoms: C_5  and  N_6 
REMARK       I    between atoms: N_6  and  C_7 
REMARK    5  A    between atoms: N_6  and  C_22 
REMARK    6  A    between atoms: C_7  and  C_8 
REMARK    7  A    between atoms: C_12  and  C_13 
REMARK    8  A    between atoms: C_16  and  O_17 
ROOT
HETATM    1  C   UNL     1      27.609  43.787  51.759  1.00  0.00     0.120 A 
HETATM    2  N   UNL     1      26.670  44.065  52.714  1.00  0.00    -0.272 N 
HETATM    3  H   UNL     1      25.665  44.124  52.578  1.00  0.00     0.189 HD
HETATM    4  N   UNL     1      27.171  44.287  53.936  1.00  0.00    -0.174 NA
HETATM    5  C   UNL     1      28.487  44.055  53.810  1.00  0.00     0.089 A 
HETATM    6  C   UNL     1      28.794  43.712  52.462  1.00  0.00     0.071 A 
ENDROOT
BRANCH   1   7
HETATM    7  C   UNL     1      27.221  43.526  50.396  1.00  0.00     0.272 C 
HETATM    8  N   UNL     1      26.874  42.223  49.979  1.00  0.00    -0.341 N 
HETATM    9  O   UNL     1      27.228  44.459  49.592  1.00  0.00    -0.266 OA
BRANCH   8  10
HETATM   10  C   UNL     1      26.470  42.112  48.568  1.00  0.00     0.136 C 
BRANCH  10  11
HETATM   11  C   UNL     1      24.950  42.220  48.410  1.00  0.00     0.093 C 
BRANCH  11  12
HETATM   12  S   UNL     1      24.362  41.203  47.017  1.00  0.00    -0.168 SA
BRANCH  12  13
HETATM   13  C   UNL     1      22.610  41.696  47.052  1.00  0.00     0.069 C 
HETATM   14  C   UNL     1      22.484  43.149  47.475  1.00  0.00     0.016 C 
ENDBRANCH  12  13
ENDBRANCH  11  12
ENDBRANCH  10  11
ENDBRANCH   8  10
BRANCH   8  15
HETATM   15  C   UNL     1      27.129  40.994  50.778  1.00  0.00     0.087 C 
HETATM   16  C   UNL     1      26.136  39.822  50.596  1.00  0.00     0.025 C 
HETATM   17  C   UNL     1      26.495  38.770  49.543  1.00  0.00     0.002 C 
HETATM   18  C   UNL     1      27.970  38.391  49.555  1.00  0.00     0.000 C 
HETATM   19  C   UNL     1      28.864  39.621  49.496  1.00  0.00     0.002 C 
HETATM   20  C   UNL     1      28.596  40.540  50.681  1.00  0.00     0.025 C 
ENDBRANCH   8  15
ENDBRANCH   1   7
BRANCH   5  21
HETATM   21  C   UNL     1      29.398  44.146  54.956  1.00  0.00    -0.005 A 
HETATM   22  C   UNL     1      29.387  45.282  55.783  1.00  0.00     0.016 A 
HETATM   23  C   UNL     1      30.243  45.381  56.884  1.00  0.00     0.037 A 
HETATM   24  C   UNL     1      31.120  44.339  57.159  1.00  0.00     0.065 A 
HETATM   25  C   UNL     1      31.156  43.208  56.354  1.00  0.00     0.037 A 
HETATM   26  C   UNL     1      30.297  43.110  55.255  1.00  0.00     0.016 A 
BRANCH  24  27
HETATM   27  O   UNL     1      31.974  44.390  58.220  1.00  0.00    -0.361 OA
HETATM   28  H   UNL     1      31.626  45.029  58.865  1.00  0.00     0.217 HD
ENDBRANCH  24  27
ENDBRANCH   5  21
TORSDOF 8
ENDMDL
MODEL 5
REMARK VINA RESULT:      -7.0     12.943     14.371
REMARK  8 active torsions:
REMARK  status: ('A' for Active; 'I' for Inactive)
REMARK    1  A    between atoms: C_2  and  S_3 
REMARK    2  A    between atoms: S_3  and  C_4 
REMARK    3  A    between atoms: C_4  and  C_5 
REMARK    4  A    between atoms: C_5  and  N_6 
REMARK       I    between atoms: N_6  and  C_7 
REMARK    5  A    between atoms: N_6  and  C_22 
REMARK    6  A    between atoms: C_7  and  C_8 
REMARK    7  A    between atoms: C_12  and  C_13 
REMARK    8  A    between atoms: C_16  and  O_17 
ROOT
HETATM    1  C   UNL     1      32.707  50.037  42.393  1.00  0.00     0.120 A 
HETATM    2  N   UNL     1      33.655  49.414  41.630  1.00  0.00    -0.272 N 
HETATM    3  H   UNL     1      33.513  48.618  41.016  1.00  0.00     0.189 HD
HETATM    4  N   UNL     1      34.886  49.931  41.744  1.00  0.00    -0.174 NA
HETATM    5  C   UNL     1      34.732  50.999  42.542  1.00  0.00     0.089 A 
HETATM    6  C   UNL     1      33.371  51.112  42.947  1.00  0.00     0.071 A 
ENDROOT
BRANCH   1   7
HETATM    7  C   UNL     1      31.336  49.592  42.376  1.00  0.00     0.272 C 
HETATM    8  N   UNL     1      30.353  50.308  41.661  1.00  0.00    -0.341 N 
HETATM    9  O   UNL     1      31.034  48.590  43.025  1.00  0.00    -0.266 OA
BRANCH   8  10
HETATM   10  C   UNL     1      29.004  49.720  41.708  1.00  0.00     0.136 C 
BRANCH  10  11
HETATM   11  C   UNL     1      28.652  49.018  40.393  1.00  0.00     0.093 C 
BRANCH  11  12
HETATM   12  S   UNL     1      28.732  47.206  40.575  1.00  0.00    -0.168 SA
BRANCH  12  13
HETATM   13  C   UNL     1      30.342  46.933  39.772  1.00  0.00     0.069 C 
HETATM   14  C   UNL     1      30.669  48.091  38.846  1.00  0.00     0.016 C 
ENDBRANCH  12  13
ENDBRANCH  11  12
ENDBRANCH  10  11
ENDBRANCH   8  10
BRANCH   8  15
HETATM   15  C   UNL     1      30.548  51.677  41.111  1.00  0.00     0.087 C 
HETATM   16  C   UNL     1      31.041  51.782  39.650  1.00  0.00     0.025 C 
HETATM   17  C   UNL     1      29.966  51.897  38.565  1.00  0.00     0.002 C 
HETATM   18  C   UNL     1      28.829  52.834  38.947  1.00  0.00     0.000 C 
HETATM   19  C   UNL     1      28.258  52.491  40.316  1.00  0.00     0.002 C 
HETATM   20  C   UNL     1      29.336  52.584  41.388  1.00  0.00     0.025 C 
ENDBRANCH   8  15
ENDBRANCH   1   7
BRANCH   5  21
HETATM   21  C   UNL     1      35.858  51.878  42.878  1.00  0.00    -0.005 A 
HETATM   22  C   UNL     1      35.896  52.542  44.115  1.00  0.00     0.016 A 
HETATM   23  C   UNL     1      36.966  53.377  44.453  1.00  0.00     0.037 A 
HETATM   24  C   UNL     1      38.004  53.553  43.547  1.00  0.00     0.065 A 
HETATM   25  C   UNL     1      37.987  52.913  42.314  1.00  0.00     0.037 A 
HETATM   26  C   UNL     1      36.918  52.076  41.979  1.00  0.00     0.016 A 
BRANCH  24  27
HETATM   27  O   UNL     1      39.067  54.356  43.831  1.00  0.00    -0.361 OA
HETATM   28  H   UNL     1      39.649  53.888  44.453  1.00  0.00     0.217 HD
ENDBRANCH  24  27
ENDBRANCH   5  21
TORSDOF 8
ENDMDL
MODEL 6
REMARK VINA RESULT:      -7.0      2.793      3.571
REMARK  8 active torsions:
REMARK  status: ('A' for Active; 'I' for Inactive)
REMARK    1  A    between atoms: C_2  and  S_3 
REMARK    2  A    between atoms: S_3  and  C_4 
REMARK    3  A    between atoms: C_4  and  C_5 
REMARK    4  A    between atoms: C_5  and  N_6 
REMARK       I    between atoms: N_6  and  C_7 
REMARK    5  A    between atoms: N_6  and  C_22 
REMARK    6  A    between atoms: C_7  and  C_8 
REMARK    7  A    between atoms: C_12  and  C_13 
REMARK    8  A    between atoms: C_16  and  O_17 
ROOT
HETATM    1  C   UNL     1      25.747  44.785  52.571  1.00  0.00     0.120 A 
HETATM    2  N   UNL     1      25.395  45.415  53.733  1.00  0.00    -0.272 N 
HETATM    3  H   UNL     1      24.497  45.838  53.946  1.00  0.00     0.189 HD
HETATM    4  N   UNL     1      26.368  45.467  54.652  1.00  0.00    -0.174 NA
HETATM    5  C   UNL     1      27.378  44.761  54.117  1.00  0.00     0.089 A 
HETATM    6  C   UNL     1      27.013  44.295  52.821  1.00  0.00     0.071 A 
ENDROOT
BRANCH   1   7
HETATM    7  C   UNL     1      24.805  44.653  51.489  1.00  0.00     0.272 C 
HETATM    8  N   UNL     1      24.520  45.744  50.641  1.00  0.00    -0.341 N 
HETATM    9  O   UNL     1      24.228  43.575  51.338  1.00  0.00    -0.266 OA
BRANCH   8  10
HETATM   10  C   UNL     1      23.561  45.455  49.562  1.00  0.00     0.136 C 
BRANCH  10  11
HETATM   11  C   UNL     1      24.211  44.643  48.436  1.00  0.00     0.093 C 
BRANCH  11  12
HETATM   12  S   UNL     1      22.949  43.879  47.366  1.00  0.00    -0.168 SA
BRANCH  12  13
HETATM   13  C   UNL     1      22.952  42.215  48.103  1.00  0.00     0.069 C 
HETATM   14  C   UNL     1      24.378  41.755  48.350  1.00  0.00     0.016 C 
ENDBRANCH  12  13
ENDBRANCH  11  12
ENDBRANCH  10  11
ENDBRANCH   8  10
BRANCH   8  15
HETATM   15  C   UNL     1      24.919  47.150  50.922  1.00  0.00     0.087 C 
HETATM   16  C   UNL     1      26.425  47.485  50.816  1.00  0.00     0.025 C 
HETATM   17  C   UNL     1      26.924  48.002  49.463  1.00  0.00     0.002 C 
HETATM   18  C   UNL     1      25.976  49.006  48.821  1.00  0.00     0.000 C 
HETATM   19  C   UNL     1      24.551  48.474  48.766  1.00  0.00     0.002 C 
HETATM   20  C   UNL     1      24.039  48.159  50.165  1.00  0.00     0.025 C 
ENDBRANCH   8  15
ENDBRANCH   1   7
BRANCH   5  21
HETATM   21  C   UNL     1      28.632  44.538  54.845  1.00  0.00    -0.005 A 
HETATM   22  C   UNL     1      29.379  43.369  54.629  1.00  0.00     0.016 A 
HETATM   23  C   UNL     1      30.580  43.145  55.308  1.00  0.00     0.037 A 
HETATM   24  C   UNL     1      31.036  44.093  56.215  1.00  0.00     0.065 A 
HETATM   25  C   UNL     1      30.312  45.255  56.452  1.00  0.00     0.037 A 
HETATM   26  C   UNL     1      29.113  45.478  55.769  1.00  0.00     0.016 A 
BRANCH  24  27
HETATM   27  O   UNL     1      32.200  43.919  56.902  1.00  0.00    -0.361 OA
HETATM   28  H   UNL     1      32.442  44.765  57.315  1.00  0.00     0.217 HD
ENDBRANCH  24  27
ENDBRANCH   5  21
TORSDOF 8
ENDMDL
MODEL 7
REMARK VINA RESULT:      -6.9      3.057      4.530
REMARK  8 active torsions:
REMARK  status: ('A' for Active; 'I' for Inactive)
REMARK    1  A    between atoms: C_2  and  S_3 
REMARK    2  A    between atoms: S_3  and  C_4 
REMARK    3  A    between atoms: C_4  and  C_5 
REMARK    4  A    between atoms: C_5  and  N_6 
REMARK       I    between atoms: N_6  and  C_7 
REMARK    5  A    between atoms: N_6  and  C_22 
REMARK    6  A    between atoms: C_7  and  C_8 
REMARK    7  A    between atoms: C_12  and  C_13 
REMARK    8  A    between atoms: C_16  and  O_17 
ROOT
HETATM    1  C   UNL     1      26.156  44.568  51.984  1.00  0.00     0.120 A 
HETATM    2  N   UNL     1      25.561  44.964  53.150  1.00  0.00    -0.272 N 
HETATM    3  H   UNL     1      24.586  45.220  53.278  1.00  0.00     0.189 HD
HETATM    4  N   UNL     1      26.386  45.015  54.205  1.00  0.00    -0.174 NA
HETATM    5  C   UNL     1      27.555  44.545  53.742  1.00  0.00     0.089 A 
HETATM    6  C   UNL     1      27.440  44.229  52.359  1.00  0.00     0.071 A 
ENDROOT
BRANCH   1   7
HETATM    7  C   UNL     1      25.395  44.466  50.765  1.00  0.00     0.272 C 
HETATM    8  N   UNL     1      25.038  45.621  50.037  1.00  0.00    -0.341 N 
HETATM    9  O   UNL     1      25.035  43.351  50.386  1.00  0.00    -0.266 OA
BRANCH   8  10
HETATM   10  C   UNL     1      24.287  45.363  48.797  1.00  0.00     0.136 C 
BRANCH  10  11
HETATM   11  C   UNL     1      22.833  44.978  49.092  1.00  0.00     0.093 C 
BRANCH  11  12
HETATM   12  S   UNL     1      21.750  45.383  47.684  1.00  0.00    -0.168 SA
BRANCH  12  13
HETATM   13  C   UNL     1      20.870  46.793  48.427  1.00  0.00     0.069 C 
HETATM   14  C   UNL     1      20.771  47.933  47.429  1.00  0.00     0.016 C 
ENDBRANCH  12  13
ENDBRANCH  11  12
ENDBRANCH  10  11
ENDBRANCH   8  10
BRANCH   8  15
HETATM   15  C   UNL     1      25.152  47.009  50.561  1.00  0.00     0.087 C 
HETATM   16  C   UNL     1      26.544  47.677  50.479  1.00  0.00     0.025 C 
HETATM   17  C   UNL     1      26.835  48.516  49.232  1.00  0.00     0.002 C 
HETATM   18  C   UNL     1      25.659  49.386  48.808  1.00  0.00     0.000 C 
HETATM   19  C   UNL     1      24.376  48.575  48.694  1.00  0.00     0.002 C 
HETATM   20  C   UNL     1      24.032  47.918  50.025  1.00  0.00     0.025 C 
ENDBRANCH   8  15
ENDBRANCH   1   7
BRANCH   5  21
HETATM   21  C   UNL     1      28.724  44.395  54.617  1.00  0.00    -0.005 A 
HETATM   22  C   UNL     1      29.051  45.400  55.542  1.00  0.00     0.016 A 
HETATM   23  C   UNL     1      30.157  45.269  56.388  1.00  0.00     0.037 A 
HETATM   24  C   UNL     1      30.944  44.127  56.306  1.00  0.00     0.065 A 
HETATM   25  C   UNL     1      30.646  43.122  55.395  1.00  0.00     0.037 A 
HETATM   26  C   UNL     1      29.539  43.255  54.552  1.00  0.00     0.016 A 
BRANCH  24  27
HETATM   27  O   UNL     1      32.032  43.955  57.109  1.00  0.00    -0.361 OA
HETATM   28  H   UNL     1      32.120  43.007  57.308  1.00  0.00     0.217 HD
ENDBRANCH  24  27
ENDBRANCH   5  21
TORSDOF 8
ENDMDL
MODEL 8
REMARK VINA RESULT:      -6.8     12.418     15.836
REMARK  8 active torsions:
REMARK  status: ('A' for Active; 'I' for Inactive)
REMARK    1  A    between atoms: C_2  and  S_3 
REMARK    2  A    between atoms: S_3  and  C_4 
REMARK    3  A    between atoms: C_4  and  C_5 
REMARK    4  A    between atoms: C_5  and  N_6 
REMARK       I    between atoms: N_6  and  C_7 
REMARK    5  A    between atoms: N_6  and  C_22 
REMARK    6  A    between atoms: C_7  and  C_8 
REMARK    7  A    between atoms: C_12  and  C_13 
REMARK    8  A    between atoms: C_16  and  O_17 
ROOT
HETATM    1  C   UNL     1      15.352  52.696  49.435  1.00  0.00     0.120 A 
HETATM    2  N   UNL     1      14.424  52.484  50.417  1.00  0.00    -0.272 N 
HETATM    3  H   UNL     1      13.917  51.622  50.597  1.00  0.00     0.189 HD
HETATM    4  N   UNL     1      14.180  53.550  51.190  1.00  0.00    -0.174 NA
HETATM    5  C   UNL     1      15.049  54.482  50.765  1.00  0.00     0.089 A 
HETATM    6  C   UNL     1      15.820  53.971  49.682  1.00  0.00     0.071 A 
ENDROOT
BRANCH   1   7
HETATM    7  C   UNL     1      15.718  51.641  48.524  1.00  0.00     0.272 C 
HETATM    8  N   UNL     1      16.797  50.779  48.812  1.00  0.00    -0.341 N 
HETATM    9  O   UNL     1      15.088  51.525  47.472  1.00  0.00    -0.266 OA
BRANCH   8  10
HETATM   10  C   UNL     1      17.037  49.730  47.808  1.00  0.00     0.136 C 
BRANCH  10  11
HETATM   11  C   UNL     1      16.069  48.555  47.982  1.00  0.00     0.093 C 
BRANCH  11  12
HETATM   12  S   UNL     1      16.955  47.048  48.496  1.00  0.00    -0.168 SA
BRANCH  12  13
HETATM   13  C   UNL     1      18.138  46.955  47.116  1.00  0.00     0.069 C 
HETATM   14  C   UNL     1      19.488  46.473  47.614  1.00  0.00     0.016 C 
ENDBRANCH  12  13
ENDBRANCH  11  12
ENDBRANCH  10  11
ENDBRANCH   8  10
BRANCH   8  15
HETATM   15  C   UNL     1      17.801  51.024  49.884  1.00  0.00     0.087 C 
HETATM   16  C   UNL     1      18.546  49.789  50.441  1.00  0.00     0.025 C 
HETATM   17  C   UNL     1      19.881  49.432  49.782  1.00  0.00     0.002 C 
HETATM   18  C   UNL     1      20.747  50.649  49.487  1.00  0.00     0.000 C 
HETATM   19  C   UNL     1      19.973  51.715  48.725  1.00  0.00     0.002 C 
HETATM   20  C   UNL     1      18.758  52.173  49.522  1.00  0.00     0.025 C 
ENDBRANCH   8  15
ENDBRANCH   1   7
BRANCH   5  21
HETATM   21  C   UNL     1      15.134  55.802  51.400  1.00  0.00    -0.005 A 
HETATM   22  C   UNL     1      15.188  56.965  50.615  1.00  0.00     0.016 A 
HETATM   23  C   UNL     1      15.261  58.231  51.205  1.00  0.00     0.037 A 
HETATM   24  C   UNL     1      15.285  58.335  52.590  1.00  0.00     0.065 A 
HETATM   25  C   UNL     1      15.239  57.200  53.389  1.00  0.00     0.037 A 
HETATM   26  C   UNL     1      15.164  55.935  52.797  1.00  0.00     0.016 A 
BRANCH  24  27
HETATM   27  O   UNL     1      15.357  59.546  53.210  1.00  0.00    -0.361 OA
HETATM   28  H   UNL     1      14.692  59.568  53.919  1.00  0.00     0.217 HD
ENDBRANCH  24  27
ENDBRANCH   5  21
TORSDOF 8
ENDMDL
MODEL 9
REMARK VINA RESULT:      -6.7      8.771     12.307
REMARK  8 active torsions:
REMARK  status: ('A' for Active; 'I' for Inactive)
REMARK    1  A    between atoms: C_2  and  S_3 
REMARK    2  A    between atoms: S_3  and  C_4 
REMARK    3  A    between atoms: C_4  and  C_5 
REMARK    4  A    between atoms: C_5  and  N_6 
REMARK       I    between atoms: N_6  and  C_7 
REMARK    5  A    between atoms: N_6  and  C_22 
REMARK    6  A    between atoms: C_7  and  C_8 
REMARK    7  A    between atoms: C_12  and  C_13 
REMARK    8  A    between atoms: C_16  and  O_17 
ROOT
HETATM    1  C   UNL     1      20.733  51.126  48.709  1.00  0.00     0.120 A 
HETATM    2  N   UNL     1      21.030  51.076  50.043  1.00  0.00    -0.272 N 
HETATM    3  H   UNL     1      20.419  51.336  50.812  1.00  0.00     0.189 HD
HETATM    4  N   UNL     1      22.268  50.645  50.319  1.00  0.00    -0.174 NA
HETATM    5  C   UNL     1      22.783  50.306  49.126  1.00  0.00     0.089 A 
HETATM    6  C   UNL     1      21.836  50.570  48.095  1.00  0.00     0.071 A 
ENDROOT
BRANCH   1   7
HETATM    7  C   UNL     1      19.438  51.571  48.258  1.00  0.00     0.272 C 
HETATM    8  N   UNL     1      18.439  50.642  47.899  1.00  0.00    -0.341 N 
HETATM    9  O   UNL     1      19.231  52.781  48.162  1.00  0.00    -0.266 OA
BRANCH   8  10
HETATM   10  C   UNL     1      17.158  51.238  47.486  1.00  0.00     0.136 C 
BRANCH  10  11
HETATM   11  C   UNL     1      16.177  51.327  48.659  1.00  0.00     0.093 C 
BRANCH  11  12
HETATM   12  S   UNL     1      15.241  52.889  48.615  1.00  0.00    -0.168 SA
BRANCH  12  13
HETATM   13  C   UNL     1      15.680  53.505  50.271  1.00  0.00     0.069 C 
HETATM   14  C   UNL     1      15.252  54.954  50.421  1.00  0.00     0.016 C 
ENDBRANCH  12  13
ENDBRANCH  11  12
ENDBRANCH  10  11
ENDBRANCH   8  10
BRANCH   8  15
HETATM   15  C   UNL     1      18.685  49.190  47.684  1.00  0.00     0.087 C 
HETATM   16  C   UNL     1      18.350  48.241  48.858  1.00  0.00     0.025 C 
HETATM   17  C   UNL     1      16.947  47.626  48.871  1.00  0.00     0.002 C 
HETATM   18  C   UNL     1      16.484  47.165  47.496  1.00  0.00     0.000 C 
HETATM   19  C   UNL     1      16.643  48.264  46.455  1.00  0.00     0.002 C 
HETATM   20  C   UNL     1      18.099  48.700  46.349  1.00  0.00     0.025 C 
ENDBRANCH   8  15
ENDBRANCH   1   7
BRANCH   5  21
HETATM   21  C   UNL     1      24.128  49.735  49.002  1.00  0.00    -0.005 A 
HETATM   22  C   UNL     1      25.101  50.374  48.216  1.00  0.00     0.016 A 
HETATM   23  C   UNL     1      26.390  49.846  48.094  1.00  0.00     0.037 A 
HETATM   24  C   UNL     1      26.709  48.669  48.759  1.00  0.00     0.065 A 
HETATM   25  C   UNL     1      25.764  48.014  49.537  1.00  0.00     0.037 A 
HETATM   26  C   UNL     1      24.476  48.545  49.660  1.00  0.00     0.016 A 
BRANCH  24  27
HETATM   27  O   UNL     1      27.952  48.116  48.670  1.00  0.00    -0.361 OA
HETATM   28  H   UNL     1      28.608  48.799  48.886  1.00  0.00     0.217 HD
ENDBRANCH  24  27
ENDBRANCH   5  21
TORSDOF 8
ENDMDL
MODEL 10
REMARK VINA RESULT:      -6.6     12.878     14.281
REMARK  8 active torsions:
REMARK  status: ('A' for Active; 'I' for Inactive)
REMARK    1  A    between atoms: C_2  and  S_3 
REMARK    2  A    between atoms: S_3  and  C_4 
REMARK    3  A    between atoms: C_4  and  C_5 
REMARK    4  A    between atoms: C_5  and  N_6 
REMARK       I    between atoms: N_6  and  C_7 
REMARK    5  A    between atoms: N_6  and  C_22 
REMARK    6  A    between atoms: C_7  and  C_8 
REMARK    7  A    between atoms: C_12  and  C_13 
REMARK    8  A    between atoms: C_16  and  O_17 
ROOT
HETATM    1  C   UNL     1      32.421  50.523  42.830  1.00  0.00     0.120 A 
HETATM    2  N   UNL     1      32.373  51.301  43.954  1.00  0.00    -0.272 N 
HETATM    3  H   UNL     1      31.591  51.396  44.594  1.00  0.00     0.189 HD
HETATM    4  N   UNL     1      33.491  52.002  44.191  1.00  0.00    -0.174 NA
HETATM    5  C   UNL     1      34.349  51.602  43.239  1.00  0.00     0.089 A 
HETATM    6  C   UNL     1      33.720  50.653  42.383  1.00  0.00     0.071 A 
ENDROOT
BRANCH   1   7
HETATM    7  C   UNL     1      31.293  49.712  42.445  1.00  0.00     0.272 C 
HETATM    8  N   UNL     1      30.334  50.197  41.531  1.00  0.00    -0.341 N 
HETATM    9  O   UNL     1      31.166  48.599  42.955  1.00  0.00    -0.266 OA
BRANCH   8  10
HETATM   10  C   UNL     1      29.253  49.250  41.209  1.00  0.00     0.136 C 
BRANCH  10  11
HETATM   11  C   UNL     1      29.413  48.677  39.796  1.00  0.00     0.093 C 
BRANCH  11  12
HETATM   12  S   UNL     1      30.261  47.064  39.836  1.00  0.00    -0.168 SA
BRANCH  12  13
HETATM   13  C   UNL     1      28.798  45.995  39.667  1.00  0.00     0.069 C 
HETATM   14  C   UNL     1      29.163  44.722  38.925  1.00  0.00     0.016 C 
ENDBRANCH  12  13
ENDBRANCH  11  12
ENDBRANCH  10  11
ENDBRANCH   8  10
BRANCH   8  15
HETATM   15  C   UNL     1      30.227  51.619  41.104  1.00  0.00     0.087 C 
HETATM   16  C   UNL     1      30.900  52.000  39.765  1.00  0.00     0.025 C 
HETATM   17  C   UNL     1      30.025  51.941  38.510  1.00  0.00     0.002 C 
HETATM   18  C   UNL     1      28.627  52.501  38.730  1.00  0.00     0.000 C 
HETATM   19  C   UNL     1      27.961  51.880  39.950  1.00  0.00     0.002 C 
HETATM   20  C   UNL     1      28.784  52.141  41.204  1.00  0.00     0.025 C 
ENDBRANCH   8  15
ENDBRANCH   1   7
BRANCH   5  21
HETATM   21  C   UNL     1      35.724  52.110  43.181  1.00  0.00    -0.005 A 
HETATM   22  C   UNL     1      36.533  51.842  42.064  1.00  0.00     0.016 A 
HETATM   23  C   UNL     1      37.843  52.325  41.990  1.00  0.00     0.037 A 
HETATM   24  C   UNL     1      38.351  53.078  43.041  1.00  0.00     0.065 A 
HETATM   25  C   UNL     1      37.575  53.351  44.160  1.00  0.00     0.037 A 
HETATM   26  C   UNL     1      36.264  52.869  44.231  1.00  0.00     0.016 A 
BRANCH  24  27
HETATM   27  O   UNL     1      39.622  53.569  43.015  1.00  0.00    -0.361 OA
HETATM   28  H   UNL     1      39.586  54.499  42.736  1.00  0.00     0.217 HD
ENDBRANCH  24  27
ENDBRANCH   5  21
TORSDOF 8
ENDMDL
