MODEL 1
REMARK VINA RESULT:      -9.3      0.000      0.000
REMARK  8 active torsions:
REMARK  status: ('A' for Active; 'I' for Inactive)
REMARK    1  A    between atoms: C_2  and  O_3 
REMARK    2  A    between atoms: O_3  and  C_4 
REMARK    3  A    between atoms: C_5  and  N_6 
REMARK       I    between atoms: N_6  and  C_7 
REMARK    4  A    between atoms: C_7  and  C_8 
REMARK    5  A    between atoms: C_8  and  N_9 
REMARK    6  A    between atoms: C_12  and  C_13 
REMARK       I    between atoms: C_13  and  N_14 
REMARK    7  A    between atoms: N_14  and  C_15 
REMARK    8  A    between atoms: C_23  and  N_24 
ROOT
HETATM    1  N   UNL     1      26.946  43.901  51.234  1.00  0.00    -0.248 N 
HETATM    2  N   UNL     1      27.244  44.183  49.950  1.00  0.00     0.007 NA
HETATM    3  N   UNL     1      26.616  45.302  49.628  1.00  0.00    -0.150 NA
HETATM    4  C   UNL     1      25.973  45.774  50.749  1.00  0.00     0.187 A 
HETATM    5  C   UNL     1      26.202  44.908  51.805  1.00  0.00     0.151 A 
ENDROOT
BRANCH   1   6
HETATM    6  C   UNL     1      27.413  42.669  51.825  1.00  0.00     0.251 C 
BRANCH   6   7
HETATM    7  C   UNL     1      27.883  42.895  53.246  1.00  0.00     0.241 C 
HETATM    8  N   UNL     1      29.063  43.628  53.338  1.00  0.00    -0.323 N 
HETATM    9  H   UNL     1      29.707  43.548  52.563  1.00  0.00     0.169 HD
HETATM   10  O   UNL     1      27.286  42.406  54.199  1.00  0.00    -0.271 OA
BRANCH   8  11
HETATM   11  C   UNL     1      29.621  44.053  54.568  1.00  0.00     0.068 A 
HETATM   12  C   UNL     1      29.214  45.202  55.267  1.00  0.00     0.095 A 
HETATM   13  C   UNL     1      29.741  45.485  56.530  1.00  0.00     0.039 A 
HETATM   14  C   UNL     1      30.732  44.672  57.074  1.00  0.00     0.003 A 
HETATM   15  C   UNL     1      31.204  43.579  56.352  1.00  0.00     0.002 A 
HETATM   16  C   UNL     1      30.659  43.275  55.100  1.00  0.00     0.032 A 
BRANCH  12  17
HETATM   17  O   UNL     1      28.340  46.136  54.774  1.00  0.00    -0.349 OA
BRANCH  17  18
HETATM   18  C   UNL     1      27.872  47.017  55.802  1.00  0.00     0.171 C 
HETATM   19  C   UNL     1      26.773  47.885  55.218  1.00  0.00     0.034 C 
ENDBRANCH  17  18
ENDBRANCH  12  17
ENDBRANCH   8  11
ENDBRANCH   6   7
ENDBRANCH   1   6
BRANCH   5  20
HETATM   20  N   UNL     1      25.809  44.933  53.105  1.00  0.00    -0.382 N 
HETATM   21  H   UNL     1      26.443  45.421  53.751  1.00  0.00     0.157 HD
HETATM   22  H   UNL     1      25.427  44.104  53.552  1.00  0.00     0.157 HD
ENDBRANCH   5  20
BRANCH   4  23
HETATM   23  C   UNL     1      25.229  47.032  50.744  1.00  0.00     0.280 C 
HETATM   24  N   UNL     1      24.839  47.375  49.463  1.00  0.00    -0.320 N 
HETATM   25  H   UNL     1      25.273  46.797  48.748  1.00  0.00     0.169 HD
HETATM   26  O   UNL     1      25.080  47.684  51.768  1.00  0.00    -0.265 OA
BRANCH  24  27
HETATM   27  C   UNL     1      24.137  48.510  49.003  1.00  0.00     0.057 A 
HETATM   28  C   UNL     1      24.658  49.641  48.350  1.00  0.00     0.060 A 
HETATM   29 CL   UNL     1      26.342  49.994  48.194  1.00  0.00    -0.082 Cl
HETATM   30  C   UNL     1      23.794  50.661  47.916  1.00  0.00     0.026 A 
HETATM   31  C   UNL     1      22.423  50.591  48.156  1.00  0.00     0.002 A 
HETATM   32  C   UNL     1      21.905  49.508  48.852  1.00  0.00     0.002 A 
HETATM   33  C   UNL     1      22.755  48.484  49.275  1.00  0.00     0.031 A 
ENDBRANCH  24  27
ENDBRANCH   4  23
TORSDOF 8
ENDMDL
MODEL 2
REMARK VINA RESULT:      -9.2      2.468      8.402
REMARK  8 active torsions:
REMARK  status: ('A' for Active; 'I' for Inactive)
REMARK    1  A    between atoms: C_2  and  O_3 
REMARK    2  A    between atoms: O_3  and  C_4 
REMARK    3  A    between atoms: C_5  and  N_6 
REMARK       I    between atoms: N_6  and  C_7 
REMARK    4  A    between atoms: C_7  and  C_8 
REMARK    5  A    between atoms: C_8  and  N_9 
REMARK    6  A    between atoms: C_12  and  C_13 
REMARK       I    between atoms: C_13  and  N_14 
REMARK    7  A    between atoms: N_14  and  C_15 
REMARK    8  A    between atoms: C_23  and  N_24 
ROOT
HETATM    1  N   UNL     1      24.215  44.251  50.465  1.00  0.00    -0.248 N 
HETATM    2  N   UNL     1      23.858  44.528  51.736  1.00  0.00     0.007 NA
HETATM    3  N   UNL     1      24.949  44.477  52.481  1.00  0.00    -0.150 NA
HETATM    4  C   UNL     1      26.025  44.238  51.656  1.00  0.00     0.187 A 
HETATM    5  C   UNL     1      25.580  44.125  50.349  1.00  0.00     0.151 A 
ENDROOT
BRANCH   1   6
HETATM    6  C   UNL     1      23.201  44.133  49.444  1.00  0.00     0.251 C 
BRANCH   6   7
HETATM    7  C   UNL     1      23.005  45.448  48.723  1.00  0.00     0.241 C 
HETATM    8  N   UNL     1      23.062  46.561  49.558  1.00  0.00    -0.323 N 
HETATM    9  H   UNL     1      22.772  46.423  50.516  1.00  0.00     0.169 HD
HETATM   10  O   UNL     1      22.757  45.485  47.522  1.00  0.00    -0.271 OA
BRANCH   8  11
HETATM   11  C   UNL     1      23.018  47.894  49.082  1.00  0.00     0.068 A 
HETATM   12  C   UNL     1      24.151  48.699  48.877  1.00  0.00     0.095 A 
HETATM   13  C   UNL     1      24.024  49.964  48.297  1.00  0.00     0.039 A 
HETATM   14  C   UNL     1      22.765  50.471  47.988  1.00  0.00     0.003 A 
HETATM   15  C   UNL     1      21.628  49.715  48.267  1.00  0.00     0.002 A 
HETATM   16  C   UNL     1      21.753  48.437  48.820  1.00  0.00     0.032 A 
BRANCH  12  17
HETATM   17  O   UNL     1      25.422  48.354  49.257  1.00  0.00    -0.349 OA
BRANCH  17  18
HETATM   18  C   UNL     1      26.391  49.296  48.782  1.00  0.00     0.171 C 
HETATM   19  C   UNL     1      27.768  48.807  49.192  1.00  0.00     0.034 C 
ENDBRANCH  17  18
ENDBRANCH  12  17
ENDBRANCH   8  11
ENDBRANCH   6   7
ENDBRANCH   1   6
BRANCH   5  20
HETATM   20  N   UNL     1      26.237  43.911  49.180  1.00  0.00    -0.382 N 
HETATM   21  H   UNL     1      25.752  44.233  48.332  1.00  0.00     0.157 HD
HETATM   22  H   UNL     1      26.707  43.028  48.998  1.00  0.00     0.157 HD
ENDBRANCH   5  20
BRANCH   4  23
HETATM   23  C   UNL     1      27.393  44.179  52.164  1.00  0.00     0.280 C 
HETATM   24  N   UNL     1      27.429  44.405  53.527  1.00  0.00    -0.320 N 
HETATM   25  H   UNL     1      26.541  44.733  53.899  1.00  0.00     0.169 HD
HETATM   26  O   UNL     1      28.343  44.026  51.409  1.00  0.00    -0.265 OA
BRANCH  24  27
HETATM   27  C   UNL     1      28.531  44.468  54.408  1.00  0.00     0.057 A 
HETATM   28  C   UNL     1      28.951  45.559  55.187  1.00  0.00     0.060 A 
HETATM   29 CL   UNL     1      28.335  47.166  55.037  1.00  0.00    -0.082 Cl
HETATM   30  C   UNL     1      30.052  45.423  56.050  1.00  0.00     0.026 A 
HETATM   31  C   UNL     1      30.765  44.228  56.121  1.00  0.00     0.002 A 
HETATM   32  C   UNL     1      30.396  43.162  55.312  1.00  0.00     0.002 A 
HETATM   33  C   UNL     1      29.295  43.285  54.461  1.00  0.00     0.031 A 
ENDBRANCH  24  27
ENDBRANCH   4  23
TORSDOF 8
ENDMDL
MODEL 3
REMARK VINA RESULT:      -9.2      2.647      8.926
REMARK  8 active torsions:
REMARK  status: ('A' for Active; 'I' for Inactive)
REMARK    1  A    between atoms: C_2  and  O_3 
REMARK    2  A    between atoms: O_3  and  C_4 
REMARK    3  A    between atoms: C_5  and  N_6 
REMARK       I    between atoms: N_6  and  C_7 
REMARK    4  A    between atoms: C_7  and  C_8 
REMARK    5  A    between atoms: C_8  and  N_9 
REMARK    6  A    between atoms: C_12  and  C_13 
REMARK       I    between atoms: C_13  and  N_14 
REMARK    7  A    between atoms: N_14  and  C_15 
REMARK    8  A    between atoms: C_23  and  N_24 
ROOT
HETATM    1  N   UNL     1      23.628  45.417  49.563  1.00  0.00    -0.248 N 
HETATM    2  N   UNL     1      24.377  46.527  49.721  1.00  0.00     0.007 NA
HETATM    3  N   UNL     1      25.142  46.348  50.786  1.00  0.00    -0.150 NA
HETATM    4  C   UNL     1      24.926  45.075  51.263  1.00  0.00     0.187 A 
HETATM    5  C   UNL     1      23.982  44.444  50.470  1.00  0.00     0.151 A 
ENDROOT
BRANCH   1   6
HETATM    6  C   UNL     1      22.618  45.374  48.532  1.00  0.00     0.251 C 
BRANCH   6   7
HETATM    7  C   UNL     1      22.184  46.770  48.143  1.00  0.00     0.241 C 
HETATM    8  N   UNL     1      21.699  47.526  49.207  1.00  0.00    -0.323 N 
HETATM    9  H   UNL     1      21.262  47.016  49.962  1.00  0.00     0.169 HD
HETATM   10  O   UNL     1      22.210  47.142  46.974  1.00  0.00    -0.271 OA
BRANCH   8  11
HETATM   11  C   UNL     1      21.346  48.892  49.094  1.00  0.00     0.068 A 
HETATM   12  C   UNL     1      22.269  49.950  49.082  1.00  0.00     0.095 A 
HETATM   13  C   UNL     1      21.840  51.261  48.853  1.00  0.00     0.039 A 
HETATM   14  C   UNL     1      20.483  51.540  48.711  1.00  0.00     0.003 A 
HETATM   15  C   UNL     1      19.552  50.508  48.806  1.00  0.00     0.002 A 
HETATM   16  C   UNL     1      19.979  49.192  49.006  1.00  0.00     0.032 A 
BRANCH  12  17
HETATM   17  O   UNL     1      23.609  49.809  49.335  1.00  0.00    -0.349 OA
BRANCH  17  18
HETATM   18  C   UNL     1      24.397  50.051  48.163  1.00  0.00     0.171 C 
HETATM   19  C   UNL     1      25.835  49.679  48.474  1.00  0.00     0.034 C 
ENDBRANCH  17  18
ENDBRANCH  12  17
ENDBRANCH   8  11
ENDBRANCH   6   7
ENDBRANCH   1   6
BRANCH   5  20
HETATM   20  N   UNL     1      23.446  43.197  50.510  1.00  0.00    -0.382 N 
HETATM   21  H   UNL     1      22.498  43.108  50.122  1.00  0.00     0.157 HD
HETATM   22  H   UNL     1      23.539  42.614  51.338  1.00  0.00     0.157 HD
ENDBRANCH   5  20
BRANCH   4  23
HETATM   23  C   UNL     1      25.663  44.541  52.406  1.00  0.00     0.280 C 
HETATM   24  N   UNL     1      27.027  44.666  52.222  1.00  0.00    -0.320 N 
HETATM   25  H   UNL     1      27.276  44.943  51.275  1.00  0.00     0.169 HD
HETATM   26  O   UNL     1      25.083  43.995  53.335  1.00  0.00    -0.265 OA
BRANCH  24  27
HETATM   27  C   UNL     1      28.095  44.258  53.051  1.00  0.00     0.057 A 
HETATM   28  C   UNL     1      28.422  44.733  54.333  1.00  0.00     0.060 A 
HETATM   29 CL   UNL     1      27.713  46.123  55.074  1.00  0.00    -0.082 Cl
HETATM   30  C   UNL     1      29.502  44.171  55.035  1.00  0.00     0.026 A 
HETATM   31  C   UNL     1      30.285  43.168  54.465  1.00  0.00     0.002 A 
HETATM   32  C   UNL     1      30.008  42.733  53.177  1.00  0.00     0.002 A 
HETATM   33  C   UNL     1      28.928  43.278  52.477  1.00  0.00     0.031 A 
ENDBRANCH  24  27
ENDBRANCH   4  23
TORSDOF 8
ENDMDL
MODEL 4
REMARK VINA RESULT:      -8.8      2.811      4.453
REMARK  8 active torsions:
REMARK  status: ('A' for Active; 'I' for Inactive)
REMARK    1  A    between atoms: C_2  and  O_3 
REMARK    2  A    between atoms: O_3  and  C_4 
REMARK    3  A    between atoms: C_5  and  N_6 
REMARK       I    between atoms: N_6  and  C_7 
REMARK    4  A    between atoms: C_7  and  C_8 
REMARK    5  A    between atoms: C_8  and  N_9 
REMARK    6  A    between atoms: C_12  and  C_13 
REMARK       I    between atoms: C_13  and  N_14 
REMARK    7  A    between atoms: N_14  and  C_15 
REMARK    8  A    between atoms: C_23  and  N_24 
ROOT
HETATM    1  N   UNL     1      24.540  46.123  49.908  1.00  0.00    -0.248 N 
HETATM    2  N   UNL     1      25.007  47.285  50.408  1.00  0.00     0.007 NA
HETATM    3  N   UNL     1      24.222  48.256  49.968  1.00  0.00    -0.150 NA
HETATM    4  C   UNL     1      23.200  47.689  49.242  1.00  0.00     0.187 A 
HETATM    5  C   UNL     1      23.364  46.313  49.221  1.00  0.00     0.151 A 
ENDROOT
BRANCH   1   6
HETATM    6  C   UNL     1      25.270  44.898  50.140  1.00  0.00     0.251 C 
BRANCH   6   7
HETATM    7  C   UNL     1      26.410  45.124  51.108  1.00  0.00     0.241 C 
HETATM    8  N   UNL     1      25.998  45.442  52.399  1.00  0.00    -0.323 N 
HETATM    9  H   UNL     1      25.113  45.923  52.486  1.00  0.00     0.169 HD
HETATM   10  O   UNL     1      27.579  45.086  50.735  1.00  0.00    -0.271 OA
BRANCH   8  11
HETATM   11  C   UNL     1      26.891  45.582  53.489  1.00  0.00     0.068 A 
HETATM   12  C   UNL     1      27.580  44.516  54.091  1.00  0.00     0.095 A 
HETATM   13  C   UNL     1      28.528  44.759  55.088  1.00  0.00     0.039 A 
HETATM   14  C   UNL     1      28.743  46.055  55.550  1.00  0.00     0.003 A 
HETATM   15  C   UNL     1      28.003  47.110  55.020  1.00  0.00     0.002 A 
HETATM   16  C   UNL     1      27.074  46.874  54.001  1.00  0.00     0.032 A 
BRANCH  12  17
HETATM   17  O   UNL     1      27.358  43.194  53.804  1.00  0.00    -0.349 OA
BRANCH  17  18
HETATM   18  C   UNL     1      28.564  42.425  53.881  1.00  0.00     0.171 C 
HETATM   19  C   UNL     1      29.192  42.388  52.501  1.00  0.00     0.034 C 
ENDBRANCH  17  18
ENDBRANCH  12  17
ENDBRANCH   8  11
ENDBRANCH   6   7
ENDBRANCH   1   6
BRANCH   5  20
HETATM   20  N   UNL     1      22.628  45.318  48.662  1.00  0.00    -0.382 N 
HETATM   21  H   UNL     1      23.108  44.760  47.943  1.00  0.00     0.157 HD
HETATM   22  H   UNL     1      21.659  45.470  48.395  1.00  0.00     0.157 HD
ENDBRANCH   5  20
BRANCH   4  23
HETATM   23  C   UNL     1      22.124  48.490  48.663  1.00  0.00     0.280 C 
HETATM   24  N   UNL     1      21.541  49.304  49.615  1.00  0.00    -0.320 N 
HETATM   25  H   UNL     1      21.840  49.084  50.562  1.00  0.00     0.169 HD
HETATM   26  O   UNL     1      21.785  48.346  47.496  1.00  0.00    -0.265 OA
BRANCH  24  27
HETATM   27  C   UNL     1      20.461  50.205  49.499  1.00  0.00     0.057 A 
HETATM   28  C   UNL     1      19.220  50.155  50.158  1.00  0.00     0.060 A 
HETATM   29 CL   UNL     1      18.655  48.809  51.082  1.00  0.00    -0.082 Cl
HETATM   30  C   UNL     1      18.275  51.175  49.954  1.00  0.00     0.026 A 
HETATM   31  C   UNL     1      18.532  52.226  49.075  1.00  0.00     0.002 A 
HETATM   32  C   UNL     1      19.729  52.254  48.373  1.00  0.00     0.002 A 
HETATM   33  C   UNL     1      20.678  51.251  48.580  1.00  0.00     0.031 A 
ENDBRANCH  24  27
ENDBRANCH   4  23
TORSDOF 8
ENDMDL
MODEL 5
REMARK VINA RESULT:      -8.7      3.075      9.673
REMARK  8 active torsions:
REMARK  status: ('A' for Active; 'I' for Inactive)
REMARK    1  A    between atoms: C_2  and  O_3 
REMARK    2  A    between atoms: O_3  and  C_4 
REMARK    3  A    between atoms: C_5  and  N_6 
REMARK       I    between atoms: N_6  and  C_7 
REMARK    4  A    between atoms: C_7  and  C_8 
REMARK    5  A    between atoms: C_8  and  N_9 
REMARK    6  A    between atoms: C_12  and  C_13 
REMARK       I    between atoms: C_13  and  N_14 
REMARK    7  A    between atoms: N_14  and  C_15 
REMARK    8  A    between atoms: C_23  and  N_24 
ROOT
HETATM    1  N   UNL     1      24.516  48.698  49.117  1.00  0.00    -0.248 N 
HETATM    2  N   UNL     1      23.549  47.846  49.514  1.00  0.00     0.007 NA
HETATM    3  N   UNL     1      24.137  46.733  49.924  1.00  0.00    -0.150 NA
HETATM    4  C   UNL     1      25.499  46.915  49.857  1.00  0.00     0.187 A 
HETATM    5  C   UNL     1      25.767  48.186  49.375  1.00  0.00     0.151 A 
ENDROOT
BRANCH   1   6
HETATM    6  C   UNL     1      24.157  49.962  48.519  1.00  0.00     0.251 C 
BRANCH   6   7
HETATM    7  C   UNL     1      22.902  50.522  49.152  1.00  0.00     0.241 C 
HETATM    8  N   UNL     1      21.761  50.372  48.369  1.00  0.00    -0.323 N 
HETATM    9  H   UNL     1      21.898  50.355  47.367  1.00  0.00     0.169 HD
HETATM   10  O   UNL     1      22.940  51.107  50.230  1.00  0.00    -0.271 OA
BRANCH   8  11
HETATM   11  C   UNL     1      20.462  50.719  48.811  1.00  0.00     0.068 A 
HETATM   12  C   UNL     1      19.641  49.886  49.588  1.00  0.00     0.095 A 
HETATM   13  C   UNL     1      18.417  50.353  50.075  1.00  0.00     0.039 A 
HETATM   14  C   UNL     1      17.965  51.625  49.731  1.00  0.00     0.003 A 
HETATM   15  C   UNL     1      18.733  52.428  48.892  1.00  0.00     0.002 A 
HETATM   16  C   UNL     1      19.971  51.975  48.425  1.00  0.00     0.032 A 
BRANCH  12  17
HETATM   17  O   UNL     1      19.926  48.577  49.882  1.00  0.00    -0.349 OA
BRANCH  17  18
HETATM   18  C   UNL     1      19.142  47.674  49.094  1.00  0.00     0.171 C 
HETATM   19  C   UNL     1      20.061  46.592  48.558  1.00  0.00     0.034 C 
ENDBRANCH  17  18
ENDBRANCH  12  17
ENDBRANCH   8  11
ENDBRANCH   6   7
ENDBRANCH   1   6
BRANCH   5  20
HETATM   20  N   UNL     1      26.932  48.845  49.144  1.00  0.00    -0.382 N 
HETATM   21  H   UNL     1      27.239  48.874  48.162  1.00  0.00     0.157 HD
HETATM   22  H   UNL     1      27.734  48.720  49.755  1.00  0.00     0.157 HD
ENDBRANCH   5  20
BRANCH   4  23
HETATM   23  C   UNL     1      26.441  45.888  50.296  1.00  0.00     0.280 C 
HETATM   24  N   UNL     1      26.171  45.485  51.590  1.00  0.00    -0.320 N 
HETATM   25  H   UNL     1      25.492  46.081  52.058  1.00  0.00     0.169 HD
HETATM   26  O   UNL     1      27.372  45.536  49.585  1.00  0.00    -0.265 OA
BRANCH  24  27
HETATM   27  C   UNL     1      26.842  44.549  52.408  1.00  0.00     0.057 A 
HETATM   28  C   UNL     1      26.966  43.163  52.209  1.00  0.00     0.060 A 
HETATM   29 CL   UNL     1      26.091  42.260  51.024  1.00  0.00    -0.082 Cl
HETATM   30  C   UNL     1      27.719  42.390  53.109  1.00  0.00     0.026 A 
HETATM   31  C   UNL     1      28.319  42.970  54.226  1.00  0.00     0.002 A 
HETATM   32  C   UNL     1      28.154  44.327  54.465  1.00  0.00     0.002 A 
HETATM   33  C   UNL     1      27.417  45.105  53.567  1.00  0.00     0.031 A 
ENDBRANCH  24  27
ENDBRANCH   4  23
TORSDOF 8
ENDMDL
MODEL 6
REMARK VINA RESULT:      -8.7      3.215      9.365
REMARK  8 active torsions:
REMARK  status: ('A' for Active; 'I' for Inactive)
REMARK    1  A    between atoms: C_2  and  O_3 
REMARK    2  A    between atoms: O_3  and  C_4 
REMARK    3  A    between atoms: C_5  and  N_6 
REMARK       I    between atoms: N_6  and  C_7 
REMARK    4  A    between atoms: C_7  and  C_8 
REMARK    5  A    between atoms: C_8  and  N_9 
REMARK    6  A    between atoms: C_12  and  C_13 
REMARK       I    between atoms: C_13  and  N_14 
REMARK    7  A    between atoms: N_14  and  C_15 
REMARK    8  A    between atoms: C_23  and  N_24 
ROOT
HETATM    1  N   UNL     1      23.462  45.296  49.472  1.00  0.00    -0.248 N 
HETATM    2  N   UNL     1      24.183  46.428  49.605  1.00  0.00     0.007 NA
HETATM    3  N   UNL     1      24.952  46.292  50.672  1.00  0.00    -0.150 NA
HETATM    4  C   UNL     1      24.769  45.025  51.178  1.00  0.00     0.187 A 
HETATM    5  C   UNL     1      23.842  44.353  50.400  1.00  0.00     0.151 A 
ENDROOT
BRANCH   1   6
HETATM    6  C   UNL     1      22.453  45.204  48.444  1.00  0.00     0.251 C 
BRANCH   6   7
HETATM    7  C   UNL     1      22.036  46.580  47.972  1.00  0.00     0.241 C 
HETATM    8  N   UNL     1      21.510  47.384  48.978  1.00  0.00    -0.323 N 
HETATM    9  H   UNL     1      21.041  46.910  49.738  1.00  0.00     0.169 HD
HETATM   10  O   UNL     1      22.111  46.896  46.788  1.00  0.00    -0.271 OA
BRANCH   8  11
HETATM   11  C   UNL     1      21.162  48.744  48.787  1.00  0.00     0.068 A 
HETATM   12  C   UNL     1      19.871  49.193  48.465  1.00  0.00     0.095 A 
HETATM   13  C   UNL     1      19.593  50.561  48.405  1.00  0.00     0.039 A 
HETATM   14  C   UNL     1      20.611  51.493  48.589  1.00  0.00     0.003 A 
HETATM   15  C   UNL     1      21.913  51.056  48.825  1.00  0.00     0.002 A 
HETATM   16  C   UNL     1      22.190  49.689  48.914  1.00  0.00     0.032 A 
BRANCH  12  17
HETATM   17  O   UNL     1      18.825  48.368  48.142  1.00  0.00    -0.349 OA
BRANCH  17  18
HETATM   18  C   UNL     1      17.814  48.373  49.157  1.00  0.00     0.171 C 
HETATM   19  C   UNL     1      16.841  47.247  48.862  1.00  0.00     0.034 C 
ENDBRANCH  17  18
ENDBRANCH  12  17
ENDBRANCH   8  11
ENDBRANCH   6   7
ENDBRANCH   1   6
BRANCH   5  20
HETATM   20  N   UNL     1      23.338  43.093  50.469  1.00  0.00    -0.382 N 
HETATM   21  H   UNL     1      23.603  42.553  51.303  1.00  0.00     0.157 HD
HETATM   22  H   UNL     1      23.329  42.489  49.651  1.00  0.00     0.157 HD
ENDBRANCH   5  20
BRANCH   4  23
HETATM   23  C   UNL     1      25.520  44.536  52.332  1.00  0.00     0.280 C 
HETATM   24  N   UNL     1      26.882  44.618  52.111  1.00  0.00    -0.320 N 
HETATM   25  H   UNL     1      27.115  44.838  51.146  1.00  0.00     0.169 HD
HETATM   26  O   UNL     1      24.950  44.054  53.301  1.00  0.00    -0.265 OA
BRANCH  24  27
HETATM   27  C   UNL     1      27.960  44.230  52.937  1.00  0.00     0.057 A 
HETATM   28  C   UNL     1      28.286  44.716  54.215  1.00  0.00     0.060 A 
HETATM   29 CL   UNL     1      27.560  46.099  54.953  1.00  0.00    -0.082 Cl
HETATM   30  C   UNL     1      29.377  44.173  54.915  1.00  0.00     0.026 A 
HETATM   31  C   UNL     1      30.171  43.179  54.346  1.00  0.00     0.002 A 
HETATM   32  C   UNL     1      29.895  42.733  53.061  1.00  0.00     0.002 A 
HETATM   33  C   UNL     1      28.805  43.259  52.364  1.00  0.00     0.031 A 
ENDBRANCH  24  27
ENDBRANCH   4  23
TORSDOF 8
ENDMDL
MODEL 7
REMARK VINA RESULT:      -8.7      1.532      2.061
REMARK  8 active torsions:
REMARK  status: ('A' for Active; 'I' for Inactive)
REMARK    1  A    between atoms: C_2  and  O_3 
REMARK    2  A    between atoms: O_3  and  C_4 
REMARK    3  A    between atoms: C_5  and  N_6 
REMARK       I    between atoms: N_6  and  C_7 
REMARK    4  A    between atoms: C_7  and  C_8 
REMARK    5  A    between atoms: C_8  and  N_9 
REMARK    6  A    between atoms: C_12  and  C_13 
REMARK       I    between atoms: C_13  and  N_14 
REMARK    7  A    between atoms: N_14  and  C_15 
REMARK    8  A    between atoms: C_23  and  N_24 
ROOT
HETATM    1  N   UNL     1      26.051  44.728  51.747  1.00  0.00    -0.248 N 
HETATM    2  N   UNL     1      25.670  45.528  52.764  1.00  0.00     0.007 NA
HETATM    3  N   UNL     1      25.281  46.681  52.244  1.00  0.00    -0.150 NA
HETATM    4  C   UNL     1      25.346  46.580  50.873  1.00  0.00     0.187 A 
HETATM    5  C   UNL     1      25.804  45.319  50.530  1.00  0.00     0.151 A 
ENDROOT
BRANCH   1   6
HETATM    6  C   UNL     1      26.626  43.434  52.030  1.00  0.00     0.251 C 
BRANCH   6   7
HETATM    7  C   UNL     1      27.346  43.441  53.361  1.00  0.00     0.241 C 
HETATM    8  N   UNL     1      28.574  44.095  53.333  1.00  0.00    -0.323 N 
HETATM    9  H   UNL     1      29.070  44.090  52.452  1.00  0.00     0.169 HD
HETATM   10  O   UNL     1      26.886  42.857  54.337  1.00  0.00    -0.271 OA
BRANCH   8  11
HETATM   11  C   UNL     1      29.363  44.321  54.487  1.00  0.00     0.068 A 
HETATM   12  C   UNL     1      29.324  45.497  55.254  1.00  0.00     0.095 A 
HETATM   13  C   UNL     1      30.053  45.590  56.443  1.00  0.00     0.039 A 
HETATM   14  C   UNL     1      30.887  44.547  56.838  1.00  0.00     0.003 A 
HETATM   15  C   UNL     1      30.998  43.411  56.040  1.00  0.00     0.002 A 
HETATM   16  C   UNL     1      30.247  43.302  54.865  1.00  0.00     0.032 A 
BRANCH  12  17
HETATM   17  O   UNL     1      28.639  46.630  54.898  1.00  0.00    -0.349 OA
BRANCH  17  18
HETATM   18  C   UNL     1      27.378  46.721  55.572  1.00  0.00     0.171 C 
HETATM   19  C   UNL     1      26.848  48.131  55.396  1.00  0.00     0.034 C 
ENDBRANCH  17  18
ENDBRANCH  12  17
ENDBRANCH   8  11
ENDBRANCH   6   7
ENDBRANCH   1   6
BRANCH   5  20
HETATM   20  N   UNL     1      26.023  44.726  49.327  1.00  0.00    -0.382 N 
HETATM   21  H   UNL     1      25.186  44.373  48.846  1.00  0.00     0.157 HD
HETATM   22  H   UNL     1      26.798  44.080  49.196  1.00  0.00     0.157 HD
ENDBRANCH   5  20
BRANCH   4  23
HETATM   23  C   UNL     1      24.926  47.670  49.995  1.00  0.00     0.280 C 
HETATM   24  N   UNL     1      23.548  47.742  49.914  1.00  0.00    -0.320 N 
HETATM   25  H   UNL     1      23.083  46.939  50.331  1.00  0.00     0.169 HD
HETATM   26  O   UNL     1      25.745  48.339  49.380  1.00  0.00    -0.265 OA
BRANCH  24  27
HETATM   27  C   UNL     1      22.728  48.614  49.165  1.00  0.00     0.057 A 
HETATM   28  C   UNL     1      21.623  48.282  48.362  1.00  0.00     0.060 A 
HETATM   29 CL   UNL     1      21.182  46.671  47.919  1.00  0.00    -0.082 Cl
HETATM   30  C   UNL     1      20.890  49.296  47.723  1.00  0.00     0.026 A 
HETATM   31  C   UNL     1      21.263  50.634  47.841  1.00  0.00     0.002 A 
HETATM   32  C   UNL     1      22.387  50.969  48.582  1.00  0.00     0.002 A 
HETATM   33  C   UNL     1      23.114  49.967  49.231  1.00  0.00     0.031 A 
ENDBRANCH  24  27
ENDBRANCH   4  23
TORSDOF 8
ENDMDL
MODEL 8
REMARK VINA RESULT:      -8.6      2.999      8.772
REMARK  8 active torsions:
REMARK  status: ('A' for Active; 'I' for Inactive)
REMARK    1  A    between atoms: C_2  and  O_3 
REMARK    2  A    between atoms: O_3  and  C_4 
REMARK    3  A    between atoms: C_5  and  N_6 
REMARK       I    between atoms: N_6  and  C_7 
REMARK    4  A    between atoms: C_7  and  C_8 
REMARK    5  A    between atoms: C_8  and  N_9 
REMARK    6  A    between atoms: C_12  and  C_13 
REMARK       I    between atoms: C_13  and  N_14 
REMARK    7  A    between atoms: N_14  and  C_15 
REMARK    8  A    between atoms: C_23  and  N_24 
ROOT
HETATM    1  N   UNL     1      23.902  44.426  50.153  1.00  0.00    -0.248 N 
HETATM    2  N   UNL     1      23.536  44.510  51.448  1.00  0.00     0.007 NA
HETATM    3  N   UNL     1      24.625  44.361  52.184  1.00  0.00    -0.150 NA
HETATM    4  C   UNL     1      25.707  44.256  51.340  1.00  0.00     0.187 A 
HETATM    5  C   UNL     1      25.269  44.333  50.027  1.00  0.00     0.151 A 
ENDROOT
BRANCH   1   6
HETATM    6  C   UNL     1      22.894  44.450  49.119  1.00  0.00     0.251 C 
BRANCH   6   7
HETATM    7  C   UNL     1      22.741  45.841  48.546  1.00  0.00     0.241 C 
HETATM    8  N   UNL     1      22.906  46.857  49.483  1.00  0.00    -0.323 N 
HETATM    9  H   UNL     1      22.659  46.637  50.438  1.00  0.00     0.169 HD
HETATM   10  O   UNL     1      22.433  46.016  47.371  1.00  0.00    -0.271 OA
BRANCH   8  11
HETATM   11  C   UNL     1      22.919  48.232  49.146  1.00  0.00     0.068 A 
HETATM   12  C   UNL     1      21.793  49.070  49.198  1.00  0.00     0.095 A 
HETATM   13  C   UNL     1      21.919  50.441  48.958  1.00  0.00     0.039 A 
HETATM   14  C   UNL     1      23.150  50.978  48.588  1.00  0.00     0.003 A 
HETATM   15  C   UNL     1      24.255  50.141  48.451  1.00  0.00     0.002 A 
HETATM   16  C   UNL     1      24.139  48.774  48.719  1.00  0.00     0.032 A 
BRANCH  12  17
HETATM   17  O   UNL     1      20.514  48.632  49.428  1.00  0.00    -0.349 OA
BRANCH  17  18
HETATM   18  C   UNL     1      19.850  48.274  48.210  1.00  0.00     0.171 C 
HETATM   19  C   UNL     1      18.846  47.180  48.521  1.00  0.00     0.034 C 
ENDBRANCH  17  18
ENDBRANCH  12  17
ENDBRANCH   8  11
ENDBRANCH   6   7
ENDBRANCH   1   6
BRANCH   5  20
HETATM   20  N   UNL     1      25.934  44.299  48.843  1.00  0.00    -0.382 N 
HETATM   21  H   UNL     1      25.625  43.576  48.180  1.00  0.00     0.157 HD
HETATM   22  H   UNL     1      26.945  44.393  48.809  1.00  0.00     0.157 HD
ENDBRANCH   5  20
BRANCH   4  23
HETATM   23  C   UNL     1      27.073  44.137  51.842  1.00  0.00     0.280 C 
HETATM   24  N   UNL     1      27.112  44.269  53.217  1.00  0.00    -0.320 N 
HETATM   25  H   UNL     1      26.230  44.589  53.610  1.00  0.00     0.169 HD
HETATM   26  O   UNL     1      28.021  44.018  51.077  1.00  0.00    -0.265 OA
BRANCH  24  27
HETATM   27  C   UNL     1      28.215  44.252  54.099  1.00  0.00     0.057 A 
HETATM   28  C   UNL     1      29.137  43.211  54.308  1.00  0.00     0.060 A 
HETATM   29 CL   UNL     1      28.959  41.607  53.693  1.00  0.00    -0.082 Cl
HETATM   30  C   UNL     1      30.209  43.392  55.198  1.00  0.00     0.026 A 
HETATM   31  C   UNL     1      30.357  44.579  55.912  1.00  0.00     0.002 A 
HETATM   32  C   UNL     1      29.420  45.591  55.759  1.00  0.00     0.002 A 
HETATM   33  C   UNL     1      28.358  45.425  54.866  1.00  0.00     0.031 A 
ENDBRANCH  24  27
ENDBRANCH   4  23
TORSDOF 8
ENDMDL
MODEL 9
REMARK VINA RESULT:      -8.4      2.798      9.289
REMARK  8 active torsions:
REMARK  status: ('A' for Active; 'I' for Inactive)
REMARK    1  A    between atoms: C_2  and  O_3 
REMARK    2  A    between atoms: O_3  and  C_4 
REMARK    3  A    between atoms: C_5  and  N_6 
REMARK       I    between atoms: N_6  and  C_7 
REMARK    4  A    between atoms: C_7  and  C_8 
REMARK    5  A    between atoms: C_8  and  N_9 
REMARK    6  A    between atoms: C_12  and  C_13 
REMARK       I    between atoms: C_13  and  N_14 
REMARK    7  A    between atoms: N_14  and  C_15 
REMARK    8  A    between atoms: C_23  and  N_24 
ROOT
HETATM    1  N   UNL     1      25.174  46.028  51.478  1.00  0.00    -0.248 N 
HETATM    2  N   UNL     1      25.270  47.174  52.181  1.00  0.00     0.007 NA
HETATM    3  N   UNL     1      25.839  46.888  53.341  1.00  0.00    -0.150 NA
HETATM    4  C   UNL     1      26.176  45.554  53.339  1.00  0.00     0.187 A 
HETATM    5  C   UNL     1      25.791  44.988  52.135  1.00  0.00     0.151 A 
ENDROOT
BRANCH   1   6
HETATM    6  C   UNL     1      24.493  46.022  50.204  1.00  0.00     0.251 C 
BRANCH   6   7
HETATM    7  C   UNL     1      24.154  47.430  49.767  1.00  0.00     0.241 C 
HETATM    8  N   UNL     1      22.804  47.622  49.486  1.00  0.00    -0.323 N 
HETATM    9  H   UNL     1      22.292  46.816  49.154  1.00  0.00     0.169 HD
HETATM   10  O   UNL     1      25.027  48.280  49.622  1.00  0.00    -0.271 OA
BRANCH   8  11
HETATM   11  C   UNL     1      22.246  48.885  49.170  1.00  0.00     0.068 A 
HETATM   12  C   UNL     1      20.875  49.182  49.233  1.00  0.00     0.095 A 
HETATM   13  C   UNL     1      20.424  50.487  49.013  1.00  0.00     0.039 A 
HETATM   14  C   UNL     1      21.322  51.489  48.655  1.00  0.00     0.003 A 
HETATM   15  C   UNL     1      22.673  51.185  48.507  1.00  0.00     0.002 A 
HETATM   16  C   UNL     1      23.133  49.887  48.754  1.00  0.00     0.032 A 
BRANCH  12  17
HETATM   17  O   UNL     1      19.892  48.252  49.453  1.00  0.00    -0.349 OA
BRANCH  17  18
HETATM   18  C   UNL     1      18.685  48.860  49.928  1.00  0.00     0.171 C 
HETATM   19  C   UNL     1      18.535  48.526  51.400  1.00  0.00     0.034 C 
ENDBRANCH  17  18
ENDBRANCH  12  17
ENDBRANCH   8  11
ENDBRANCH   6   7
ENDBRANCH   1   6
BRANCH   5  20
HETATM   20  N   UNL     1      25.912  43.728  51.641  1.00  0.00    -0.382 N 
HETATM   21  H   UNL     1      26.668  43.162  52.048  1.00  0.00     0.157 HD
HETATM   22  H   UNL     1      25.841  43.549  50.643  1.00  0.00     0.157 HD
ENDBRANCH   5  20
BRANCH   4  23
HETATM   23  C   UNL     1      26.876  44.930  54.459  1.00  0.00     0.280 C 
HETATM   24  N   UNL     1      28.057  45.590  54.739  1.00  0.00    -0.320 N 
HETATM   25  H   UNL     1      28.310  46.270  54.026  1.00  0.00     0.169 HD
HETATM   26  O   UNL     1      26.451  43.909  54.983  1.00  0.00    -0.265 OA
BRANCH  24  27
HETATM   27  C   UNL     1      29.046  45.310  55.707  1.00  0.00     0.057 A 
HETATM   28  C   UNL     1      30.084  44.366  55.632  1.00  0.00     0.060 A 
HETATM   29 CL   UNL     1      30.218  43.151  54.411  1.00  0.00    -0.082 Cl
HETATM   30  C   UNL     1      31.013  44.259  56.682  1.00  0.00     0.026 A 
HETATM   31  C   UNL     1      30.901  45.051  57.822  1.00  0.00     0.002 A 
HETATM   32  C   UNL     1      29.845  45.945  57.934  1.00  0.00     0.002 A 
HETATM   33  C   UNL     1      28.925  46.067  56.889  1.00  0.00     0.031 A 
ENDBRANCH  24  27
ENDBRANCH   4  23
TORSDOF 8
ENDMDL
MODEL 10
REMARK VINA RESULT:      -8.3      4.714      9.161
REMARK  8 active torsions:
REMARK  status: ('A' for Active; 'I' for Inactive)
REMARK    1  A    between atoms: C_2  and  O_3 
REMARK    2  A    between atoms: O_3  and  C_4 
REMARK    3  A    between atoms: C_5  and  N_6 
REMARK       I    between atoms: N_6  and  C_7 
REMARK    4  A    between atoms: C_7  and  C_8 
REMARK    5  A    between atoms: C_8  and  N_9 
REMARK    6  A    between atoms: C_12  and  C_13 
REMARK       I    between atoms: C_13  and  N_14 
REMARK    7  A    between atoms: N_14  and  C_15 
REMARK    8  A    between atoms: C_23  and  N_24 
ROOT
HETATM    1  N   UNL     1      26.804  42.462  49.971  1.00  0.00    -0.248 N 
HETATM    2  N   UNL     1      27.242  43.736  49.917  1.00  0.00     0.007 NA
HETATM    3  N   UNL     1      27.585  44.096  51.143  1.00  0.00    -0.150 NA
HETATM    4  C   UNL     1      27.433  43.008  51.971  1.00  0.00     0.187 A 
HETATM    5  C   UNL     1      26.966  41.934  51.231  1.00  0.00     0.151 A 
ENDROOT
BRANCH   1   6
HETATM    6  C   UNL     1      26.261  41.839  48.787  1.00  0.00     0.251 C 
BRANCH   6   7
HETATM    7  C   UNL     1      27.307  40.995  48.093  1.00  0.00     0.241 C 
HETATM    8  N   UNL     1      26.798  39.846  47.495  1.00  0.00    -0.323 N 
HETATM    9  H   UNL     1      25.974  39.442  47.920  1.00  0.00     0.169 HD
HETATM   10  O   UNL     1      28.496  41.297  48.131  1.00  0.00    -0.271 OA
BRANCH   8  11
HETATM   11  C   UNL     1      27.576  38.973  46.697  1.00  0.00     0.068 A 
HETATM   12  C   UNL     1      28.268  37.855  47.190  1.00  0.00     0.095 A 
HETATM   13  C   UNL     1      28.919  36.983  46.313  1.00  0.00     0.039 A 
HETATM   14  C   UNL     1      28.953  37.256  44.948  1.00  0.00     0.003 A 
HETATM   15  C   UNL     1      28.341  38.408  44.459  1.00  0.00     0.002 A 
HETATM   16  C   UNL     1      27.664  39.268  45.329  1.00  0.00     0.032 A 
BRANCH  12  17
HETATM   17  O   UNL     1      28.408  37.559  48.521  1.00  0.00    -0.349 OA
BRANCH  17  18
HETATM   18  C   UNL     1      29.663  38.017  49.037  1.00  0.00     0.171 C 
HETATM   19  C   UNL     1      29.459  38.430  50.483  1.00  0.00     0.034 C 
ENDBRANCH  17  18
ENDBRANCH  12  17
ENDBRANCH   8  11
ENDBRANCH   6   7
ENDBRANCH   1   6
BRANCH   5  20
HETATM   20  N   UNL     1      26.675  40.652  51.572  1.00  0.00    -0.382 N 
HETATM   21  H   UNL     1      26.833  39.949  50.837  1.00  0.00     0.157 HD
HETATM   22  H   UNL     1      25.830  40.427  52.092  1.00  0.00     0.157 HD
ENDBRANCH   5  20
BRANCH   4  23
HETATM   23  C   UNL     1      27.784  43.057  53.388  1.00  0.00     0.280 C 
HETATM   24  N   UNL     1      28.864  43.892  53.605  1.00  0.00    -0.320 N 
HETATM   25  H   UNL     1      29.320  44.183  52.744  1.00  0.00     0.169 HD
HETATM   26  O   UNL     1      27.205  42.360  54.209  1.00  0.00    -0.265 OA
BRANCH  24  27
HETATM   27  C   UNL     1      29.544  44.203  54.803  1.00  0.00     0.057 A 
HETATM   28  C   UNL     1      29.406  45.352  55.600  1.00  0.00     0.060 A 
HETATM   29 CL   UNL     1      28.534  46.769  55.134  1.00  0.00    -0.082 Cl
HETATM   30  C   UNL     1      30.136  45.469  56.795  1.00  0.00     0.026 A 
HETATM   31  C   UNL     1      31.030  44.476  57.190  1.00  0.00     0.002 A 
HETATM   32  C   UNL     1      31.219  43.364  56.382  1.00  0.00     0.002 A 
HETATM   33  C   UNL     1      30.488  43.234  55.198  1.00  0.00     0.031 A 
ENDBRANCH  24  27
ENDBRANCH   4  23
TORSDOF 8
ENDMDL
