MODEL 1
REMARK VINA RESULT:      -7.8      0.000      0.000
REMARK  6 active torsions:
REMARK  status: ('A' for Active; 'I' for Inactive)
REMARK    1  A    between atoms: C_7  and  S_8 
REMARK    2  A    between atoms: S_8  and  C_9 
REMARK    3  A    between atoms: C_9  and  C_10 
REMARK    4  A    between atoms: C_18  and  C_19 
REMARK    5  A    between atoms: C_27  and  C_28 
REMARK    6  A    between atoms: C_28  and  O_29 
ROOT
HETATM    1  C   UNL     1      34.401  49.399  41.481  1.00  0.00     0.070 C 
HETATM    2  C   UNL     1      32.925  49.281  41.188  1.00  0.00     0.037 A 
HETATM    3  N   UNL     1      32.496  48.027  40.768  1.00  0.00    -0.192 N 
HETATM    4  C   UNL     1      31.217  47.747  40.460  1.00  0.00     0.726 A 
HETATM    5  N   UNL     1      30.282  48.744  40.506  1.00  0.00    -0.082 N 
HETATM    6  N   UNL     1      29.052  48.275  40.216  1.00  0.00    -0.128 NA
HETATM    7  C   UNL     1      29.326  46.990  39.962  1.00  0.00     0.226 A 
HETATM    8  N   UNL     1      30.643  46.626  40.104  1.00  0.00    -0.035 NA
HETATM    9  C   UNL     1      30.572  50.129  40.900  1.00  0.00     0.208 A 
HETATM   10  C   UNL     1      32.037  50.303  41.286  1.00  0.00     0.070 A 
HETATM   11  H   UNL     1      33.187  47.283  40.721  1.00  0.00     0.184 HD
ENDROOT
BRANCH   7  12
HETATM   12  S   UNL     1      28.069  45.882  39.489  1.00  0.00    -0.083 SA
BRANCH  12  13
HETATM   13  C   UNL     1      27.263  46.863  38.193  1.00  0.00     0.123 C 
BRANCH  13  14
HETATM   14  C   UNL     1      25.965  47.470  38.674  1.00  0.00    -0.027 A 
HETATM   15  C   UNL     1      25.699  48.847  38.612  1.00  0.00     0.041 A 
HETATM   16 CL   UNL     1      26.849  49.976  37.987  1.00  0.00    -0.084 Cl
HETATM   17  C   UNL     1      24.478  49.357  39.064  1.00  0.00     0.024 A 
HETATM   18  C   UNL     1      23.506  48.501  39.580  1.00  0.00     0.002 A 
HETATM   19  C   UNL     1      23.750  47.132  39.639  1.00  0.00     0.001 A 
HETATM   20  C   UNL     1      24.967  46.620  39.187  1.00  0.00     0.009 A 
ENDBRANCH  13  14
ENDBRANCH  12  13
ENDBRANCH   7  12
BRANCH   9  21
HETATM   21  C   UNL     1      30.040  51.091  39.850  1.00  0.00     0.032 A 
HETATM   22  C   UNL     1      29.068  52.079  40.078  1.00  0.00     0.045 A 
HETATM   23 CL   UNL     1      28.328  52.323  41.619  1.00  0.00    -0.084 Cl
HETATM   24  C   UNL     1      28.649  52.926  39.040  1.00  0.00     0.024 A 
HETATM   25  C   UNL     1      29.193  52.808  37.763  1.00  0.00     0.005 A 
HETATM   26  C   UNL     1      30.158  51.838  37.520  1.00  0.00     0.043 A 
HETATM   27  C   UNL     1      30.567  50.999  38.552  1.00  0.00     0.126 A 
HETATM   28  F   UNL     1      31.494  50.068  38.276  1.00  0.00    -0.205 F 
ENDBRANCH   9  21
BRANCH  10  29
HETATM   29  C   UNL     1      32.394  51.632  41.826  1.00  0.00     0.293 C 
HETATM   30  O   UNL     1      33.092  52.442  41.238  1.00  0.00    -0.259 OA
BRANCH  29  31
HETATM   31  O   UNL     1      31.767  51.837  43.011  1.00  0.00    -0.323 OA
HETATM   32  C   UNL     1      32.596  51.617  44.152  1.00  0.00     0.213 C 
ENDBRANCH  29  31
ENDBRANCH  10  29
TORSDOF 6
ENDMDL
MODEL 2
REMARK VINA RESULT:      -7.6      1.642      2.131
REMARK  6 active torsions:
REMARK  status: ('A' for Active; 'I' for Inactive)
REMARK    1  A    between atoms: C_7  and  S_8 
REMARK    2  A    between atoms: S_8  and  C_9 
REMARK    3  A    between atoms: C_9  and  C_10 
REMARK    4  A    between atoms: C_18  and  C_19 
REMARK    5  A    between atoms: C_27  and  C_28 
REMARK    6  A    between atoms: C_28  and  O_29 
ROOT
HETATM    1  C   UNL     1      34.535  49.886  41.838  1.00  0.00     0.070 C 
HETATM    2  C   UNL     1      33.111  49.545  41.474  1.00  0.00     0.037 A 
HETATM    3  N   UNL     1      32.916  48.272  40.949  1.00  0.00    -0.192 N 
HETATM    4  C   UNL     1      31.714  47.805  40.567  1.00  0.00     0.726 A 
HETATM    5  N   UNL     1      30.621  48.624  40.642  1.00  0.00    -0.082 N 
HETATM    6  N   UNL     1      29.499  47.978  40.267  1.00  0.00    -0.128 NA
HETATM    7  C   UNL     1      29.996  46.780  39.937  1.00  0.00     0.226 A 
HETATM    8  N   UNL     1      31.351  46.634  40.109  1.00  0.00    -0.035 NA
HETATM    9  C   UNL     1      30.657  50.004  41.144  1.00  0.00     0.208 A 
HETATM   10  C   UNL     1      32.059  50.393  41.604  1.00  0.00     0.070 A 
HETATM   11  H   UNL     1      33.724  47.661  40.879  1.00  0.00     0.184 HD
ENDROOT
BRANCH   7  12
HETATM   12  S   UNL     1      28.961  45.516  39.333  1.00  0.00    -0.083 SA
BRANCH  12  13
HETATM   13  C   UNL     1      27.340  46.271  39.638  1.00  0.00     0.123 C 
BRANCH  13  14
HETATM   14  C   UNL     1      26.778  46.915  38.392  1.00  0.00    -0.027 A 
HETATM   15  C   UNL     1      26.244  48.214  38.381  1.00  0.00     0.041 A 
HETATM   16 CL   UNL     1      26.173  49.188  39.806  1.00  0.00    -0.084 Cl
HETATM   17  C   UNL     1      25.741  48.766  37.197  1.00  0.00     0.024 A 
HETATM   18  C   UNL     1      25.768  48.033  36.012  1.00  0.00     0.002 A 
HETATM   19  C   UNL     1      26.303  46.748  36.004  1.00  0.00     0.001 A 
HETATM   20  C   UNL     1      26.807  46.194  37.183  1.00  0.00     0.009 A 
ENDBRANCH  13  14
ENDBRANCH  12  13
ENDBRANCH   7  12
BRANCH   9  21
HETATM   21  C   UNL     1      30.001  50.940  40.142  1.00  0.00     0.032 A 
HETATM   22  C   UNL     1      30.518  51.258  38.876  1.00  0.00     0.045 A 
HETATM   23 CL   UNL     1      32.011  50.618  38.289  1.00  0.00    -0.084 Cl
HETATM   24  C   UNL     1      29.829  52.128  38.017  1.00  0.00     0.024 A 
HETATM   25  C   UNL     1      28.613  52.690  38.401  1.00  0.00     0.005 A 
HETATM   26  C   UNL     1      28.085  52.384  39.649  1.00  0.00     0.043 A 
HETATM   27  C   UNL     1      28.775  51.523  40.498  1.00  0.00     0.126 A 
HETATM   28  F   UNL     1      28.237  51.259  41.698  1.00  0.00    -0.205 F 
ENDBRANCH   9  21
BRANCH  10  29
HETATM   29  C   UNL     1      32.166  51.717  42.250  1.00  0.00     0.293 C 
HETATM   30  O   UNL     1      32.437  52.747  41.654  1.00  0.00    -0.259 OA
BRANCH  29  31
HETATM   31  O   UNL     1      31.840  51.623  43.563  1.00  0.00    -0.323 OA
HETATM   32  C   UNL     1      32.889  52.010  44.452  1.00  0.00     0.213 C 
ENDBRANCH  29  31
ENDBRANCH  10  29
TORSDOF 6
ENDMDL
MODEL 3
REMARK VINA RESULT:      -7.3      2.952      4.777
REMARK  6 active torsions:
REMARK  status: ('A' for Active; 'I' for Inactive)
REMARK    1  A    between atoms: C_7  and  S_8 
REMARK    2  A    between atoms: S_8  and  C_9 
REMARK    3  A    between atoms: C_9  and  C_10 
REMARK    4  A    between atoms: C_18  and  C_19 
REMARK    5  A    between atoms: C_27  and  C_28 
REMARK    6  A    between atoms: C_28  and  O_29 
ROOT
HETATM    1  C   UNL     1      28.745  53.386  37.968  1.00  0.00     0.070 C 
HETATM    2  C   UNL     1      28.644  51.944  38.397  1.00  0.00     0.037 A 
HETATM    3  N   UNL     1      27.367  51.504  38.726  1.00  0.00    -0.192 N 
HETATM    4  C   UNL     1      27.095  50.251  39.132  1.00  0.00     0.726 A 
HETATM    5  N   UNL     1      28.121  49.360  39.286  1.00  0.00    -0.082 N 
HETATM    6  N   UNL     1      27.663  48.145  39.650  1.00  0.00    -0.128 NA
HETATM    7  C   UNL     1      26.350  48.387  39.738  1.00  0.00     0.226 A 
HETATM    8  N   UNL     1      25.962  49.667  39.425  1.00  0.00    -0.035 NA
HETATM    9  C   UNL     1      29.531  49.668  39.011  1.00  0.00     0.208 A 
HETATM   10  C   UNL     1      29.699  51.095  38.498  1.00  0.00     0.070 A 
HETATM   11  H   UNL     1      26.600  52.164  38.624  1.00  0.00     0.184 HD
ENDROOT
BRANCH   7  12
HETATM   12  S   UNL     1      25.238  47.136  40.219  1.00  0.00    -0.083 SA
BRANCH  12  13
HETATM   13  C   UNL     1      26.146  45.676  39.640  1.00  0.00     0.123 C 
BRANCH  13  14
HETATM   14  C   UNL     1      26.324  44.654  40.738  1.00  0.00    -0.027 A 
HETATM   15  C   UNL     1      27.305  43.650  40.693  1.00  0.00     0.041 A 
HETATM   16 CL   UNL     1      28.392  43.491  39.360  1.00  0.00    -0.084 Cl
HETATM   17  C   UNL     1      27.432  42.732  41.740  1.00  0.00     0.024 A 
HETATM   18  C   UNL     1      26.587  42.804  42.846  1.00  0.00     0.002 A 
HETATM   19  C   UNL     1      25.615  43.799  42.911  1.00  0.00     0.001 A 
HETATM   20  C   UNL     1      25.487  44.719  41.869  1.00  0.00     0.009 A 
ENDBRANCH  13  14
ENDBRANCH  12  13
ENDBRANCH   7  12
BRANCH   9  21
HETATM   21  C   UNL     1      30.390  49.283  40.205  1.00  0.00     0.032 A 
HETATM   22  C   UNL     1      30.354  49.911  41.461  1.00  0.00     0.045 A 
HETATM   23 CL   UNL     1      29.311  51.241  41.811  1.00  0.00    -0.084 Cl
HETATM   24  C   UNL     1      31.183  49.473  42.505  1.00  0.00     0.024 A 
HETATM   25  C   UNL     1      32.055  48.403  42.319  1.00  0.00     0.005 A 
HETATM   26  C   UNL     1      32.102  47.768  41.085  1.00  0.00     0.043 A 
HETATM   27  C   UNL     1      31.279  48.208  40.051  1.00  0.00     0.126 A 
HETATM   28  F   UNL     1      31.359  47.576  38.871  1.00  0.00    -0.205 F 
ENDBRANCH   9  21
BRANCH  10  29
HETATM   29  C   UNL     1      31.066  51.453  38.067  1.00  0.00     0.293 C 
HETATM   30  O   UNL     1      31.528  51.180  36.971  1.00  0.00    -0.259 OA
BRANCH  29  31
HETATM   31  O   UNL     1      31.679  52.190  39.026  1.00  0.00    -0.323 OA
HETATM   32  C   UNL     1      32.994  51.740  39.353  1.00  0.00     0.213 C 
ENDBRANCH  29  31
ENDBRANCH  10  29
TORSDOF 6
ENDMDL
MODEL 4
REMARK VINA RESULT:      -7.3      3.549      7.403
REMARK  6 active torsions:
REMARK  status: ('A' for Active; 'I' for Inactive)
REMARK    1  A    between atoms: C_7  and  S_8 
REMARK    2  A    between atoms: S_8  and  C_9 
REMARK    3  A    between atoms: C_9  and  C_10 
REMARK    4  A    between atoms: C_18  and  C_19 
REMARK    5  A    between atoms: C_27  and  C_28 
REMARK    6  A    between atoms: C_28  and  O_29 
ROOT
HETATM    1  C   UNL     1      23.285  49.648  38.383  1.00  0.00     0.070 C 
HETATM    2  C   UNL     1      24.764  49.458  38.611  1.00  0.00     0.037 A 
HETATM    3  N   UNL     1      25.576  50.499  38.177  1.00  0.00    -0.192 N 
HETATM    4  C   UNL     1      26.916  50.494  38.297  1.00  0.00     0.726 A 
HETATM    5  N   UNL     1      27.537  49.396  38.825  1.00  0.00    -0.082 N 
HETATM    6  N   UNL     1      28.869  49.584  38.915  1.00  0.00    -0.128 NA
HETATM    7  C   UNL     1      28.988  50.806  38.382  1.00  0.00     0.226 A 
HETATM    8  N   UNL     1      27.811  51.398  37.993  1.00  0.00    -0.035 NA
HETATM    9  C   UNL     1      26.832  48.200  39.305  1.00  0.00     0.208 A 
HETATM   10  C   UNL     1      25.320  48.355  39.174  1.00  0.00     0.070 A 
HETATM   11  H   UNL     1      25.123  51.314  37.773  1.00  0.00     0.184 HD
ENDROOT
BRANCH   7  12
HETATM   12  S   UNL     1      30.547  51.562  38.212  1.00  0.00    -0.083 SA
BRANCH  12  13
HETATM   13  C   UNL     1      31.608  50.223  38.822  1.00  0.00     0.123 C 
BRANCH  13  14
HETATM   14  C   UNL     1      31.732  50.246  40.327  1.00  0.00    -0.027 A 
HETATM   15  C   UNL     1      31.730  49.080  41.110  1.00  0.00     0.041 A 
HETATM   16 CL   UNL     1      31.570  47.508  40.412  1.00  0.00    -0.084 Cl
HETATM   17  C   UNL     1      31.854  49.157  42.501  1.00  0.00     0.024 A 
HETATM   18  C   UNL     1      31.987  50.395  43.129  1.00  0.00     0.002 A 
HETATM   19  C   UNL     1      32.000  51.559  42.367  1.00  0.00     0.001 A 
HETATM   20  C   UNL     1      31.878  51.486  40.977  1.00  0.00     0.009 A 
ENDBRANCH  13  14
ENDBRANCH  12  13
ENDBRANCH   7  12
BRANCH   9  21
HETATM   21  C   UNL     1      27.432  46.954  38.674  1.00  0.00     0.032 A 
HETATM   22  C   UNL     1      27.242  46.552  37.343  1.00  0.00     0.045 A 
HETATM   23 CL   UNL     1      26.268  47.440  36.228  1.00  0.00    -0.084 Cl
HETATM   24  C   UNL     1      27.850  45.386  36.852  1.00  0.00     0.024 A 
HETATM   25  C   UNL     1      28.659  44.605  37.675  1.00  0.00     0.005 A 
HETATM   26  C   UNL     1      28.861  44.989  38.994  1.00  0.00     0.043 A 
HETATM   27  C   UNL     1      28.253  46.146  39.477  1.00  0.00     0.126 A 
HETATM   28  F   UNL     1      28.464  46.478  40.759  1.00  0.00    -0.205 F 
ENDBRANCH   9  21
BRANCH  10  29
HETATM   29  C   UNL     1      24.521  47.257  39.757  1.00  0.00     0.293 C 
HETATM   30  O   UNL     1      23.901  46.440  39.096  1.00  0.00    -0.259 OA
BRANCH  29  31
HETATM   31  O   UNL     1      24.654  47.250  41.107  1.00  0.00    -0.323 OA
HETATM   32  C   UNL     1      24.919  45.959  41.658  1.00  0.00     0.213 C 
ENDBRANCH  29  31
ENDBRANCH  10  29
TORSDOF 6
ENDMDL
MODEL 5
REMARK VINA RESULT:      -7.3     11.728     14.278
REMARK  6 active torsions:
REMARK  status: ('A' for Active; 'I' for Inactive)
REMARK    1  A    between atoms: C_7  and  S_8 
REMARK    2  A    between atoms: S_8  and  C_9 
REMARK    3  A    between atoms: C_9  and  C_10 
REMARK    4  A    between atoms: C_18  and  C_19 
REMARK    5  A    between atoms: C_27  and  C_28 
REMARK    6  A    between atoms: C_28  and  O_29 
ROOT
HETATM    1  C   UNL     1      24.975  49.532  48.597  1.00  0.00     0.070 C 
HETATM    2  C   UNL     1      24.729  48.264  49.377  1.00  0.00     0.037 A 
HETATM    3  N   UNL     1      25.703  47.940  50.315  1.00  0.00    -0.192 N 
HETATM    4  C   UNL     1      25.647  46.844  51.093  1.00  0.00     0.726 A 
HETATM    5  N   UNL     1      24.613  45.963  50.936  1.00  0.00    -0.082 N 
HETATM    6  N   UNL     1      24.689  44.954  51.827  1.00  0.00    -0.128 NA
HETATM    7  C   UNL     1      25.822  45.269  52.467  1.00  0.00     0.226 A 
HETATM    8  N   UNL     1      26.438  46.423  52.046  1.00  0.00    -0.035 NA
HETATM    9  C   UNL     1      23.517  46.138  49.972  1.00  0.00     0.208 A 
HETATM   10  C   UNL     1      23.662  47.445  49.198  1.00  0.00     0.070 A 
HETATM   11  H   UNL     1      26.480  48.584  50.431  1.00  0.00     0.184 HD
ENDROOT
BRANCH   7  12
HETATM   12  S   UNL     1      26.442  44.259  53.742  1.00  0.00    -0.083 SA
BRANCH  12  13
HETATM   13  C   UNL     1      28.181  44.154  53.236  1.00  0.00     0.123 C 
BRANCH  13  14
HETATM   14  C   UNL     1      29.117  44.257  54.417  1.00  0.00    -0.027 A 
HETATM   15  C   UNL     1      29.196  45.400  55.229  1.00  0.00     0.041 A 
HETATM   16 CL   UNL     1      28.230  46.802  54.935  1.00  0.00    -0.084 Cl
HETATM   17  C   UNL     1      30.076  45.441  56.316  1.00  0.00     0.024 A 
HETATM   18  C   UNL     1      30.884  44.344  56.610  1.00  0.00     0.002 A 
HETATM   19  C   UNL     1      30.811  43.200  55.820  1.00  0.00     0.001 A 
HETATM   20  C   UNL     1      29.933  43.155  54.736  1.00  0.00     0.009 A 
ENDBRANCH  13  14
ENDBRANCH  12  13
ENDBRANCH   7  12
BRANCH   9  21
HETATM   21  C   UNL     1      23.356  44.881  49.134  1.00  0.00     0.032 A 
HETATM   22  C   UNL     1      22.128  44.301  48.776  1.00  0.00     0.045 A 
HETATM   23 CL   UNL     1      20.607  44.956  49.268  1.00  0.00    -0.084 Cl
HETATM   24  C   UNL     1      22.084  43.140  47.988  1.00  0.00     0.024 A 
HETATM   25  C   UNL     1      23.260  42.542  47.539  1.00  0.00     0.005 A 
HETATM   26  C   UNL     1      24.484  43.104  47.880  1.00  0.00     0.043 A 
HETATM   27  C   UNL     1      24.521  44.254  48.665  1.00  0.00     0.126 A 
HETATM   28  F   UNL     1      25.722  44.761  48.981  1.00  0.00    -0.205 F 
ENDBRANCH   9  21
BRANCH  10  29
HETATM   29  C   UNL     1      22.534  47.774  48.301  1.00  0.00     0.293 C 
HETATM   30  O   UNL     1      22.464  47.419  47.136  1.00  0.00    -0.259 OA
BRANCH  29  31
HETATM   31  O   UNL     1      21.574  48.444  48.986  1.00  0.00    -0.323 OA
HETATM   32  C   UNL     1      20.485  48.887  48.176  1.00  0.00     0.213 C 
ENDBRANCH  29  31
ENDBRANCH  10  29
TORSDOF 6
ENDMDL
MODEL 6
REMARK VINA RESULT:      -7.2      5.012      8.142
REMARK  6 active torsions:
REMARK  status: ('A' for Active; 'I' for Inactive)
REMARK    1  A    between atoms: C_7  and  S_8 
REMARK    2  A    between atoms: S_8  and  C_9 
REMARK    3  A    between atoms: C_9  and  C_10 
REMARK    4  A    between atoms: C_18  and  C_19 
REMARK    5  A    between atoms: C_27  and  C_28 
REMARK    6  A    between atoms: C_28  and  O_29 
ROOT
HETATM    1  C   UNL     1      32.948  47.820  41.682  1.00  0.00     0.070 C 
HETATM    2  C   UNL     1      32.999  49.082  40.858  1.00  0.00     0.037 A 
HETATM    3  N   UNL     1      34.130  49.871  41.038  1.00  0.00    -0.192 N 
HETATM    4  C   UNL     1      34.336  51.030  40.388  1.00  0.00     0.726 A 
HETATM    5  N   UNL     1      33.373  51.504  39.541  1.00  0.00    -0.082 N 
HETATM    6  N   UNL     1      33.767  52.646  38.942  1.00  0.00    -0.128 NA
HETATM    7  C   UNL     1      34.966  52.827  39.510  1.00  0.00     0.226 A 
HETATM    8  N   UNL     1      35.351  51.856  40.401  1.00  0.00    -0.035 NA
HETATM    9  C   UNL     1      32.108  50.812  39.259  1.00  0.00     0.208 A 
HETATM   10  C   UNL     1      32.023  49.484  40.004  1.00  0.00     0.070 A 
HETATM   11  H   UNL     1      34.846  49.531  41.675  1.00  0.00     0.184 HD
ENDROOT
BRANCH   7  12
HETATM   12  S   UNL     1      35.943  54.214  39.117  1.00  0.00    -0.083 SA
BRANCH  12  13
HETATM   13  C   UNL     1      34.793  55.541  39.575  1.00  0.00     0.123 C 
BRANCH  13  14
HETATM   14  C   UNL     1      35.126  56.838  38.875  1.00  0.00    -0.027 A 
HETATM   15  C   UNL     1      34.404  58.024  39.085  1.00  0.00     0.041 A 
HETATM   16 CL   UNL     1      33.054  58.097  40.161  1.00  0.00    -0.084 Cl
HETATM   17  C   UNL     1      34.758  59.201  38.416  1.00  0.00     0.024 A 
HETATM   18  C   UNL     1      35.837  59.211  37.534  1.00  0.00     0.002 A 
HETATM   19  C   UNL     1      36.569  58.046  37.322  1.00  0.00     0.001 A 
HETATM   20  C   UNL     1      36.220  56.871  37.989  1.00  0.00     0.009 A 
ENDBRANCH  13  14
ENDBRANCH  12  13
ENDBRANCH   7  12
BRANCH   9  21
HETATM   21  C   UNL     1      30.939  51.764  39.458  1.00  0.00     0.032 A 
HETATM   22  C   UNL     1      30.592  52.374  40.674  1.00  0.00     0.045 A 
HETATM   23 CL   UNL     1      31.466  52.103  42.138  1.00  0.00    -0.084 Cl
HETATM   24  C   UNL     1      29.497  53.248  40.751  1.00  0.00     0.024 A 
HETATM   25  C   UNL     1      28.734  53.533  39.620  1.00  0.00     0.005 A 
HETATM   26  C   UNL     1      29.065  52.941  38.408  1.00  0.00     0.043 A 
HETATM   27  C   UNL     1      30.151  52.073  38.338  1.00  0.00     0.126 A 
HETATM   28  F   UNL     1      30.433  51.513  37.151  1.00  0.00    -0.205 F 
ENDBRANCH   9  21
BRANCH  10  29
HETATM   29  C   UNL     1      30.845  48.653  39.679  1.00  0.00     0.293 C 
HETATM   30  O   UNL     1      30.781  47.909  38.714  1.00  0.00    -0.259 OA
BRANCH  29  31
HETATM   31  O   UNL     1      29.903  48.780  40.647  1.00  0.00    -0.323 OA
HETATM   32  C   UNL     1      28.590  49.038  40.149  1.00  0.00     0.213 C 
ENDBRANCH  29  31
ENDBRANCH  10  29
TORSDOF 6
ENDMDL
MODEL 7
REMARK VINA RESULT:      -7.2     12.717     15.230
REMARK  6 active torsions:
REMARK  status: ('A' for Active; 'I' for Inactive)
REMARK    1  A    between atoms: C_7  and  S_8 
REMARK    2  A    between atoms: S_8  and  C_9 
REMARK    3  A    between atoms: C_9  and  C_10 
REMARK    4  A    between atoms: C_18  and  C_19 
REMARK    5  A    between atoms: C_27  and  C_28 
REMARK    6  A    between atoms: C_28  and  O_29 
ROOT
HETATM    1  C   UNL     1      25.094  40.667  44.909  1.00  0.00     0.070 C 
HETATM    2  C   UNL     1      25.346  40.592  46.394  1.00  0.00     0.037 A 
HETATM    3  N   UNL     1      25.254  41.798  47.079  1.00  0.00    -0.192 N 
HETATM    4  C   UNL     1      25.453  41.915  48.405  1.00  0.00     0.726 A 
HETATM    5  N   UNL     1      25.816  40.813  49.128  1.00  0.00    -0.082 N 
HETATM    6  N   UNL     1      25.923  41.102  50.440  1.00  0.00    -0.128 NA
HETATM    7  C   UNL     1      25.652  42.412  50.432  1.00  0.00     0.226 A 
HETATM    8  N   UNL     1      25.355  42.948  49.202  1.00  0.00    -0.035 NA
HETATM    9  C   UNL     1      25.986  39.470  48.556  1.00  0.00     0.208 A 
HETATM   10  C   UNL     1      25.671  39.457  47.063  1.00  0.00     0.070 A 
HETATM   11  H   UNL     1      24.995  42.625  46.547  1.00  0.00     0.184 HD
ENDROOT
BRANCH   7  12
HETATM   12  S   UNL     1      25.680  43.343  51.904  1.00  0.00    -0.083 SA
BRANCH  12  13
HETATM   13  C   UNL     1      27.213  44.279  51.647  1.00  0.00     0.123 C 
BRANCH  13  14
HETATM   14  C   UNL     1      28.261  43.934  52.679  1.00  0.00    -0.027 A 
HETATM   15  C   UNL     1      28.299  44.523  53.953  1.00  0.00     0.041 A 
HETATM   16 CL   UNL     1      27.147  45.712  54.448  1.00  0.00    -0.084 Cl
HETATM   17  C   UNL     1      29.288  44.163  54.874  1.00  0.00     0.024 A 
HETATM   18  C   UNL     1      30.248  43.209  54.539  1.00  0.00     0.002 A 
HETATM   19  C   UNL     1      30.219  42.609  53.284  1.00  0.00     0.001 A 
HETATM   20  C   UNL     1      29.232  42.965  52.362  1.00  0.00     0.009 A 
ENDBRANCH  13  14
ENDBRANCH  12  13
ENDBRANCH   7  12
BRANCH   9  21
HETATM   21  C   UNL     1      27.337  38.901  48.957  1.00  0.00     0.032 A 
HETATM   22  C   UNL     1      28.581  39.447  48.601  1.00  0.00     0.045 A 
HETATM   23 CL   UNL     1      28.735  40.863  47.625  1.00  0.00    -0.084 Cl
HETATM   24  C   UNL     1      29.776  38.850  49.031  1.00  0.00     0.024 A 
HETATM   25  C   UNL     1      29.753  37.707  49.827  1.00  0.00     0.005 A 
HETATM   26  C   UNL     1      28.532  37.155  50.193  1.00  0.00     0.043 A 
HETATM   27  C   UNL     1      27.349  37.750  49.760  1.00  0.00     0.126 A 
HETATM   28  F   UNL     1      26.190  37.182  50.126  1.00  0.00    -0.205 F 
ENDBRANCH   9  21
BRANCH  10  29
HETATM   29  C   UNL     1      25.684  38.122  46.428  1.00  0.00     0.293 C 
HETATM   30  O   UNL     1      26.612  37.693  45.763  1.00  0.00    -0.259 OA
BRANCH  29  31
HETATM   31  O   UNL     1      24.564  37.435  46.766  1.00  0.00    -0.323 OA
HETATM   32  C   UNL     1      24.816  36.112  47.239  1.00  0.00     0.213 C 
ENDBRANCH  29  31
ENDBRANCH  10  29
TORSDOF 6
ENDMDL
MODEL 8
REMARK VINA RESULT:      -7.2     11.339     13.098
REMARK  6 active torsions:
REMARK  status: ('A' for Active; 'I' for Inactive)
REMARK    1  A    between atoms: C_7  and  S_8 
REMARK    2  A    between atoms: S_8  and  C_9 
REMARK    3  A    between atoms: C_9  and  C_10 
REMARK    4  A    between atoms: C_18  and  C_19 
REMARK    5  A    between atoms: C_27  and  C_28 
REMARK    6  A    between atoms: C_28  and  O_29 
ROOT
HETATM    1  C   UNL     1      23.733  43.253  49.627  1.00  0.00     0.070 C 
HETATM    2  C   UNL     1      23.229  44.478  48.904  1.00  0.00     0.037 A 
HETATM    3  N   UNL     1      23.476  45.690  49.538  1.00  0.00    -0.192 N 
HETATM    4  C   UNL     1      23.093  46.879  49.039  1.00  0.00     0.726 A 
HETATM    5  N   UNL     1      22.378  46.918  47.874  1.00  0.00    -0.082 N 
HETATM    6  N   UNL     1      22.123  48.187  47.497  1.00  0.00    -0.128 NA
HETATM    7  C   UNL     1      22.679  48.866  48.508  1.00  0.00     0.226 A 
HETATM    8  N   UNL     1      23.287  48.098  49.472  1.00  0.00    -0.035 NA
HETATM    9  C   UNL     1      22.007  45.729  47.093  1.00  0.00     0.208 A 
HETATM   10  C   UNL     1      22.552  44.454  47.728  1.00  0.00     0.070 A 
HETATM   11  H   UNL     1      23.998  45.670  50.410  1.00  0.00     0.184 HD
ENDROOT
BRANCH   7  12
HETATM   12  S   UNL     1      22.618  50.605  48.561  1.00  0.00    -0.083 SA
BRANCH  12  13
HETATM   13  C   UNL     1      21.338  50.830  49.826  1.00  0.00     0.123 C 
BRANCH  13  14
HETATM   14  C   UNL     1      19.963  50.975  49.214  1.00  0.00    -0.027 A 
HETATM   15  C   UNL     1      18.986  49.970  49.291  1.00  0.00     0.041 A 
HETATM   16 CL   UNL     1      19.279  48.465  50.087  1.00  0.00    -0.084 Cl
HETATM   17  C   UNL     1      17.726  50.158  48.713  1.00  0.00     0.024 A 
HETATM   18  C   UNL     1      17.423  51.350  48.056  1.00  0.00     0.002 A 
HETATM   19  C   UNL     1      18.378  52.360  47.979  1.00  0.00     0.001 A 
HETATM   20  C   UNL     1      19.636  52.177  48.557  1.00  0.00     0.009 A 
ENDBRANCH  13  14
ENDBRANCH  12  13
ENDBRANCH   7  12
BRANCH   9  21
HETATM   21  C   UNL     1      20.515  45.744  46.801  1.00  0.00     0.032 A 
HETATM   22  C   UNL     1      19.943  45.872  45.525  1.00  0.00     0.045 A 
HETATM   23 CL   UNL     1      20.889  46.045  44.091  1.00  0.00    -0.084 Cl
HETATM   24  C   UNL     1      18.550  45.864  45.359  1.00  0.00     0.024 A 
HETATM   25  C   UNL     1      17.704  45.724  46.457  1.00  0.00     0.005 A 
HETATM   26  C   UNL     1      18.252  45.592  47.727  1.00  0.00     0.043 A 
HETATM   27  C   UNL     1      19.635  45.604  47.886  1.00  0.00     0.126 A 
HETATM   28  F   UNL     1      20.127  45.484  49.129  1.00  0.00    -0.205 F 
ENDBRANCH   9  21
BRANCH  10  29
HETATM   29  C   UNL     1      22.345  43.220  46.942  1.00  0.00     0.293 C 
HETATM   30  O   UNL     1      21.395  42.469  47.090  1.00  0.00    -0.259 OA
BRANCH  29  31
HETATM   31  O   UNL     1      23.310  43.103  45.996  1.00  0.00    -0.323 OA
HETATM   32  C   UNL     1      23.732  41.759  45.759  1.00  0.00     0.213 C 
ENDBRANCH  29  31
ENDBRANCH  10  29
TORSDOF 6
ENDMDL
MODEL 9
REMARK VINA RESULT:      -7.1     12.075     14.341
REMARK  6 active torsions:
REMARK  status: ('A' for Active; 'I' for Inactive)
REMARK    1  A    between atoms: C_7  and  S_8 
REMARK    2  A    between atoms: S_8  and  C_9 
REMARK    3  A    between atoms: C_9  and  C_10 
REMARK    4  A    between atoms: C_18  and  C_19 
REMARK    5  A    between atoms: C_27  and  C_28 
REMARK    6  A    between atoms: C_28  and  O_29 
ROOT
HETATM    1  C   UNL     1      26.877  36.698  49.602  1.00  0.00     0.070 C 
HETATM    2  C   UNL     1      27.097  38.145  49.237  1.00  0.00     0.037 A 
HETATM    3  N   UNL     1      26.783  39.067  50.229  1.00  0.00    -0.192 N 
HETATM    4  C   UNL     1      26.914  40.397  50.074  1.00  0.00     0.726 A 
HETATM    5  N   UNL     1      27.327  40.893  48.868  1.00  0.00    -0.082 N 
HETATM    6  N   UNL     1      27.448  42.235  48.907  1.00  0.00    -0.128 NA
HETATM    7  C   UNL     1      27.050  42.488  50.160  1.00  0.00     0.226 A 
HETATM    8  N   UNL     1      26.717  41.385  50.908  1.00  0.00    -0.035 NA
HETATM    9  C   UNL     1      27.671  40.061  47.707  1.00  0.00     0.208 A 
HETATM   10  C   UNL     1      27.544  38.576  48.030  1.00  0.00     0.070 A 
HETATM   11  H   UNL     1      26.466  38.707  51.125  1.00  0.00     0.184 HD
ENDROOT
BRANCH   7  12
HETATM   12  S   UNL     1      26.975  44.119  50.766  1.00  0.00    -0.083 SA
BRANCH  12  13
HETATM   13  C   UNL     1      26.512  43.788  52.488  1.00  0.00     0.123 C 
BRANCH  13  14
HETATM   14  C   UNL     1      27.689  43.933  53.424  1.00  0.00    -0.027 A 
HETATM   15  C   UNL     1      27.885  45.066  54.231  1.00  0.00     0.041 A 
HETATM   16 CL   UNL     1      26.793  46.405  54.212  1.00  0.00    -0.084 Cl
HETATM   17  C   UNL     1      28.989  45.147  55.086  1.00  0.00     0.024 A 
HETATM   18  C   UNL     1      29.908  44.102  55.151  1.00  0.00     0.002 A 
HETATM   19  C   UNL     1      29.724  42.968  54.364  1.00  0.00     0.001 A 
HETATM   20  C   UNL     1      28.622  42.882  53.511  1.00  0.00     0.009 A 
ENDBRANCH  13  14
ENDBRANCH  12  13
ENDBRANCH   7  12
BRANCH   9  21
HETATM   21  C   UNL     1      26.915  40.544  46.479  1.00  0.00     0.032 A 
HETATM   22  C   UNL     1      25.517  40.620  46.370  1.00  0.00     0.045 A 
HETATM   23 CL   UNL     1      24.453  40.151  47.646  1.00  0.00    -0.084 Cl
HETATM   24  C   UNL     1      24.914  41.090  45.193  1.00  0.00     0.024 A 
HETATM   25  C   UNL     1      25.691  41.497  44.110  1.00  0.00     0.005 A 
HETATM   26  C   UNL     1      27.076  41.432  44.202  1.00  0.00     0.043 A 
HETATM   27  C   UNL     1      27.668  40.962  45.371  1.00  0.00     0.126 A 
HETATM   28  F   UNL     1      29.008  40.905  45.418  1.00  0.00    -0.205 F 
ENDBRANCH   9  21
BRANCH  10  29
HETATM   29  C   UNL     1      27.999  37.658  46.964  1.00  0.00     0.293 C 
HETATM   30  O   UNL     1      29.161  37.322  46.804  1.00  0.00    -0.259 OA
BRANCH  29  31
HETATM   31  O   UNL     1      26.934  37.192  46.264  1.00  0.00    -0.323 OA
HETATM   32  C   UNL     1      27.093  37.266  44.847  1.00  0.00     0.213 C 
ENDBRANCH  29  31
ENDBRANCH  10  29
TORSDOF 6
ENDMDL
MODEL 10
REMARK VINA RESULT:      -7.1     11.711     13.912
REMARK  6 active torsions:
REMARK  status: ('A' for Active; 'I' for Inactive)
REMARK    1  A    between atoms: C_7  and  S_8 
REMARK    2  A    between atoms: S_8  and  C_9 
REMARK    3  A    between atoms: C_9  and  C_10 
REMARK    4  A    between atoms: C_18  and  C_19 
REMARK    5  A    between atoms: C_27  and  C_28 
REMARK    6  A    between atoms: C_28  and  O_29 
ROOT
HETATM    1  C   UNL     1      19.427  44.537  47.056  1.00  0.00     0.070 C 
HETATM    2  C   UNL     1      20.453  45.559  47.477  1.00  0.00     0.037 A 
HETATM    3  N   UNL     1      21.470  45.085  48.298  1.00  0.00    -0.192 N 
HETATM    4  C   UNL     1      22.464  45.858  48.771  1.00  0.00     0.726 A 
HETATM    5  N   UNL     1      22.466  47.195  48.483  1.00  0.00    -0.082 N 
HETATM    6  N   UNL     1      23.555  47.804  48.994  1.00  0.00    -0.128 NA
HETATM    7  C   UNL     1      24.148  46.778  49.616  1.00  0.00     0.226 A 
HETATM    8  N   UNL     1      23.510  45.567  49.500  1.00  0.00    -0.035 NA
HETATM    9  C   UNL     1      21.452  47.864  47.656  1.00  0.00     0.208 A 
HETATM   10  C   UNL     1      20.420  46.871  47.130  1.00  0.00     0.070 A 
HETATM   11  H   UNL     1      21.470  44.094  48.525  1.00  0.00     0.184 HD
ENDROOT
BRANCH   7  12
HETATM   12  S   UNL     1      25.631  47.002  50.502  1.00  0.00    -0.083 SA
BRANCH  12  13
HETATM   13  C   UNL     1      25.064  46.563  52.168  1.00  0.00     0.123 C 
BRANCH  13  14
HETATM   14  C   UNL     1      26.221  46.333  53.112  1.00  0.00    -0.027 A 
HETATM   15  C   UNL     1      26.904  45.109  53.196  1.00  0.00     0.041 A 
HETATM   16 CL   UNL     1      26.466  43.747  52.227  1.00  0.00    -0.084 Cl
HETATM   17  C   UNL     1      27.973  44.951  54.083  1.00  0.00     0.024 A 
HETATM   18  C   UNL     1      28.378  46.010  54.894  1.00  0.00     0.002 A 
HETATM   19  C   UNL     1      27.718  47.233  54.817  1.00  0.00     0.001 A 
HETATM   20  C   UNL     1      26.651  47.395  53.931  1.00  0.00     0.009 A 
ENDBRANCH  13  14
ENDBRANCH  12  13
ENDBRANCH   7  12
BRANCH   9  21
HETATM   21  C   UNL     1      20.899  49.075  48.389  1.00  0.00     0.032 A 
HETATM   22  C   UNL     1      19.954  49.029  49.426  1.00  0.00     0.045 A 
HETATM   23 CL   UNL     1      19.275  47.552  50.007  1.00  0.00    -0.084 Cl
HETATM   24  C   UNL     1      19.512  50.208  50.047  1.00  0.00     0.024 A 
HETATM   25  C   UNL     1      20.007  51.448  49.651  1.00  0.00     0.005 A 
HETATM   26  C   UNL     1      20.945  51.513  48.628  1.00  0.00     0.043 A 
HETATM   27  C   UNL     1      21.377  50.341  48.013  1.00  0.00     0.126 A 
HETATM   28  F   UNL     1      22.277  50.445  47.023  1.00  0.00    -0.205 F 
ENDBRANCH   9  21
BRANCH  10  29
HETATM   29  C   UNL     1      19.437  47.428  46.177  1.00  0.00     0.293 C 
HETATM   30  O   UNL     1      19.615  47.489  44.972  1.00  0.00    -0.259 OA
BRANCH  29  31
HETATM   31  O   UNL     1      18.300  47.773  46.830  1.00  0.00    -0.323 OA
HETATM   32  C   UNL     1      17.742  49.018  46.407  1.00  0.00     0.213 C 
ENDBRANCH  29  31
ENDBRANCH  10  29
TORSDOF 6
ENDMDL
