MODEL 1
REMARK VINA RESULT:     -10.5      0.000      0.000
REMARK  5 active torsions:
REMARK  status: ('A' for Active; 'I' for Inactive)
REMARK    1  A    between atoms: C_4  and  O_5 
REMARK    2  A    between atoms: O_5  and  C_6 
REMARK    3  A    between atoms: C_6  and  C_7 
REMARK       I    between atoms: C_7  and  N_8 
REMARK    4  A    between atoms: N_8  and  C_9 
REMARK    5  A    between atoms: C_11  and  C_12 
ROOT
HETATM    1  C   UNL     1      27.307  43.351  51.354  1.00  0.00     0.035 A 
HETATM    2  C   UNL     1      27.914  43.833  52.519  1.00  0.00     0.045 A 
HETATM    3  C   UNL     1      28.807  43.035  53.256  1.00  0.00     0.019 A 
HETATM    4  C   UNL     1      29.086  41.738  52.799  1.00  0.00     0.016 A 
HETATM    5  C   UNL     1      28.493  41.251  51.637  1.00  0.00     0.003 A 
HETATM    6  C   UNL     1      27.607  42.056  50.918  1.00  0.00     0.029 A 
ENDROOT
BRANCH   1   7
HETATM    7  N   UNL     1      26.406  44.097  50.572  1.00  0.00    -0.325 N 
HETATM    8  C   UNL     1      25.041  44.253  50.753  1.00  0.00     0.251 C 
HETATM    9  O   UNL     1      24.358  43.742  51.636  1.00  0.00    -0.270 OA
HETATM   10  H   UNL     1      26.777  44.537  49.733  1.00  0.00     0.169 HD
BRANCH   8  11
HETATM   11  C   UNL     1      24.416  45.226  49.740  1.00  0.00     0.217 C 
HETATM   12  C   UNL     1      23.134  44.608  49.193  1.00  0.00     0.050 C 
BRANCH  11  13
HETATM   13  O   UNL     1      24.052  46.467  50.364  1.00  0.00    -0.337 OA
BRANCH  13  14
HETATM   14  C   UNL     1      24.569  47.558  49.719  1.00  0.00     0.070 A 
HETATM   15  C   UNL     1      23.661  48.416  49.102  1.00  0.00     0.043 A 
HETATM   16  C   UNL     1      24.115  49.555  48.427  1.00  0.00    -0.059 A 
HETATM   17  C   UNL     1      23.151  50.486  47.752  1.00  0.00     0.048 C 
HETATM   18  C   UNL     1      25.487  49.838  48.416  1.00  0.00     0.013 A 
HETATM   19  C   UNL     1      26.403  48.992  49.057  1.00  0.00    -0.059 A 
HETATM   20  C   UNL     1      25.934  47.851  49.719  1.00  0.00     0.043 A 
HETATM   21  C   UNL     1      27.865  49.335  49.055  1.00  0.00     0.048 C 
ENDBRANCH  13  14
ENDBRANCH  11  13
ENDBRANCH   8  11
ENDBRANCH   1   7
BRANCH   3  22
HETATM   22  C   UNL     1      29.443  43.516  54.481  1.00  0.00     0.181 A 
HETATM   23  O   UNL     1      28.942  44.675  55.021  1.00  0.00    -0.289 OA
HETATM   24  C   UNL     1      29.705  44.882  56.130  1.00  0.00     0.106 A 
HETATM   25  C   UNL     1      30.624  43.849  56.210  1.00  0.00     0.093 A 
HETATM   26  C   UNL     1      29.606  45.928  57.038  1.00  0.00     0.040 A 
HETATM   27  N   UNL     1      30.453  42.990  55.154  1.00  0.00    -0.221 NA
HETATM   28  C   UNL     1      31.530  43.830  57.279  1.00  0.00     0.034 A 
HETATM   29  C   UNL     1      31.461  44.868  58.221  1.00  0.00     0.002 A 
HETATM   30  C   UNL     1      30.519  45.897  58.100  1.00  0.00     0.003 A 
ENDBRANCH   3  22
TORSDOF 5
ENDMDL
MODEL 2
REMARK VINA RESULT:     -10.5      0.109      1.602
REMARK  5 active torsions:
REMARK  status: ('A' for Active; 'I' for Inactive)
REMARK    1  A    between atoms: C_4  and  O_5 
REMARK    2  A    between atoms: O_5  and  C_6 
REMARK    3  A    between atoms: C_6  and  C_7 
REMARK       I    between atoms: C_7  and  N_8 
REMARK    4  A    between atoms: N_8  and  C_9 
REMARK    5  A    between atoms: C_11  and  C_12 
ROOT
HETATM    1  C   UNL     1      27.390  43.342  51.408  1.00  0.00     0.035 A 
HETATM    2  C   UNL     1      28.003  43.828  52.568  1.00  0.00     0.045 A 
HETATM    3  C   UNL     1      28.861  43.017  53.330  1.00  0.00     0.019 A 
HETATM    4  C   UNL     1      29.100  41.702  52.905  1.00  0.00     0.016 A 
HETATM    5  C   UNL     1      28.500  41.210  51.747  1.00  0.00     0.003 A 
HETATM    6  C   UNL     1      27.649  42.028  51.003  1.00  0.00     0.029 A 
ENDROOT
BRANCH   1   7
HETATM    7  N   UNL     1      26.521  44.100  50.601  1.00  0.00    -0.325 N 
HETATM    8  C   UNL     1      25.144  44.213  50.697  1.00  0.00     0.251 C 
HETATM    9  O   UNL     1      24.418  43.644  51.507  1.00  0.00    -0.270 OA
HETATM   10  H   UNL     1      26.935  44.589  49.810  1.00  0.00     0.169 HD
BRANCH   8  11
HETATM   11  C   UNL     1      24.560  45.216  49.689  1.00  0.00     0.217 C 
HETATM   12  C   UNL     1      23.348  44.584  49.013  1.00  0.00     0.050 C 
BRANCH  11  13
HETATM   13  O   UNL     1      24.101  46.408  50.344  1.00  0.00    -0.337 OA
BRANCH  13  14
HETATM   14  C   UNL     1      24.523  47.552  49.722  1.00  0.00     0.070 A 
HETATM   15  C   UNL     1      25.895  47.798  49.714  1.00  0.00     0.043 A 
HETATM   16  C   UNL     1      26.402  48.945  49.092  1.00  0.00    -0.059 A 
HETATM   17  C   UNL     1      27.875  49.227  49.081  1.00  0.00     0.048 C 
HETATM   18  C   UNL     1      25.515  49.818  48.448  1.00  0.00     0.013 A 
HETATM   19  C   UNL     1      24.136  49.562  48.430  1.00  0.00    -0.059 A 
HETATM   20  C   UNL     1      23.645  48.416  49.065  1.00  0.00     0.043 A 
HETATM   21  C   UNL     1      23.213  50.498  47.706  1.00  0.00     0.048 C 
ENDBRANCH  13  14
ENDBRANCH  11  13
ENDBRANCH   8  11
ENDBRANCH   1   7
BRANCH   3  22
HETATM   22  C   UNL     1      29.503  43.504  54.550  1.00  0.00     0.181 A 
HETATM   23  O   UNL     1      29.008  44.668  55.084  1.00  0.00    -0.289 OA
HETATM   24  C   UNL     1      29.775  44.879  56.190  1.00  0.00     0.106 A 
HETATM   25  C   UNL     1      30.690  43.842  56.275  1.00  0.00     0.093 A 
HETATM   26  C   UNL     1      29.683  45.932  57.091  1.00  0.00     0.040 A 
HETATM   27  N   UNL     1      30.512  42.977  55.225  1.00  0.00    -0.221 NA
HETATM   28  C   UNL     1      31.598  43.826  57.341  1.00  0.00     0.034 A 
HETATM   29  C   UNL     1      31.537  44.871  58.277  1.00  0.00     0.002 A 
HETATM   30  C   UNL     1      30.598  45.903  58.152  1.00  0.00     0.003 A 
ENDBRANCH   3  22
TORSDOF 5
ENDMDL
MODEL 3
REMARK VINA RESULT:     -10.4      2.480      9.537
REMARK  5 active torsions:
REMARK  status: ('A' for Active; 'I' for Inactive)
REMARK    1  A    between atoms: C_4  and  O_5 
REMARK    2  A    between atoms: O_5  and  C_6 
REMARK    3  A    between atoms: C_6  and  C_7 
REMARK       I    between atoms: C_7  and  N_8 
REMARK    4  A    between atoms: N_8  and  C_9 
REMARK    5  A    between atoms: C_11  and  C_12 
ROOT
HETATM    1  C   UNL     1      26.107  47.211  50.221  1.00  0.00     0.035 A 
HETATM    2  C   UNL     1      24.844  47.747  49.950  1.00  0.00     0.045 A 
HETATM    3  C   UNL     1      24.696  48.881  49.132  1.00  0.00     0.019 A 
HETATM    4  C   UNL     1      25.845  49.468  48.582  1.00  0.00     0.016 A 
HETATM    5  C   UNL     1      27.107  48.939  48.839  1.00  0.00     0.003 A 
HETATM    6  C   UNL     1      27.236  47.814  49.656  1.00  0.00     0.029 A 
ENDROOT
BRANCH   1   7
HETATM    7  N   UNL     1      26.324  46.080  51.031  1.00  0.00    -0.325 N 
HETATM    8  C   UNL     1      26.868  44.859  50.669  1.00  0.00     0.251 C 
HETATM    9  O   UNL     1      27.247  44.532  49.548  1.00  0.00    -0.270 OA
HETATM   10  H   UNL     1      25.995  46.132  51.992  1.00  0.00     0.169 HD
BRANCH   8  11
HETATM   11  C   UNL     1      27.030  43.904  51.862  1.00  0.00     0.217 C 
HETATM   12  C   UNL     1      26.368  42.574  51.520  1.00  0.00     0.050 C 
BRANCH  11  13
HETATM   13  O   UNL     1      28.414  43.629  52.127  1.00  0.00    -0.337 OA
BRANCH  13  14
HETATM   14  C   UNL     1      28.817  44.072  53.358  1.00  0.00     0.070 A 
HETATM   15  C   UNL     1      28.151  45.180  53.880  1.00  0.00     0.043 A 
HETATM   16  C   UNL     1      28.504  45.687  55.135  1.00  0.00    -0.059 A 
HETATM   17  C   UNL     1      27.802  46.883  55.708  1.00  0.00     0.048 C 
HETATM   18  C   UNL     1      29.507  45.043  55.872  1.00  0.00     0.013 A 
HETATM   19  C   UNL     1      30.163  43.912  55.363  1.00  0.00    -0.059 A 
HETATM   20  C   UNL     1      29.804  43.424  54.102  1.00  0.00     0.043 A 
HETATM   21  C   UNL     1      31.212  43.224  56.187  1.00  0.00     0.048 C 
ENDBRANCH  13  14
ENDBRANCH  11  13
ENDBRANCH   8  11
ENDBRANCH   1   7
BRANCH   3  22
HETATM   22  C   UNL     1      23.386  49.461  48.845  1.00  0.00     0.181 A 
HETATM   23  O   UNL     1      22.745  50.082  49.890  1.00  0.00    -0.289 OA
HETATM   24  C   UNL     1      21.575  50.521  49.348  1.00  0.00     0.106 A 
HETATM   25  C   UNL     1      21.560  50.150  48.014  1.00  0.00     0.093 A 
HETATM   26  C   UNL     1      20.558  51.217  49.989  1.00  0.00     0.040 A 
HETATM   27  N   UNL     1      22.713  49.472  47.706  1.00  0.00    -0.221 NA
HETATM   28  C   UNL     1      20.454  50.494  47.228  1.00  0.00     0.034 A 
HETATM   29  C   UNL     1      19.405  51.202  47.836  1.00  0.00     0.002 A 
HETATM   30  C   UNL     1      19.457  51.554  49.191  1.00  0.00     0.003 A 
ENDBRANCH   3  22
TORSDOF 5
ENDMDL
MODEL 4
REMARK VINA RESULT:     -10.2      1.902      8.777
REMARK  5 active torsions:
REMARK  status: ('A' for Active; 'I' for Inactive)
REMARK    1  A    between atoms: C_4  and  O_5 
REMARK    2  A    between atoms: O_5  and  C_6 
REMARK    3  A    between atoms: C_6  and  C_7 
REMARK       I    between atoms: C_7  and  N_8 
REMARK    4  A    between atoms: N_8  and  C_9 
REMARK    5  A    between atoms: C_11  and  C_12 
ROOT
HETATM    1  C   UNL     1      25.076  43.566  51.249  1.00  0.00     0.035 A 
HETATM    2  C   UNL     1      24.955  44.889  50.810  1.00  0.00     0.045 A 
HETATM    3  C   UNL     1      23.926  45.271  49.931  1.00  0.00     0.019 A 
HETATM    4  C   UNL     1      23.012  44.298  49.501  1.00  0.00     0.016 A 
HETATM    5  C   UNL     1      23.119  42.979  49.938  1.00  0.00     0.003 A 
HETATM    6  C   UNL     1      24.148  42.617  50.808  1.00  0.00     0.029 A 
ENDROOT
BRANCH   1   7
HETATM    7  N   UNL     1      26.082  43.119  52.127  1.00  0.00    -0.325 N 
HETATM    8  C   UNL     1      27.179  42.324  51.837  1.00  0.00     0.251 C 
HETATM    9  O   UNL     1      27.465  41.842  50.744  1.00  0.00    -0.270 OA
HETATM   10  H   UNL     1      25.974  43.354  53.110  1.00  0.00     0.169 HD
BRANCH   8  11
HETATM   11  C   UNL     1      28.106  42.129  53.048  1.00  0.00     0.217 C 
HETATM   12  C   UNL     1      28.555  40.673  53.092  1.00  0.00     0.050 C 
BRANCH  11  13
HETATM   13  O   UNL     1      29.291  42.931  52.934  1.00  0.00    -0.337 OA
BRANCH  13  14
HETATM   14  C   UNL     1      29.583  43.614  54.084  1.00  0.00     0.070 A 
HETATM   15  C   UNL     1      28.795  44.726  54.376  1.00  0.00     0.043 A 
HETATM   16  C   UNL     1      29.031  45.471  55.537  1.00  0.00    -0.059 A 
HETATM   17  C   UNL     1      28.197  46.674  55.862  1.00  0.00     0.048 C 
HETATM   18  C   UNL     1      30.040  45.059  56.417  1.00  0.00     0.013 A 
HETATM   19  C   UNL     1      30.819  43.925  56.142  1.00  0.00    -0.059 A 
HETATM   20  C   UNL     1      30.577  43.197  54.971  1.00  0.00     0.043 A 
HETATM   21  C   UNL     1      31.874  43.489  57.116  1.00  0.00     0.048 C 
ENDBRANCH  13  14
ENDBRANCH  11  13
ENDBRANCH   8  11
ENDBRANCH   1   7
BRANCH   3  22
HETATM   22  C   UNL     1      23.789  46.645  49.453  1.00  0.00     0.181 A 
HETATM   23  O   UNL     1      22.584  46.984  48.887  1.00  0.00    -0.289 OA
HETATM   24  C   UNL     1      22.736  48.293  48.541  1.00  0.00     0.106 A 
HETATM   25  C   UNL     1      24.013  48.683  48.910  1.00  0.00     0.093 A 
HETATM   26  C   UNL     1      21.801  49.116  47.928  1.00  0.00     0.040 A 
HETATM   27  N   UNL     1      24.675  47.627  49.483  1.00  0.00    -0.221 NA
HETATM   28  C   UNL     1      24.415  50.002  48.665  1.00  0.00     0.034 A 
HETATM   29  C   UNL     1      23.497  50.869  48.049  1.00  0.00     0.002 A 
HETATM   30  C   UNL     1      22.217  50.432  47.687  1.00  0.00     0.003 A 
ENDBRANCH   3  22
TORSDOF 5
ENDMDL
MODEL 5
REMARK VINA RESULT:     -10.1      2.678     10.098
REMARK  5 active torsions:
REMARK  status: ('A' for Active; 'I' for Inactive)
REMARK    1  A    between atoms: C_4  and  O_5 
REMARK    2  A    between atoms: O_5  and  C_6 
REMARK    3  A    between atoms: C_6  and  C_7 
REMARK       I    between atoms: C_7  and  N_8 
REMARK    4  A    between atoms: N_8  and  C_9 
REMARK    5  A    between atoms: C_11  and  C_12 
ROOT
HETATM    1  C   UNL     1      25.834  47.930  49.937  1.00  0.00     0.035 A 
HETATM    2  C   UNL     1      24.513  48.247  49.605  1.00  0.00     0.045 A 
HETATM    3  C   UNL     1      24.221  49.265  48.681  1.00  0.00     0.019 A 
HETATM    4  C   UNL     1      25.285  49.962  48.088  1.00  0.00     0.016 A 
HETATM    5  C   UNL     1      26.605  49.649  48.406  1.00  0.00     0.003 A 
HETATM    6  C   UNL     1      26.876  48.637  49.327  1.00  0.00     0.029 A 
ENDROOT
BRANCH   1   7
HETATM    7  N   UNL     1      26.194  46.923  50.854  1.00  0.00    -0.325 N 
HETATM    8  C   UNL     1      25.957  46.884  52.218  1.00  0.00     0.251 C 
HETATM    9  O   UNL     1      25.396  47.746  52.888  1.00  0.00    -0.270 OA
HETATM   10  H   UNL     1      26.746  46.148  50.494  1.00  0.00     0.169 HD
BRANCH   8  11
HETATM   11  C   UNL     1      26.421  45.568  52.863  1.00  0.00     0.217 C 
HETATM   12  C   UNL     1      25.197  44.800  53.349  1.00  0.00     0.050 C 
BRANCH  11  13
HETATM   13  O   UNL     1      27.093  44.728  51.911  1.00  0.00    -0.337 OA
BRANCH  13  14
HETATM   14  C   UNL     1      27.931  43.821  52.501  1.00  0.00     0.070 A 
HETATM   15  C   UNL     1      27.986  42.550  51.932  1.00  0.00     0.043 A 
HETATM   16  C   UNL     1      28.824  41.570  52.477  1.00  0.00    -0.059 A 
HETATM   17  C   UNL     1      28.890  40.195  51.881  1.00  0.00     0.048 C 
HETATM   18  C   UNL     1      29.631  41.898  53.573  1.00  0.00     0.013 A 
HETATM   19  C   UNL     1      29.600  43.184  54.134  1.00  0.00    -0.059 A 
HETATM   20  C   UNL     1      28.749  44.149  53.583  1.00  0.00     0.043 A 
HETATM   21  C   UNL     1      30.498  43.516  55.290  1.00  0.00     0.048 C 
ENDBRANCH  13  14
ENDBRANCH  11  13
ENDBRANCH   8  11
ENDBRANCH   1   7
BRANCH   3  22
HETATM   22  C   UNL     1      22.847  49.619  48.328  1.00  0.00     0.181 A 
HETATM   23  O   UNL     1      22.362  50.795  48.844  1.00  0.00    -0.289 OA
HETATM   24  C   UNL     1      21.090  50.869  48.362  1.00  0.00     0.106 A 
HETATM   25  C   UNL     1      20.865  49.746  47.584  1.00  0.00     0.093 A 
HETATM   26  C   UNL     1      20.159  51.875  48.591  1.00  0.00     0.040 A 
HETATM   27  N   UNL     1      21.986  48.955  47.574  1.00  0.00    -0.221 NA
HETATM   28  C   UNL     1      19.619  49.589  46.965  1.00  0.00     0.034 A 
HETATM   29  C   UNL     1      18.651  50.585  47.167  1.00  0.00     0.002 A 
HETATM   30  C   UNL     1      18.917  51.704  47.966  1.00  0.00     0.003 A 
ENDBRANCH   3  22
TORSDOF 5
ENDMDL
MODEL 6
REMARK VINA RESULT:      -9.9      2.742      4.819
REMARK  5 active torsions:
REMARK  status: ('A' for Active; 'I' for Inactive)
REMARK    1  A    between atoms: C_4  and  O_5 
REMARK    2  A    between atoms: O_5  and  C_6 
REMARK    3  A    between atoms: C_6  and  C_7 
REMARK       I    between atoms: C_7  and  N_8 
REMARK    4  A    between atoms: N_8  and  C_9 
REMARK    5  A    between atoms: C_11  and  C_12 
ROOT
HETATM    1  C   UNL     1      24.409  46.255  50.566  1.00  0.00     0.035 A 
HETATM    2  C   UNL     1      25.449  46.170  51.497  1.00  0.00     0.045 A 
HETATM    3  C   UNL     1      25.947  44.925  51.919  1.00  0.00     0.019 A 
HETATM    4  C   UNL     1      25.382  43.758  51.384  1.00  0.00     0.016 A 
HETATM    5  C   UNL     1      24.351  43.830  50.451  1.00  0.00     0.003 A 
HETATM    6  C   UNL     1      23.867  45.074  50.044  1.00  0.00     0.029 A 
ENDROOT
BRANCH   1   7
HETATM    7  N   UNL     1      23.865  47.468  50.102  1.00  0.00    -0.325 N 
HETATM    8  C   UNL     1      24.482  48.445  49.338  1.00  0.00     0.251 C 
HETATM    9  O   UNL     1      25.643  48.437  48.939  1.00  0.00    -0.270 OA
HETATM   10  H   UNL     1      22.921  47.695  50.403  1.00  0.00     0.169 HD
BRANCH   8  11
HETATM   11  C   UNL     1      23.527  49.586  48.951  1.00  0.00     0.217 C 
HETATM   12  C   UNL     1      24.265  50.555  48.035  1.00  0.00     0.050 C 
BRANCH  11  13
HETATM   13  O   UNL     1      22.395  49.093  48.218  1.00  0.00    -0.337 OA
BRANCH  13  14
HETATM   14  C   UNL     1      21.208  49.612  48.660  1.00  0.00     0.070 A 
HETATM   15  C   UNL     1      20.524  48.883  49.632  1.00  0.00     0.043 A 
HETATM   16  C   UNL     1      19.306  49.354  50.137  1.00  0.00    -0.059 A 
HETATM   17  C   UNL     1      18.553  48.579  51.177  1.00  0.00     0.048 C 
HETATM   18  C   UNL     1      18.808  50.581  49.681  1.00  0.00     0.013 A 
HETATM   19  C   UNL     1      19.507  51.332  48.722  1.00  0.00    -0.059 A 
HETATM   20  C   UNL     1      20.718  50.842  48.220  1.00  0.00     0.043 A 
HETATM   21  C   UNL     1      18.965  52.658  48.274  1.00  0.00     0.048 C 
ENDBRANCH  13  14
ENDBRANCH  11  13
ENDBRANCH   8  11
ENDBRANCH   1   7
BRANCH   3  22
HETATM   22  C   UNL     1      27.027  44.816  52.899  1.00  0.00     0.181 A 
HETATM   23  O   UNL     1      27.891  43.759  52.749  1.00  0.00    -0.289 OA
HETATM   24  C   UNL     1      28.774  43.905  53.775  1.00  0.00     0.106 A 
HETATM   25  C   UNL     1      28.409  45.033  54.492  1.00  0.00     0.093 A 
HETATM   26  C   UNL     1      29.858  43.090  54.077  1.00  0.00     0.040 A 
HETATM   27  N   UNL     1      27.294  45.600  53.930  1.00  0.00    -0.221 NA
HETATM   28  C   UNL     1      29.174  45.404  55.605  1.00  0.00     0.034 A 
HETATM   29  C   UNL     1      30.280  44.608  55.943  1.00  0.00     0.002 A 
HETATM   30  C   UNL     1      30.612  43.473  55.193  1.00  0.00     0.003 A 
ENDBRANCH   3  22
TORSDOF 5
ENDMDL
MODEL 7
REMARK VINA RESULT:      -9.6      2.516      4.429
REMARK  5 active torsions:
REMARK  status: ('A' for Active; 'I' for Inactive)
REMARK    1  A    between atoms: C_4  and  O_5 
REMARK    2  A    between atoms: O_5  and  C_6 
REMARK    3  A    between atoms: C_6  and  C_7 
REMARK       I    between atoms: C_7  and  N_8 
REMARK    4  A    between atoms: N_8  and  C_9 
REMARK    5  A    between atoms: C_11  and  C_12 
ROOT
HETATM    1  C   UNL     1      24.500  46.065  50.609  1.00  0.00     0.035 A 
HETATM    2  C   UNL     1      25.577  45.985  51.499  1.00  0.00     0.045 A 
HETATM    3  C   UNL     1      25.978  44.752  52.044  1.00  0.00     0.019 A 
HETATM    4  C   UNL     1      25.279  43.594  51.676  1.00  0.00     0.016 A 
HETATM    5  C   UNL     1      24.209  43.661  50.786  1.00  0.00     0.003 A 
HETATM    6  C   UNL     1      23.823  44.893  50.255  1.00  0.00     0.029 A 
ENDROOT
BRANCH   1   7
HETATM    7  N   UNL     1      24.048  47.265  50.029  1.00  0.00    -0.325 N 
HETATM    8  C   UNL     1      24.792  48.234  49.377  1.00  0.00     0.251 C 
HETATM    9  O   UNL     1      26.008  48.228  49.203  1.00  0.00    -0.270 OA
HETATM   10  H   UNL     1      23.062  47.490  50.143  1.00  0.00     0.169 HD
BRANCH   8  11
HETATM   11  C   UNL     1      23.922  49.360  48.795  1.00  0.00     0.217 C 
HETATM   12  C   UNL     1      24.823  50.352  48.069  1.00  0.00     0.050 C 
BRANCH  11  13
HETATM   13  O   UNL     1      22.990  48.852  47.828  1.00  0.00    -0.337 OA
BRANCH  13  14
HETATM   14  C   UNL     1      21.689  49.137  48.144  1.00  0.00     0.070 A 
HETATM   15  C   UNL     1      21.314  50.479  48.131  1.00  0.00     0.043 A 
HETATM   16  C   UNL     1      19.999  50.847  48.438  1.00  0.00    -0.059 A 
HETATM   17  C   UNL     1      19.582  52.288  48.434  1.00  0.00     0.048 C 
HETATM   18  C   UNL     1      19.060  49.846  48.719  1.00  0.00     0.013 A 
HETATM   19  C   UNL     1      19.425  48.491  48.709  1.00  0.00    -0.059 A 
HETATM   20  C   UNL     1      20.747  48.141  48.409  1.00  0.00     0.043 A 
HETATM   21  C   UNL     1      18.392  47.438  48.984  1.00  0.00     0.048 C 
ENDBRANCH  13  14
ENDBRANCH  11  13
ENDBRANCH   8  11
ENDBRANCH   1   7
BRANCH   3  22
HETATM   22  C   UNL     1      27.094  44.650  52.983  1.00  0.00     0.181 A 
HETATM   23  O   UNL     1      27.296  45.720  53.819  1.00  0.00    -0.289 OA
HETATM   24  C   UNL     1      28.375  45.357  54.567  1.00  0.00     0.106 A 
HETATM   25  C   UNL     1      28.773  44.096  54.154  1.00  0.00     0.093 A 
HETATM   26  C   UNL     1      28.990  46.094  55.571  1.00  0.00     0.040 A 
HETATM   27  N   UNL     1      27.956  43.659  53.143  1.00  0.00    -0.221 NA
HETATM   28  C   UNL     1      29.870  43.493  54.781  1.00  0.00     0.034 A 
HETATM   29  C   UNL     1      30.519  44.203  55.804  1.00  0.00     0.002 A 
HETATM   30  C   UNL     1      30.087  45.479  56.189  1.00  0.00     0.003 A 
ENDBRANCH   3  22
TORSDOF 5
ENDMDL
MODEL 8
REMARK VINA RESULT:      -9.3      4.282      7.322
REMARK  5 active torsions:
REMARK  status: ('A' for Active; 'I' for Inactive)
REMARK    1  A    between atoms: C_4  and  O_5 
REMARK    2  A    between atoms: O_5  and  C_6 
REMARK    3  A    between atoms: C_6  and  C_7 
REMARK       I    between atoms: C_7  and  N_8 
REMARK    4  A    between atoms: N_8  and  C_9 
REMARK    5  A    between atoms: C_11  and  C_12 
ROOT
HETATM    1  C   UNL     1      24.099  49.176  49.045  1.00  0.00     0.035 A 
HETATM    2  C   UNL     1      24.436  48.123  49.903  1.00  0.00     0.045 A 
HETATM    3  C   UNL     1      25.774  47.729  50.077  1.00  0.00     0.019 A 
HETATM    4  C   UNL     1      26.776  48.415  49.375  1.00  0.00     0.016 A 
HETATM    5  C   UNL     1      26.452  49.469  48.523  1.00  0.00     0.003 A 
HETATM    6  C   UNL     1      25.118  49.847  48.360  1.00  0.00     0.029 A 
ENDROOT
BRANCH   1   7
HETATM    7  N   UNL     1      22.781  49.620  48.826  1.00  0.00    -0.325 N 
HETATM    8  C   UNL     1      22.037  50.503  49.591  1.00  0.00     0.251 C 
HETATM    9  O   UNL     1      22.395  51.051  50.630  1.00  0.00    -0.270 OA
HETATM   10  H   UNL     1      22.280  49.208  48.043  1.00  0.00     0.169 HD
BRANCH   8  11
HETATM   11  C   UNL     1      20.665  50.813  48.973  1.00  0.00     0.217 C 
HETATM   12  C   UNL     1      20.714  50.495  47.483  1.00  0.00     0.050 C 
BRANCH  11  13
HETATM   13  O   UNL     1      19.636  49.992  49.545  1.00  0.00    -0.337 OA
BRANCH  13  14
HETATM   14  C   UNL     1      18.377  50.472  49.304  1.00  0.00     0.070 A 
HETATM   15  C   UNL     1      17.515  49.650  48.581  1.00  0.00     0.043 A 
HETATM   16  C   UNL     1      16.209  50.070  48.301  1.00  0.00    -0.059 A 
HETATM   17  C   UNL     1      15.271  49.201  47.518  1.00  0.00     0.048 C 
HETATM   18  C   UNL     1      15.774  51.309  48.791  1.00  0.00     0.013 A 
HETATM   19  C   UNL     1      16.629  52.129  49.541  1.00  0.00    -0.059 A 
HETATM   20  C   UNL     1      17.934  51.698  49.804  1.00  0.00     0.043 A 
HETATM   21  C   UNL     1      16.126  53.437  50.079  1.00  0.00     0.048 C 
ENDBRANCH  13  14
ENDBRANCH  11  13
ENDBRANCH   8  11
ENDBRANCH   1   7
BRANCH   3  22
HETATM   22  C   UNL     1      26.145  46.625  50.961  1.00  0.00     0.181 A 
HETATM   23  O   UNL     1      26.083  46.869  52.311  1.00  0.00    -0.289 OA
HETATM   24  C   UNL     1      26.472  45.693  52.878  1.00  0.00     0.106 A 
HETATM   25  C   UNL     1      26.749  44.800  51.857  1.00  0.00     0.093 A 
HETATM   26  C   UNL     1      26.582  45.408  54.233  1.00  0.00     0.040 A 
HETATM   27  N   UNL     1      26.544  45.404  50.642  1.00  0.00    -0.221 NA
HETATM   28  C   UNL     1      27.167  43.505  52.185  1.00  0.00     0.034 A 
HETATM   29  C   UNL     1      27.289  43.173  53.544  1.00  0.00     0.002 A 
HETATM   30  C   UNL     1      27.003  44.109  54.547  1.00  0.00     0.003 A 
ENDBRANCH   3  22
TORSDOF 5
ENDMDL
MODEL 9
REMARK VINA RESULT:      -9.3      2.995     10.248
REMARK  5 active torsions:
REMARK  status: ('A' for Active; 'I' for Inactive)
REMARK    1  A    between atoms: C_4  and  O_5 
REMARK    2  A    between atoms: O_5  and  C_6 
REMARK    3  A    between atoms: C_6  and  C_7 
REMARK       I    between atoms: C_7  and  N_8 
REMARK    4  A    between atoms: N_8  and  C_9 
REMARK    5  A    between atoms: C_11  and  C_12 
ROOT
HETATM    1  C   UNL     1      23.877  46.291  49.545  1.00  0.00     0.035 A 
HETATM    2  C   UNL     1      23.019  47.374  49.328  1.00  0.00     0.045 A 
HETATM    3  C   UNL     1      22.043  47.337  48.316  1.00  0.00     0.019 A 
HETATM    4  C   UNL     1      21.940  46.185  47.522  1.00  0.00     0.016 A 
HETATM    5  C   UNL     1      22.785  45.097  47.735  1.00  0.00     0.003 A 
HETATM    6  C   UNL     1      23.749  45.152  48.742  1.00  0.00     0.029 A 
ENDROOT
BRANCH   1   7
HETATM    7  N   UNL     1      24.873  46.265  50.540  1.00  0.00    -0.325 N 
HETATM    8  C   UNL     1      24.949  45.443  51.652  1.00  0.00     0.251 C 
HETATM    9  O   UNL     1      24.135  44.587  51.987  1.00  0.00    -0.270 OA
HETATM   10  H   UNL     1      25.605  46.967  50.477  1.00  0.00     0.169 HD
BRANCH   8  11
HETATM   11  C   UNL     1      26.243  45.652  52.456  1.00  0.00     0.217 C 
HETATM   12  C   UNL     1      26.370  47.130  52.806  1.00  0.00     0.050 C 
BRANCH  11  13
HETATM   13  O   UNL     1      26.211  44.927  53.694  1.00  0.00    -0.337 OA
BRANCH  13  14
HETATM   14  C   UNL     1      27.361  44.221  53.927  1.00  0.00     0.070 A 
HETATM   15  C   UNL     1      27.521  43.027  53.226  1.00  0.00     0.043 A 
HETATM   16  C   UNL     1      28.673  42.253  53.406  1.00  0.00    -0.059 A 
HETATM   17  C   UNL     1      28.858  40.962  52.665  1.00  0.00     0.048 C 
HETATM   18  C   UNL     1      29.675  42.715  54.270  1.00  0.00     0.013 A 
HETATM   19  C   UNL     1      29.531  43.929  54.958  1.00  0.00    -0.059 A 
HETATM   20  C   UNL     1      28.368  44.686  54.774  1.00  0.00     0.043 A 
HETATM   21  C   UNL     1      30.633  44.415  55.854  1.00  0.00     0.048 C 
ENDBRANCH  13  14
ENDBRANCH  11  13
ENDBRANCH   8  11
ENDBRANCH   1   7
BRANCH   3  22
HETATM   22  C   UNL     1      21.144  48.462  48.067  1.00  0.00     0.181 A 
HETATM   23  O   UNL     1      21.267  49.545  48.902  1.00  0.00    -0.289 OA
HETATM   24  C   UNL     1      20.329  50.423  48.448  1.00  0.00     0.106 A 
HETATM   25  C   UNL     1      19.689  49.837  47.368  1.00  0.00     0.093 A 
HETATM   26  C   UNL     1      20.042  51.684  48.952  1.00  0.00     0.040 A 
HETATM   27  N   UNL     1      20.210  48.589  47.138  1.00  0.00    -0.221 NA
HETATM   28  C   UNL     1      18.676  50.550  46.715  1.00  0.00     0.034 A 
HETATM   29  C   UNL     1      18.356  51.831  47.191  1.00  0.00     0.002 A 
HETATM   30  C   UNL     1      19.026  52.385  48.289  1.00  0.00     0.003 A 
ENDBRANCH   3  22
TORSDOF 5
ENDMDL
MODEL 10
REMARK VINA RESULT:      -9.2      1.150      1.556
REMARK  5 active torsions:
REMARK  status: ('A' for Active; 'I' for Inactive)
REMARK    1  A    between atoms: C_4  and  O_5 
REMARK    2  A    between atoms: O_5  and  C_6 
REMARK    3  A    between atoms: C_6  and  C_7 
REMARK       I    between atoms: C_7  and  N_8 
REMARK    4  A    between atoms: N_8  and  C_9 
REMARK    5  A    between atoms: C_11  and  C_12 
ROOT
HETATM    1  C   UNL     1      26.389  43.331  50.236  1.00  0.00     0.035 A 
HETATM    2  C   UNL     1      27.114  43.734  51.363  1.00  0.00     0.045 A 
HETATM    3  C   UNL     1      27.955  42.837  52.044  1.00  0.00     0.019 A 
HETATM    4  C   UNL     1      28.061  41.522  51.570  1.00  0.00     0.016 A 
HETATM    5  C   UNL     1      27.349  41.112  50.445  1.00  0.00     0.003 A 
HETATM    6  C   UNL     1      26.517  42.014  49.782  1.00  0.00     0.029 A 
ENDROOT
BRANCH   1   7
HETATM    7  N   UNL     1      25.530  44.178  49.510  1.00  0.00    -0.325 N 
HETATM    8  C   UNL     1      24.307  44.697  49.902  1.00  0.00     0.251 C 
HETATM    9  O   UNL     1      23.732  44.489  50.967  1.00  0.00    -0.270 OA
HETATM   10  H   UNL     1      25.802  44.402  48.556  1.00  0.00     0.169 HD
BRANCH   8  11
HETATM   11  C   UNL     1      23.712  45.662  48.864  1.00  0.00     0.217 C 
HETATM   12  C   UNL     1      22.806  44.875  47.925  1.00  0.00     0.050 C 
BRANCH  11  13
HETATM   13  O   UNL     1      22.899  46.666  49.491  1.00  0.00    -0.337 OA
BRANCH  13  14
HETATM   14  C   UNL     1      23.216  47.935  49.087  1.00  0.00     0.070 A 
HETATM   15  C   UNL     1      22.164  48.843  48.974  1.00  0.00     0.043 A 
HETATM   16  C   UNL     1      22.412  50.160  48.572  1.00  0.00    -0.059 A 
HETATM   17  C   UNL     1      21.290  51.148  48.439  1.00  0.00     0.048 C 
HETATM   18  C   UNL     1      23.731  50.560  48.324  1.00  0.00     0.013 A 
HETATM   19  C   UNL     1      24.797  49.658  48.462  1.00  0.00    -0.059 A 
HETATM   20  C   UNL     1      24.531  48.341  48.855  1.00  0.00     0.043 A 
HETATM   21  C   UNL     1      26.203  50.121  48.219  1.00  0.00     0.048 C 
ENDBRANCH  13  14
ENDBRANCH  11  13
ENDBRANCH   8  11
ENDBRANCH   1   7
BRANCH   3  22
HETATM   22  C   UNL     1      28.713  43.236  53.229  1.00  0.00     0.181 A 
HETATM   23  O   UNL     1      28.390  44.449  53.787  1.00  0.00    -0.289 OA
HETATM   24  C   UNL     1      29.233  44.559  54.851  1.00  0.00     0.106 A 
HETATM   25  C   UNL     1      30.019  43.420  54.889  1.00  0.00     0.093 A 
HETATM   26  C   UNL     1      29.315  45.611  55.755  1.00  0.00     0.040 A 
HETATM   27  N   UNL     1      29.685  42.589  53.850  1.00  0.00    -0.221 NA
HETATM   28  C   UNL     1      30.973  43.289  55.906  1.00  0.00     0.034 A 
HETATM   29  C   UNL     1      31.086  44.328  56.844  1.00  0.00     0.002 A 
HETATM   30  C   UNL     1      30.274  45.467  56.767  1.00  0.00     0.003 A 
ENDBRANCH   3  22
TORSDOF 5
ENDMDL
