MODEL 1
REMARK VINA RESULT:      -9.3      0.000      0.000
REMARK  8 active torsions:
REMARK  status: ('A' for Active; 'I' for Inactive)
REMARK    1  A    between atoms: C_3  and  N_4 
REMARK    2  A    between atoms: C_5  and  S_6 
REMARK    3  A    between atoms: S_6  and  C_7 
REMARK    4  A    between atoms: C_7  and  C_8 
REMARK       I    between atoms: C_8  and  N_9 
REMARK    5  A    between atoms: N_9  and  C_10 
REMARK    6  A    between atoms: C_10  and  C_11 
REMARK    7  A    between atoms: C_11  and  C_12 
REMARK    8  A    between atoms: C_22  and  N_23 
ROOT
HETATM    1  N   UNL     1      26.197  43.329  50.684  1.00  0.00    -0.275 N 
HETATM    2  C   UNL     1      26.560  43.112  52.040  1.00  0.00     0.177 A 
HETATM    3  N   UNL     1      27.310  42.134  52.488  1.00  0.00    -0.204 NA
HETATM    4  C   UNL     1      27.786  41.325  51.515  1.00  0.00     0.162 A 
HETATM    5  C   UNL     1      27.574  41.375  50.164  1.00  0.00     0.081 A 
HETATM    6  C   UNL     1      26.724  42.421  49.679  1.00  0.00     0.124 A 
HETATM    7  N   UNL     1      28.616  40.263  51.708  1.00  0.00    -0.260 N 
HETATM    8  H   UNL     1      28.996  39.925  52.585  1.00  0.00     0.191 HD
HETATM    9  N   UNL     1      28.938  39.626  50.560  1.00  0.00    -0.177 NA
HETATM   10  C   UNL     1      28.302  40.316  49.600  1.00  0.00     0.068 A 
HETATM   11  C   UNL     1      28.443  39.898  48.186  1.00  0.00     0.073 C 
ENDROOT
BRANCH   2  12
HETATM   12  S   UNL     1      25.927  44.199  53.293  1.00  0.00    -0.082 SA
BRANCH  12  13
HETATM   13  C   UNL     1      27.167  45.516  53.251  1.00  0.00     0.185 C 
BRANCH  13  14
HETATM   14  C   UNL     1      26.624  46.854  53.739  1.00  0.00     0.227 C 
HETATM   15  N   UNL     1      27.424  47.581  54.590  1.00  0.00    -0.360 N 
HETATM   16  H   UNL     1      26.995  48.439  54.923  1.00  0.00     0.162 HD
HETATM   17  O   UNL     1      25.538  47.327  53.400  1.00  0.00    -0.273 OA
BRANCH  15  18
HETATM   18  C   UNL     1      28.678  47.135  55.174  1.00  0.00     0.127 C 
BRANCH  18  19
HETATM   19  C   UNL     1      28.494  46.376  56.488  1.00  0.00     0.058 C 
BRANCH  19  20
HETATM   20  C   UNL     1      29.594  45.358  56.675  1.00  0.00    -0.057 A 
HETATM   21  C   UNL     1      30.358  45.343  57.849  1.00  0.00     0.007 A 
HETATM   22  C   UNL     1      31.405  44.432  58.000  1.00  0.00     0.001 A 
HETATM   23  C   UNL     1      31.702  43.533  56.977  1.00  0.00     0.000 A 
HETATM   24  C   UNL     1      30.948  43.539  55.805  1.00  0.00     0.001 A 
HETATM   25  C   UNL     1      29.898  44.446  55.654  1.00  0.00     0.007 A 
ENDBRANCH  19  20
ENDBRANCH  18  19
ENDBRANCH  15  18
ENDBRANCH  13  14
ENDBRANCH  12  13
ENDBRANCH   2  12
BRANCH   1  26
HETATM   26  C   UNL     1      25.387  44.438  50.295  1.00  0.00     0.051 A 
HETATM   27  C   UNL     1      24.014  44.292  49.996  1.00  0.00    -0.035 A 
HETATM   28  C   UNL     1      23.279  42.989  50.171  1.00  0.00     0.050 C 
HETATM   29  C   UNL     1      23.284  45.415  49.575  1.00  0.00     0.011 A 
HETATM   30  C   UNL     1      23.907  46.653  49.408  1.00  0.00     0.024 A 
HETATM   31  C   UNL     1      25.263  46.785  49.681  1.00  0.00     0.036 A 
HETATM   32  C   UNL     1      26.003  45.691  50.125  1.00  0.00     0.054 A 
HETATM   33 CL   UNL     1      26.040  48.301  49.449  1.00  0.00    -0.084 Cl
ENDBRANCH   1  26
BRANCH   6  34
HETATM   34  N   UNL     1      26.426  42.524  48.397  1.00  0.00    -0.384 N 
HETATM   35  H   UNL     1      25.477  42.453  48.063  1.00  0.00     0.157 HD
HETATM   36  H   UNL     1      27.162  42.686  47.723  1.00  0.00     0.157 HD
ENDBRANCH   6  34
TORSDOF 8
ENDMDL
MODEL 2
REMARK VINA RESULT:      -8.9      2.788      5.100
REMARK  8 active torsions:
REMARK  status: ('A' for Active; 'I' for Inactive)
REMARK    1  A    between atoms: C_3  and  N_4 
REMARK    2  A    between atoms: C_5  and  S_6 
REMARK    3  A    between atoms: S_6  and  C_7 
REMARK    4  A    between atoms: C_7  and  C_8 
REMARK       I    between atoms: C_8  and  N_9 
REMARK    5  A    between atoms: N_9  and  C_10 
REMARK    6  A    between atoms: C_10  and  C_11 
REMARK    7  A    between atoms: C_11  and  C_12 
REMARK    8  A    between atoms: C_22  and  N_23 
ROOT
HETATM    1  N   UNL     1      24.679  44.416  49.481  1.00  0.00    -0.275 N 
HETATM    2  C   UNL     1      25.326  43.196  49.152  1.00  0.00     0.177 A 
HETATM    3  N   UNL     1      24.826  42.233  48.417  1.00  0.00    -0.204 NA
HETATM    4  C   UNL     1      23.599  42.511  47.921  1.00  0.00     0.162 A 
HETATM    5  C   UNL     1      22.822  43.623  48.098  1.00  0.00     0.081 A 
HETATM    6  C   UNL     1      23.355  44.660  48.932  1.00  0.00     0.124 A 
HETATM    7  N   UNL     1      22.878  41.699  47.100  1.00  0.00    -0.260 N 
HETATM    8  H   UNL     1      23.141  40.787  46.743  1.00  0.00     0.191 HD
HETATM    9  N   UNL     1      21.682  42.223  46.751  1.00  0.00    -0.177 NA
HETATM   10  C   UNL     1      21.647  43.419  47.360  1.00  0.00     0.068 A 
HETATM   11  C   UNL     1      20.463  44.292  47.185  1.00  0.00     0.073 C 
ENDROOT
BRANCH   2  12
HETATM   12  S   UNL     1      26.942  42.865  49.813  1.00  0.00    -0.082 SA
BRANCH  12  13
HETATM   13  C   UNL     1      26.620  41.342  50.736  1.00  0.00     0.185 C 
BRANCH  13  14
HETATM   14  C   UNL     1      27.795  40.371  50.700  1.00  0.00     0.227 C 
HETATM   15  N   UNL     1      28.643  40.376  51.783  1.00  0.00    -0.360 N 
HETATM   16  H   UNL     1      29.434  39.746  51.686  1.00  0.00     0.162 HD
HETATM   17  O   UNL     1      28.009  39.576  49.784  1.00  0.00    -0.273 OA
BRANCH  15  18
HETATM   18  C   UNL     1      28.605  41.311  52.894  1.00  0.00     0.127 C 
BRANCH  18  19
HETATM   19  C   UNL     1      29.825  42.232  52.950  1.00  0.00     0.058 C 
BRANCH  19  20
HETATM   20  C   UNL     1      29.637  43.304  53.996  1.00  0.00    -0.057 A 
HETATM   21  C   UNL     1      28.545  44.179  53.931  1.00  0.00     0.007 A 
HETATM   22  C   UNL     1      28.400  45.200  54.873  1.00  0.00     0.001 A 
HETATM   23  C   UNL     1      29.346  45.359  55.883  1.00  0.00     0.000 A 
HETATM   24  C   UNL     1      30.436  44.494  55.958  1.00  0.00     0.001 A 
HETATM   25  C   UNL     1      30.581  43.470  55.020  1.00  0.00     0.007 A 
ENDBRANCH  19  20
ENDBRANCH  18  19
ENDBRANCH  15  18
ENDBRANCH  13  14
ENDBRANCH  12  13
ENDBRANCH   2  12
BRANCH   1  26
HETATM   26  C   UNL     1      25.320  45.413  50.277  1.00  0.00     0.051 A 
HETATM   27  C   UNL     1      25.260  45.394  51.688  1.00  0.00    -0.035 A 
HETATM   28  C   UNL     1      24.619  44.271  52.459  1.00  0.00     0.050 C 
HETATM   29  C   UNL     1      25.874  46.430  52.411  1.00  0.00     0.011 A 
HETATM   30  C   UNL     1      26.498  47.491  51.753  1.00  0.00     0.024 A 
HETATM   31  C   UNL     1      26.531  47.516  50.363  1.00  0.00     0.036 A 
HETATM   32  C   UNL     1      25.952  46.487  49.625  1.00  0.00     0.054 A 
HETATM   33 CL   UNL     1      27.272  48.837  49.549  1.00  0.00    -0.084 Cl
ENDBRANCH   1  26
BRANCH   6  34
HETATM   34  N   UNL     1      22.661  45.751  49.197  1.00  0.00    -0.384 N 
HETATM   35  H   UNL     1      21.938  46.086  48.579  1.00  0.00     0.157 HD
HETATM   36  H   UNL     1      22.847  46.269  50.046  1.00  0.00     0.157 HD
ENDBRANCH   6  34
TORSDOF 8
ENDMDL
MODEL 3
REMARK VINA RESULT:      -8.5      5.758     10.511
REMARK  8 active torsions:
REMARK  status: ('A' for Active; 'I' for Inactive)
REMARK    1  A    between atoms: C_3  and  N_4 
REMARK    2  A    between atoms: C_5  and  S_6 
REMARK    3  A    between atoms: S_6  and  C_7 
REMARK    4  A    between atoms: C_7  and  C_8 
REMARK       I    between atoms: C_8  and  N_9 
REMARK    5  A    between atoms: N_9  and  C_10 
REMARK    6  A    between atoms: C_10  and  C_11 
REMARK    7  A    between atoms: C_11  and  C_12 
REMARK    8  A    between atoms: C_22  and  N_23 
ROOT
HETATM    1  N   UNL     1      22.445  47.444  48.567  1.00  0.00    -0.275 N 
HETATM    2  C   UNL     1      22.063  46.537  47.544  1.00  0.00     0.177 A 
HETATM    3  N   UNL     1      22.625  45.379  47.293  1.00  0.00    -0.204 NA
HETATM    4  C   UNL     1      23.619  45.061  48.153  1.00  0.00     0.162 A 
HETATM    5  C   UNL     1      24.118  45.777  49.206  1.00  0.00     0.081 A 
HETATM    6  C   UNL     1      23.529  47.059  49.456  1.00  0.00     0.124 A 
HETATM    7  N   UNL     1      24.335  43.903  48.137  1.00  0.00    -0.260 N 
HETATM    8  H   UNL     1      24.236  43.122  47.498  1.00  0.00     0.191 HD
HETATM    9  N   UNL     1      25.269  43.843  49.112  1.00  0.00    -0.177 NA
HETATM   10  C   UNL     1      25.133  44.998  49.782  1.00  0.00     0.068 A 
HETATM   11  C   UNL     1      26.006  45.272  50.947  1.00  0.00     0.073 C 
ENDROOT
BRANCH   2  12
HETATM   12  S   UNL     1      20.747  46.981  46.437  1.00  0.00    -0.082 SA
BRANCH  12  13
HETATM   13  C   UNL     1      19.627  45.578  46.670  1.00  0.00     0.185 C 
BRANCH  13  14
HETATM   14  C   UNL     1      19.119  45.460  48.102  1.00  0.00     0.227 C 
HETATM   15  N   UNL     1      17.884  46.001  48.374  1.00  0.00    -0.360 N 
HETATM   16  H   UNL     1      17.616  45.939  49.351  1.00  0.00     0.162 HD
HETATM   17  O   UNL     1      19.729  44.892  49.009  1.00  0.00    -0.273 OA
BRANCH  15  18
HETATM   18  C   UNL     1      17.078  46.794  47.460  1.00  0.00     0.127 C 
BRANCH  18  19
HETATM   19  C   UNL     1      16.368  47.964  48.141  1.00  0.00     0.058 C 
BRANCH  19  20
HETATM   20  C   UNL     1      16.862  49.280  47.593  1.00  0.00    -0.057 A 
HETATM   21  C   UNL     1      17.948  49.321  46.709  1.00  0.00     0.007 A 
HETATM   22  C   UNL     1      18.434  50.544  46.241  1.00  0.00     0.001 A 
HETATM   23  C   UNL     1      17.843  51.736  46.657  1.00  0.00     0.000 A 
HETATM   24  C   UNL     1      16.762  51.707  47.535  1.00  0.00     0.001 A 
HETATM   25  C   UNL     1      16.272  50.486  48.001  1.00  0.00     0.007 A 
ENDBRANCH  19  20
ENDBRANCH  18  19
ENDBRANCH  15  18
ENDBRANCH  13  14
ENDBRANCH  12  13
ENDBRANCH   2  12
BRANCH   1  26
HETATM   26  C   UNL     1      21.754  48.677  48.770  1.00  0.00     0.051 A 
HETATM   27  C   UNL     1      22.291  49.912  48.344  1.00  0.00    -0.035 A 
HETATM   28  C   UNL     1      23.567  50.013  47.551  1.00  0.00     0.050 C 
HETATM   29  C   UNL     1      21.582  51.094  48.616  1.00  0.00     0.011 A 
HETATM   30  C   UNL     1      20.385  51.063  49.334  1.00  0.00     0.024 A 
HETATM   31  C   UNL     1      19.875  49.846  49.772  1.00  0.00     0.036 A 
HETATM   32  C   UNL     1      20.547  48.658  49.492  1.00  0.00     0.054 A 
HETATM   33 CL   UNL     1      18.418  49.807  50.682  1.00  0.00    -0.084 Cl
ENDBRANCH   1  26
BRANCH   6  34
HETATM   34  N   UNL     1      23.973  47.841  50.422  1.00  0.00    -0.384 N 
HETATM   35  H   UNL     1      23.490  48.687  50.688  1.00  0.00     0.157 HD
HETATM   36  H   UNL     1      24.816  47.592  50.922  1.00  0.00     0.157 HD
ENDBRANCH   6  34
TORSDOF 8
ENDMDL
MODEL 4
REMARK VINA RESULT:      -8.2     12.549     14.520
REMARK  8 active torsions:
REMARK  status: ('A' for Active; 'I' for Inactive)
REMARK    1  A    between atoms: C_3  and  N_4 
REMARK    2  A    between atoms: C_5  and  S_6 
REMARK    3  A    between atoms: S_6  and  C_7 
REMARK    4  A    between atoms: C_7  and  C_8 
REMARK       I    between atoms: C_8  and  N_9 
REMARK    5  A    between atoms: N_9  and  C_10 
REMARK    6  A    between atoms: C_10  and  C_11 
REMARK    7  A    between atoms: C_11  and  C_12 
REMARK    8  A    between atoms: C_22  and  N_23 
ROOT
HETATM    1  N   UNL     1      28.192  48.807  38.801  1.00  0.00    -0.275 N 
HETATM    2  C   UNL     1      29.326  47.972  38.628  1.00  0.00     0.177 A 
HETATM    3  N   UNL     1      29.327  46.778  38.086  1.00  0.00    -0.204 NA
HETATM    4  C   UNL     1      28.115  46.388  37.631  1.00  0.00     0.162 A 
HETATM    5  C   UNL     1      26.916  47.045  37.681  1.00  0.00     0.081 A 
HETATM    6  C   UNL     1      26.909  48.335  38.306  1.00  0.00     0.124 A 
HETATM    7  N   UNL     1      27.852  45.213  36.995  1.00  0.00    -0.260 N 
HETATM    8  H   UNL     1      28.505  44.471  36.769  1.00  0.00     0.191 HD
HETATM    9  N   UNL     1      26.554  45.078  36.645  1.00  0.00    -0.177 NA
HETATM   10  C   UNL     1      25.972  46.214  37.060  1.00  0.00     0.068 A 
HETATM   11  C   UNL     1      24.524  46.420  36.825  1.00  0.00     0.073 C 
ENDROOT
BRANCH   2  12
HETATM   12  S   UNL     1      30.906  48.518  39.228  1.00  0.00    -0.082 SA
BRANCH  12  13
HETATM   13  C   UNL     1      30.954  47.696  40.840  1.00  0.00     0.185 C 
BRANCH  13  14
HETATM   14  C   UNL     1      32.302  47.840  41.536  1.00  0.00     0.227 C 
HETATM   15  N   UNL     1      32.400  48.799  42.517  1.00  0.00    -0.360 N 
HETATM   16  H   UNL     1      33.331  48.887  42.914  1.00  0.00     0.162 HD
HETATM   17  O   UNL     1      33.286  47.140  41.293  1.00  0.00    -0.273 OA
BRANCH  15  18
HETATM   18  C   UNL     1      31.382  49.779  42.859  1.00  0.00     0.127 C 
BRANCH  18  19
HETATM   19  C   UNL     1      31.924  51.206  42.949  1.00  0.00     0.058 C 
BRANCH  19  20
HETATM   20  C   UNL     1      32.647  51.583  41.679  1.00  0.00    -0.057 A 
HETATM   21  C   UNL     1      31.929  51.971  40.540  1.00  0.00     0.007 A 
HETATM   22  C   UNL     1      32.598  52.273  39.352  1.00  0.00     0.001 A 
HETATM   23  C   UNL     1      33.987  52.186  39.290  1.00  0.00     0.000 A 
HETATM   24  C   UNL     1      34.711  51.803  40.416  1.00  0.00     0.001 A 
HETATM   25  C   UNL     1      34.045  51.503  41.606  1.00  0.00     0.007 A 
ENDBRANCH  19  20
ENDBRANCH  18  19
ENDBRANCH  15  18
ENDBRANCH  13  14
ENDBRANCH  12  13
ENDBRANCH   2  12
BRANCH   1  26
HETATM   26  C   UNL     1      28.300  50.104  39.388  1.00  0.00     0.051 A 
HETATM   27  C   UNL     1      28.092  50.318  40.769  1.00  0.00    -0.035 A 
HETATM   28  C   UNL     1      27.854  49.191  41.739  1.00  0.00     0.050 C 
HETATM   29  C   UNL     1      28.168  51.626  41.276  1.00  0.00     0.011 A 
HETATM   30  C   UNL     1      28.401  52.710  40.428  1.00  0.00     0.024 A 
HETATM   31  C   UNL     1      28.580  52.495  39.067  1.00  0.00     0.036 A 
HETATM   32  C   UNL     1      28.534  51.205  38.544  1.00  0.00     0.054 A 
HETATM   33 CL   UNL     1      28.837  53.831  38.016  1.00  0.00    -0.084 Cl
ENDBRANCH   1  26
BRANCH   6  34
HETATM   34  N   UNL     1      25.793  49.025  38.440  1.00  0.00    -0.384 N 
HETATM   35  H   UNL     1      25.792  50.033  38.485  1.00  0.00     0.157 HD
HETATM   36  H   UNL     1      24.907  48.541  38.492  1.00  0.00     0.157 HD
ENDBRANCH   6  34
TORSDOF 8
ENDMDL
MODEL 5
REMARK VINA RESULT:      -8.2     12.756     14.886
REMARK  8 active torsions:
REMARK  status: ('A' for Active; 'I' for Inactive)
REMARK    1  A    between atoms: C_3  and  N_4 
REMARK    2  A    between atoms: C_5  and  S_6 
REMARK    3  A    between atoms: S_6  and  C_7 
REMARK    4  A    between atoms: C_7  and  C_8 
REMARK       I    between atoms: C_8  and  N_9 
REMARK    5  A    between atoms: N_9  and  C_10 
REMARK    6  A    between atoms: C_10  and  C_11 
REMARK    7  A    between atoms: C_11  and  C_12 
REMARK    8  A    between atoms: C_22  and  N_23 
ROOT
HETATM    1  N   UNL     1      28.554  49.286  39.636  1.00  0.00    -0.275 N 
HETATM    2  C   UNL     1      28.469  50.316  38.662  1.00  0.00     0.177 A 
HETATM    3  N   UNL     1      27.375  50.725  38.068  1.00  0.00    -0.204 NA
HETATM    4  C   UNL     1      26.257  50.100  38.502  1.00  0.00     0.162 A 
HETATM    5  C   UNL     1      26.122  49.109  39.435  1.00  0.00     0.081 A 
HETATM    6  C   UNL     1      27.324  48.637  40.057  1.00  0.00     0.124 A 
HETATM    7  N   UNL     1      24.990  50.365  38.076  1.00  0.00    -0.260 N 
HETATM    8  H   UNL     1      24.698  51.051  37.390  1.00  0.00     0.191 HD
HETATM    9  N   UNL     1      24.057  49.592  38.676  1.00  0.00    -0.177 NA
HETATM   10  C   UNL     1      24.753  48.820  39.525  1.00  0.00     0.068 A 
HETATM   11  C   UNL     1      24.035  47.840  40.374  1.00  0.00     0.073 C 
ENDROOT
BRANCH   2  12
HETATM   12  S   UNL     1      29.956  51.124  38.121  1.00  0.00    -0.082 SA
BRANCH  12  13
HETATM   13  C   UNL     1      29.705  52.781  38.806  1.00  0.00     0.185 C 
BRANCH  13  14
HETATM   14  C   UNL     1      29.957  52.843  40.309  1.00  0.00     0.227 C 
HETATM   15  N   UNL     1      31.265  52.954  40.718  1.00  0.00    -0.360 N 
HETATM   16  H   UNL     1      31.381  52.942  41.727  1.00  0.00     0.162 HD
HETATM   17  O   UNL     1      29.069  52.827  41.162  1.00  0.00    -0.273 OA
BRANCH  15  18
HETATM   18  C   UNL     1      32.438  52.881  39.863  1.00  0.00     0.127 C 
BRANCH  18  19
HETATM   19  C   UNL     1      33.096  51.501  39.858  1.00  0.00     0.058 C 
BRANCH  19  20
HETATM   20  C   UNL     1      34.480  51.568  40.458  1.00  0.00    -0.057 A 
HETATM   21  C   UNL     1      34.827  50.752  41.543  1.00  0.00     0.007 A 
HETATM   22  C   UNL     1      36.092  50.849  42.126  1.00  0.00     0.001 A 
HETATM   23  C   UNL     1      37.019  51.766  41.634  1.00  0.00     0.000 A 
HETATM   24  C   UNL     1      36.686  52.582  40.556  1.00  0.00     0.001 A 
HETATM   25  C   UNL     1      35.423  52.484  39.969  1.00  0.00     0.007 A 
ENDBRANCH  19  20
ENDBRANCH  18  19
ENDBRANCH  15  18
ENDBRANCH  13  14
ENDBRANCH  12  13
ENDBRANCH   2  12
BRANCH   1  26
HETATM   26  C   UNL     1      29.798  48.927  40.239  1.00  0.00     0.051 A 
HETATM   27  C   UNL     1      30.561  47.831  39.780  1.00  0.00    -0.035 A 
HETATM   28  C   UNL     1      30.184  47.032  38.560  1.00  0.00     0.050 C 
HETATM   29  C   UNL     1      31.753  47.503  40.446  1.00  0.00     0.011 A 
HETATM   30  C   UNL     1      32.163  48.215  41.574  1.00  0.00     0.024 A 
HETATM   31  C   UNL     1      31.394  49.278  42.035  1.00  0.00     0.036 A 
HETATM   32  C   UNL     1      30.221  49.639  41.376  1.00  0.00     0.054 A 
HETATM   33 CL   UNL     1      31.880  50.139  43.442  1.00  0.00    -0.084 Cl
ENDBRANCH   1  26
BRANCH   6  34
HETATM   34  N   UNL     1      27.300  47.654  40.937  1.00  0.00    -0.384 N 
HETATM   35  H   UNL     1      26.537  46.994  40.979  1.00  0.00     0.157 HD
HETATM   36  H   UNL     1      28.066  47.545  41.588  1.00  0.00     0.157 HD
ENDBRANCH   6  34
TORSDOF 8
ENDMDL
MODEL 6
REMARK VINA RESULT:      -8.1     12.940     14.211
REMARK  8 active torsions:
REMARK  status: ('A' for Active; 'I' for Inactive)
REMARK    1  A    between atoms: C_3  and  N_4 
REMARK    2  A    between atoms: C_5  and  S_6 
REMARK    3  A    between atoms: S_6  and  C_7 
REMARK    4  A    between atoms: C_7  and  C_8 
REMARK       I    between atoms: C_8  and  N_9 
REMARK    5  A    between atoms: N_9  and  C_10 
REMARK    6  A    between atoms: C_10  and  C_11 
REMARK    7  A    between atoms: C_11  and  C_12 
REMARK    8  A    between atoms: C_22  and  N_23 
ROOT
HETATM    1  N   UNL     1      28.707  50.149  39.881  1.00  0.00    -0.275 N 
HETATM    2  C   UNL     1      29.433  49.081  39.292  1.00  0.00     0.177 A 
HETATM    3  N   UNL     1      28.920  47.975  38.811  1.00  0.00    -0.204 NA
HETATM    4  C   UNL     1      27.569  47.934  38.869  1.00  0.00     0.162 A 
HETATM    5  C   UNL     1      26.693  48.856  39.372  1.00  0.00     0.081 A 
HETATM    6  C   UNL     1      27.258  50.048  39.931  1.00  0.00     0.124 A 
HETATM    7  N   UNL     1      26.791  46.918  38.403  1.00  0.00    -0.260 N 
HETATM    8  H   UNL     1      27.093  46.062  37.952  1.00  0.00     0.191 HD
HETATM    9  N   UNL     1      25.469  47.135  38.588  1.00  0.00    -0.177 NA
HETATM   10  C   UNL     1      25.404  48.338  39.180  1.00  0.00     0.068 A 
HETATM   11  C   UNL     1      24.082  48.910  39.524  1.00  0.00     0.073 C 
ENDROOT
BRANCH   2  12
HETATM   12  S   UNL     1      31.205  49.170  39.222  1.00  0.00    -0.082 SA
BRANCH  12  13
HETATM   13  C   UNL     1      31.653  47.914  40.446  1.00  0.00     0.185 C 
BRANCH  13  14
HETATM   14  C   UNL     1      31.720  48.469  41.864  1.00  0.00     0.227 C 
HETATM   15  N   UNL     1      32.864  49.146  42.217  1.00  0.00    -0.360 N 
HETATM   16  H   UNL     1      32.878  49.451  43.185  1.00  0.00     0.162 HD
HETATM   17  O   UNL     1      30.812  48.371  42.691  1.00  0.00    -0.273 OA
BRANCH  15  18
HETATM   18  C   UNL     1      34.069  49.265  41.413  1.00  0.00     0.127 C 
BRANCH  18  19
HETATM   19  C   UNL     1      34.505  50.714  41.190  1.00  0.00     0.058 C 
BRANCH  19  20
HETATM   20  C   UNL     1      35.515  51.133  42.231  1.00  0.00    -0.057 A 
HETATM   21  C   UNL     1      35.160  52.030  43.247  1.00  0.00     0.007 A 
HETATM   22  C   UNL     1      36.109  52.453  44.180  1.00  0.00     0.001 A 
HETATM   23  C   UNL     1      37.420  51.989  44.103  1.00  0.00     0.000 A 
HETATM   24  C   UNL     1      37.785  51.096  43.098  1.00  0.00     0.001 A 
HETATM   25  C   UNL     1      36.837  50.668  42.166  1.00  0.00     0.007 A 
ENDBRANCH  19  20
ENDBRANCH  18  19
ENDBRANCH  15  18
ENDBRANCH  13  14
ENDBRANCH  12  13
ENDBRANCH   2  12
BRANCH   1  26
HETATM   26  C   UNL     1      29.362  51.324  40.361  1.00  0.00     0.051 A 
HETATM   27  C   UNL     1      29.475  52.490  39.573  1.00  0.00    -0.035 A 
HETATM   28  C   UNL     1      28.823  52.624  38.222  1.00  0.00     0.050 C 
HETATM   29  C   UNL     1      30.171  53.596  40.087  1.00  0.00     0.011 A 
HETATM   30  C   UNL     1      30.784  53.538  41.340  1.00  0.00     0.024 A 
HETATM   31  C   UNL     1      30.690  52.378  42.100  1.00  0.00     0.036 A 
HETATM   32  C   UNL     1      29.982  51.277  41.622  1.00  0.00     0.054 A 
HETATM   33 CL   UNL     1      31.469  52.292  43.630  1.00  0.00    -0.084 Cl
ENDBRANCH   1  26
BRANCH   6  34
HETATM   34  N   UNL     1      26.496  50.976  40.479  1.00  0.00    -0.384 N 
HETATM   35  H   UNL     1      26.690  51.354  41.394  1.00  0.00     0.157 HD
HETATM   36  H   UNL     1      25.695  51.331  39.973  1.00  0.00     0.157 HD
ENDBRANCH   6  34
TORSDOF 8
ENDMDL
MODEL 7
REMARK VINA RESULT:      -8.0      4.836      7.597
REMARK  8 active torsions:
REMARK  status: ('A' for Active; 'I' for Inactive)
REMARK    1  A    between atoms: C_3  and  N_4 
REMARK    2  A    between atoms: C_5  and  S_6 
REMARK    3  A    between atoms: S_6  and  C_7 
REMARK    4  A    between atoms: C_7  and  C_8 
REMARK       I    between atoms: C_8  and  N_9 
REMARK    5  A    between atoms: N_9  and  C_10 
REMARK    6  A    between atoms: C_10  and  C_11 
REMARK    7  A    between atoms: C_11  and  C_12 
REMARK    8  A    between atoms: C_22  and  N_23 
ROOT
HETATM    1  N   UNL     1      21.151  47.060  47.412  1.00  0.00    -0.275 N 
HETATM    2  C   UNL     1      22.277  46.731  48.212  1.00  0.00     0.177 A 
HETATM    3  N   UNL     1      22.905  47.543  49.027  1.00  0.00    -0.204 NA
HETATM    4  C   UNL     1      22.349  48.774  49.101  1.00  0.00     0.162 A 
HETATM    5  C   UNL     1      21.264  49.278  48.438  1.00  0.00     0.081 A 
HETATM    6  C   UNL     1      20.601  48.401  47.519  1.00  0.00     0.124 A 
HETATM    7  N   UNL     1      22.783  49.788  49.900  1.00  0.00    -0.260 N 
HETATM    8  H   UNL     1      23.565  49.778  50.545  1.00  0.00     0.191 HD
HETATM    9  N   UNL     1      22.044  50.913  49.777  1.00  0.00    -0.177 NA
HETATM   10  C   UNL     1      21.097  50.599  48.879  1.00  0.00     0.068 A 
HETATM   11  C   UNL     1      20.083  51.612  48.504  1.00  0.00     0.073 C 
ENDROOT
BRANCH   2  12
HETATM   12  S   UNL     1      22.976  45.102  48.099  1.00  0.00    -0.082 SA
BRANCH  12  13
HETATM   13  C   UNL     1      24.271  45.206  49.359  1.00  0.00     0.185 C 
BRANCH  13  14
HETATM   14  C   UNL     1      23.976  44.344  50.582  1.00  0.00     0.227 C 
HETATM   15  N   UNL     1      24.967  44.243  51.530  1.00  0.00    -0.360 N 
HETATM   16  H   UNL     1      24.738  43.620  52.297  1.00  0.00     0.162 HD
HETATM   17  O   UNL     1      22.908  43.763  50.779  1.00  0.00    -0.273 OA
BRANCH  15  18
HETATM   18  C   UNL     1      26.317  44.769  51.414  1.00  0.00     0.127 C 
BRANCH  18  19
HETATM   19  C   UNL     1      27.383  43.678  51.307  1.00  0.00     0.058 C 
BRANCH  19  20
HETATM   20  C   UNL     1      28.291  43.698  52.513  1.00  0.00    -0.057 A 
HETATM   21  C   UNL     1      29.447  42.908  52.547  1.00  0.00     0.007 A 
HETATM   22  C   UNL     1      30.260  42.892  53.683  1.00  0.00     0.001 A 
HETATM   23  C   UNL     1      29.921  43.660  54.795  1.00  0.00     0.000 A 
HETATM   24  C   UNL     1      28.774  44.450  54.772  1.00  0.00     0.001 A 
HETATM   25  C   UNL     1      27.962  44.471  53.637  1.00  0.00     0.007 A 
ENDBRANCH  19  20
ENDBRANCH  18  19
ENDBRANCH  15  18
ENDBRANCH  13  14
ENDBRANCH  12  13
ENDBRANCH   2  12
BRANCH   1  26
HETATM   26  C   UNL     1      20.526  46.094  46.566  1.00  0.00     0.051 A 
HETATM   27  C   UNL     1      19.522  45.223  47.042  1.00  0.00    -0.035 A 
HETATM   28  C   UNL     1      18.957  45.318  48.435  1.00  0.00     0.050 C 
HETATM   29  C   UNL     1      18.980  44.264  46.170  1.00  0.00     0.011 A 
HETATM   30  C   UNL     1      19.453  44.136  44.863  1.00  0.00     0.024 A 
HETATM   31  C   UNL     1      20.459  44.981  44.408  1.00  0.00     0.036 A 
HETATM   32  C   UNL     1      20.994  45.956  45.247  1.00  0.00     0.054 A 
HETATM   33 CL   UNL     1      21.064  44.807  42.808  1.00  0.00    -0.084 Cl
ENDBRANCH   1  26
BRANCH   6  34
HETATM   34  N   UNL     1      19.573  48.811  46.801  1.00  0.00    -0.384 N 
HETATM   35  H   UNL     1      19.694  49.329  45.943  1.00  0.00     0.157 HD
HETATM   36  H   UNL     1      18.632  48.599  47.106  1.00  0.00     0.157 HD
ENDBRANCH   6  34
TORSDOF 8
ENDMDL
MODEL 8
REMARK VINA RESULT:      -7.9      4.666      8.107
REMARK  8 active torsions:
REMARK  status: ('A' for Active; 'I' for Inactive)
REMARK    1  A    between atoms: C_3  and  N_4 
REMARK    2  A    between atoms: C_5  and  S_6 
REMARK    3  A    between atoms: S_6  and  C_7 
REMARK    4  A    between atoms: C_7  and  C_8 
REMARK       I    between atoms: C_8  and  N_9 
REMARK    5  A    between atoms: N_9  and  C_10 
REMARK    6  A    between atoms: C_10  and  C_11 
REMARK    7  A    between atoms: C_11  and  C_12 
REMARK    8  A    between atoms: C_22  and  N_23 
ROOT
HETATM    1  N   UNL     1      22.270  48.423  49.139  1.00  0.00    -0.275 N 
HETATM    2  C   UNL     1      21.669  47.298  48.517  1.00  0.00     0.177 A 
HETATM    3  N   UNL     1      20.386  47.129  48.305  1.00  0.00    -0.204 NA
HETATM    4  C   UNL     1      19.630  48.180  48.695  1.00  0.00     0.162 A 
HETATM    5  C   UNL     1      20.011  49.353  49.287  1.00  0.00     0.081 A 
HETATM    6  C   UNL     1      21.409  49.520  49.553  1.00  0.00     0.124 A 
HETATM    7  N   UNL     1      18.278  48.275  48.552  1.00  0.00    -0.260 N 
HETATM    8  H   UNL     1      17.649  47.594  48.142  1.00  0.00     0.191 HD
HETATM    9  N   UNL     1      17.775  49.436  49.028  1.00  0.00    -0.177 NA
HETATM   10  C   UNL     1      18.846  50.110  49.476  1.00  0.00     0.068 A 
HETATM   11  C   UNL     1      18.665  51.457  50.065  1.00  0.00     0.073 C 
ENDROOT
BRANCH   2  12
HETATM   12  S   UNL     1      22.692  45.938  48.007  1.00  0.00    -0.082 SA
BRANCH  12  13
HETATM   13  C   UNL     1      22.378  44.762  49.346  1.00  0.00     0.185 C 
BRANCH  13  14
HETATM   14  C   UNL     1      22.757  43.332  48.978  1.00  0.00     0.227 C 
HETATM   15  N   UNL     1      23.797  42.762  49.674  1.00  0.00    -0.360 N 
HETATM   16  H   UNL     1      24.040  41.829  49.357  1.00  0.00     0.162 HD
HETATM   17  O   UNL     1      22.178  42.660  48.124  1.00  0.00    -0.273 OA
BRANCH  15  18
HETATM   18  C   UNL     1      24.656  43.438  50.633  1.00  0.00     0.127 C 
BRANCH  18  19
HETATM   19  C   UNL     1      25.866  42.603  51.052  1.00  0.00     0.058 C 
BRANCH  19  20
HETATM   20  C   UNL     1      26.596  43.259  52.199  1.00  0.00    -0.057 A 
HETATM   21  C   UNL     1      27.994  43.348  52.196  1.00  0.00     0.007 A 
HETATM   22  C   UNL     1      28.670  43.912  53.280  1.00  0.00     0.001 A 
HETATM   23  C   UNL     1      27.955  44.387  54.378  1.00  0.00     0.000 A 
HETATM   24  C   UNL     1      26.565  44.304  54.392  1.00  0.00     0.001 A 
HETATM   25  C   UNL     1      25.887  43.744  53.308  1.00  0.00     0.007 A 
ENDBRANCH  19  20
ENDBRANCH  18  19
ENDBRANCH  15  18
ENDBRANCH  13  14
ENDBRANCH  12  13
ENDBRANCH   2  12
BRANCH   1  26
HETATM   26  C   UNL     1      23.684  48.519  49.308  1.00  0.00     0.051 A 
HETATM   27  C   UNL     1      24.478  49.360  48.497  1.00  0.00    -0.035 A 
HETATM   28  C   UNL     1      23.887  50.298  47.477  1.00  0.00     0.050 C 
HETATM   29  C   UNL     1      25.869  49.373  48.684  1.00  0.00     0.011 A 
HETATM   30  C   UNL     1      26.474  48.538  49.624  1.00  0.00     0.024 A 
HETATM   31  C   UNL     1      25.690  47.694  50.402  1.00  0.00     0.036 A 
HETATM   32  C   UNL     1      24.305  47.682  50.253  1.00  0.00     0.054 A 
HETATM   33 CL   UNL     1      26.433  46.642  51.540  1.00  0.00    -0.084 Cl
ENDBRANCH   1  26
BRANCH   6  34
HETATM   34  N   UNL     1      21.868  50.598  50.160  1.00  0.00    -0.384 N 
HETATM   35  H   UNL     1      21.745  51.521  49.773  1.00  0.00     0.157 HD
HETATM   36  H   UNL     1      22.351  50.508  51.044  1.00  0.00     0.157 HD
ENDBRANCH   6  34
TORSDOF 8
ENDMDL
MODEL 9
REMARK VINA RESULT:      -7.9     11.855     13.292
REMARK  8 active torsions:
REMARK  status: ('A' for Active; 'I' for Inactive)
REMARK    1  A    between atoms: C_3  and  N_4 
REMARK    2  A    between atoms: C_5  and  S_6 
REMARK    3  A    between atoms: S_6  and  C_7 
REMARK    4  A    between atoms: C_7  and  C_8 
REMARK       I    between atoms: C_8  and  N_9 
REMARK    5  A    between atoms: N_9  and  C_10 
REMARK    6  A    between atoms: C_10  and  C_11 
REMARK    7  A    between atoms: C_11  and  C_12 
REMARK    8  A    between atoms: C_22  and  N_23 
ROOT
HETATM    1  N   UNL     1      28.421  48.613  40.377  1.00  0.00    -0.275 N 
HETATM    2  C   UNL     1      29.481  47.755  39.982  1.00  0.00     0.177 A 
HETATM    3  N   UNL     1      29.447  46.444  39.974  1.00  0.00    -0.204 NA
HETATM    4  C   UNL     1      28.252  45.930  40.340  1.00  0.00     0.162 A 
HETATM    5  C   UNL     1      27.111  46.577  40.731  1.00  0.00     0.081 A 
HETATM    6  C   UNL     1      27.161  48.008  40.775  1.00  0.00     0.124 A 
HETATM    7  N   UNL     1      27.941  44.605  40.379  1.00  0.00    -0.260 N 
HETATM    8  H   UNL     1      28.540  43.821  40.144  1.00  0.00     0.191 HD
HETATM    9  N   UNL     1      26.673  44.368  40.781  1.00  0.00    -0.177 NA
HETATM   10  C   UNL     1      26.152  45.587  40.992  1.00  0.00     0.068 A 
HETATM   11  C   UNL     1      24.745  45.712  41.439  1.00  0.00     0.073 C 
ENDROOT
BRANCH   2  12
HETATM   12  S   UNL     1      31.036  48.462  39.496  1.00  0.00    -0.082 SA
BRANCH  12  13
HETATM   13  C   UNL     1      32.115  47.829  40.804  1.00  0.00     0.185 C 
BRANCH  13  14
HETATM   14  C   UNL     1      31.959  48.588  42.117  1.00  0.00     0.227 C 
HETATM   15  N   UNL     1      32.884  49.570  42.384  1.00  0.00    -0.360 N 
HETATM   16  H   UNL     1      32.763  50.010  43.291  1.00  0.00     0.162 HD
HETATM   17  O   UNL     1      31.051  48.394  42.926  1.00  0.00    -0.273 OA
BRANCH  15  18
HETATM   18  C   UNL     1      34.073  49.862  41.601  1.00  0.00     0.127 C 
BRANCH  18  19
HETATM   19  C   UNL     1      34.525  51.318  41.709  1.00  0.00     0.058 C 
BRANCH  19  20
HETATM   20  C   UNL     1      35.779  51.427  42.542  1.00  0.00    -0.057 A 
HETATM   21  C   UNL     1      36.876  50.594  42.290  1.00  0.00     0.007 A 
HETATM   22  C   UNL     1      38.017  50.664  43.093  1.00  0.00     0.001 A 
HETATM   23  C   UNL     1      38.068  51.563  44.156  1.00  0.00     0.000 A 
HETATM   24  C   UNL     1      36.984  52.397  44.415  1.00  0.00     0.001 A 
HETATM   25  C   UNL     1      35.844  52.332  43.612  1.00  0.00     0.007 A 
ENDBRANCH  19  20
ENDBRANCH  18  19
ENDBRANCH  15  18
ENDBRANCH  13  14
ENDBRANCH  12  13
ENDBRANCH   2  12
BRANCH   1  26
HETATM   26  C   UNL     1      28.553  50.034  40.332  1.00  0.00     0.051 A 
HETATM   27  C   UNL     1      28.116  50.790  39.221  1.00  0.00    -0.035 A 
HETATM   28  C   UNL     1      27.382  50.175  38.059  1.00  0.00     0.050 C 
HETATM   29  C   UNL     1      28.316  52.179  39.220  1.00  0.00     0.011 A 
HETATM   30  C   UNL     1      28.977  52.809  40.277  1.00  0.00     0.024 A 
HETATM   31  C   UNL     1      29.427  52.056  41.355  1.00  0.00     0.036 A 
HETATM   32  C   UNL     1      29.217  50.679  41.391  1.00  0.00     0.054 A 
HETATM   33 CL   UNL     1      30.267  52.823  42.644  1.00  0.00    -0.084 Cl
ENDBRANCH   1  26
BRANCH   6  34
HETATM   34  N   UNL     1      26.125  48.718  41.182  1.00  0.00    -0.384 N 
HETATM   35  H   UNL     1      25.220  48.640  40.743  1.00  0.00     0.157 HD
HETATM   36  H   UNL     1      26.229  49.356  41.960  1.00  0.00     0.157 HD
ENDBRANCH   6  34
TORSDOF 8
ENDMDL
MODEL 10
REMARK VINA RESULT:      -7.7      3.862      5.751
REMARK  8 active torsions:
REMARK  status: ('A' for Active; 'I' for Inactive)
REMARK    1  A    between atoms: C_3  and  N_4 
REMARK    2  A    between atoms: C_5  and  S_6 
REMARK    3  A    between atoms: S_6  and  C_7 
REMARK    4  A    between atoms: C_7  and  C_8 
REMARK       I    between atoms: C_8  and  N_9 
REMARK    5  A    between atoms: N_9  and  C_10 
REMARK    6  A    between atoms: C_10  and  C_11 
REMARK    7  A    between atoms: C_11  and  C_12 
REMARK    8  A    between atoms: C_22  and  N_23 
ROOT
HETATM    1  N   UNL     1      21.965  45.700  47.278  1.00  0.00    -0.275 N 
HETATM    2  C   UNL     1      22.899  44.817  47.882  1.00  0.00     0.177 A 
HETATM    3  N   UNL     1      23.586  43.885  47.267  1.00  0.00    -0.204 NA
HETATM    4  C   UNL     1      23.374  43.847  45.932  1.00  0.00     0.162 A 
HETATM    5  C   UNL     1      22.542  44.614  45.162  1.00  0.00     0.081 A 
HETATM    6  C   UNL     1      21.764  45.607  45.841  1.00  0.00     0.124 A 
HETATM    7  N   UNL     1      23.990  43.002  45.060  1.00  0.00    -0.260 N 
HETATM    8  H   UNL     1      24.684  42.292  45.269  1.00  0.00     0.191 HD
HETATM    9  N   UNL     1      23.592  43.178  43.780  1.00  0.00    -0.177 NA
HETATM   10  C   UNL     1      22.703  44.181  43.837  1.00  0.00     0.068 A 
HETATM   11  C   UNL     1      22.059  44.657  42.591  1.00  0.00     0.073 C 
ENDROOT
BRANCH   2  12
HETATM   12  S   UNL     1      23.162  44.900  49.636  1.00  0.00    -0.082 SA
BRANCH  12  13
HETATM   13  C   UNL     1      24.805  45.657  49.693  1.00  0.00     0.185 C 
BRANCH  13  14
HETATM   14  C   UNL     1      24.895  46.797  50.701  1.00  0.00     0.227 C 
HETATM   15  N   UNL     1      25.522  46.528  51.895  1.00  0.00    -0.360 N 
HETATM   16  H   UNL     1      25.511  47.305  52.548  1.00  0.00     0.162 HD
HETATM   17  O   UNL     1      24.469  47.935  50.500  1.00  0.00    -0.273 OA
BRANCH  15  18
HETATM   18  C   UNL     1      25.986  45.225  52.342  1.00  0.00     0.127 C 
BRANCH  18  19
HETATM   19  C   UNL     1      26.666  45.263  53.710  1.00  0.00     0.058 C 
BRANCH  19  20
HETATM   20  C   UNL     1      27.952  44.472  53.690  1.00  0.00    -0.057 A 
HETATM   21  C   UNL     1      28.332  43.760  52.545  1.00  0.00     0.007 A 
HETATM   22  C   UNL     1      29.498  42.990  52.545  1.00  0.00     0.001 A 
HETATM   23  C   UNL     1      30.288  42.920  53.690  1.00  0.00     0.000 A 
HETATM   24  C   UNL     1      29.920  43.623  54.835  1.00  0.00     0.001 A 
HETATM   25  C   UNL     1      28.758  44.397  54.836  1.00  0.00     0.007 A 
ENDBRANCH  19  20
ENDBRANCH  18  19
ENDBRANCH  15  18
ENDBRANCH  13  14
ENDBRANCH  12  13
ENDBRANCH   2  12
BRANCH   1  26
HETATM   26  C   UNL     1      21.279  46.696  48.035  1.00  0.00     0.051 A 
HETATM   27  C   UNL     1      19.965  46.497  48.514  1.00  0.00    -0.035 A 
HETATM   28  C   UNL     1      19.235  45.189  48.363  1.00  0.00     0.050 C 
HETATM   29  C   UNL     1      19.330  47.536  49.214  1.00  0.00     0.011 A 
HETATM   30  C   UNL     1      19.961  48.767  49.400  1.00  0.00     0.024 A 
HETATM   31  C   UNL     1      21.245  48.964  48.904  1.00  0.00     0.036 A 
HETATM   32  C   UNL     1      21.906  47.940  48.229  1.00  0.00     0.054 A 
HETATM   33 CL   UNL     1      22.014  50.488  49.105  1.00  0.00    -0.084 Cl
ENDBRANCH   1  26
BRANCH   6  34
HETATM   34  N   UNL     1      20.902  46.365  45.190  1.00  0.00    -0.384 N 
HETATM   35  H   UNL     1      20.013  46.624  45.589  1.00  0.00     0.157 HD
HETATM   36  H   UNL     1      21.133  46.709  44.267  1.00  0.00     0.157 HD
ENDBRANCH   6  34
TORSDOF 8
ENDMDL
