MODEL 1
REMARK VINA RESULT:      -8.9      0.000      0.000
REMARK  6 active torsions:
REMARK  status: ('A' for Active; 'I' for Inactive)
REMARK    1  A    between atoms: C_2  and  N_3 
REMARK    2  A    between atoms: N_3  and  C_5 
REMARK    3  A    between atoms: N_3  and  C_17 
REMARK    4  A    between atoms: C_5  and  C_6 
REMARK       I    between atoms: C_6  and  N_7 
REMARK    5  A    between atoms: N_7  and  C_8 
REMARK    6  A    between atoms: C_17  and  C_18 
ROOT
HETATM    1  N   UNL     1      26.110  45.687  51.979  1.00  0.00    -0.059 N 
HETATM    2  H   UNL     1      27.029  46.135  51.882  1.00  0.00     0.280 HD
ENDROOT
BRANCH   1   3
HETATM    3  C   UNL     1      25.352  46.436  53.069  1.00  0.00     0.231 C 
HETATM    4  C   UNL     1      26.164  47.600  53.601  1.00  0.00     0.034 C 
ENDBRANCH   1   3
BRANCH   1   5
HETATM    5  C   UNL     1      26.423  44.222  52.337  1.00  0.00     0.337 C 
BRANCH   5   6
HETATM    6  C   UNL     1      27.158  44.032  53.666  1.00  0.00     0.248 C 
HETATM    7  N   UNL     1      28.418  44.606  53.708  1.00  0.00    -0.325 N 
HETATM    8  H   UNL     1      28.867  44.847  52.838  1.00  0.00     0.169 HD
HETATM    9  O   UNL     1      26.661  43.324  54.537  1.00  0.00    -0.271 OA
BRANCH   7  10
HETATM   10  C   UNL     1      29.301  44.478  54.811  1.00  0.00     0.046 A 
HETATM   11  C   UNL     1      30.293  43.470  54.745  1.00  0.00    -0.035 A 
HETATM   12  C   UNL     1      30.391  42.500  53.598  1.00  0.00     0.050 C 
HETATM   13  C   UNL     1      31.189  43.317  55.814  1.00  0.00     0.009 A 
HETATM   14  C   UNL     1      31.116  44.146  56.928  1.00  0.00     0.001 A 
HETATM   15  C   UNL     1      30.158  45.154  56.977  1.00  0.00     0.009 A 
HETATM   16  C   UNL     1      29.257  45.353  55.916  1.00  0.00    -0.035 A 
HETATM   17  C   UNL     1      28.331  46.536  56.025  1.00  0.00     0.050 C 
ENDBRANCH   7  10
ENDBRANCH   5   6
ENDBRANCH   1   5
BRANCH   1  18
HETATM   18  C   UNL     1      25.422  45.829  50.636  1.00  0.00     0.276 C 
BRANCH  18  19
HETATM   19  C   UNL     1      25.655  47.131  49.911  1.00  0.00    -0.003 A 
HETATM   20  C   UNL     1      24.594  47.990  49.539  1.00  0.00     0.069 A 
HETATM   21  C   UNL     1      24.780  49.212  48.893  1.00  0.00     0.012 A 
HETATM   22  N   UNL     1      23.229  47.900  49.698  1.00  0.00    -0.277 N 
HETATM   23  C   UNL     1      23.481  49.733  48.707  1.00  0.00     0.152 A 
HETATM   24  C   UNL     1      26.078  49.645  48.589  1.00  0.00     0.015 A 
HETATM   25  N   UNL     1      22.537  48.925  49.190  1.00  0.00    -0.186 NA
HETATM   26  C   UNL     1      27.153  48.840  48.957  1.00  0.00     0.002 A 
HETATM   27  C   UNL     1      26.946  47.620  49.607  1.00  0.00     0.011 A 
HETATM   28  H   UNL     1      22.688  47.169  50.145  1.00  0.00     0.189 HD
ENDBRANCH  18  19
ENDBRANCH   1  18
TORSDOF 6
ENDMDL
MODEL 2
REMARK VINA RESULT:      -8.6      1.652      2.959
REMARK  6 active torsions:
REMARK  status: ('A' for Active; 'I' for Inactive)
REMARK    1  A    between atoms: C_2  and  N_3 
REMARK    2  A    between atoms: N_3  and  C_5 
REMARK    3  A    between atoms: N_3  and  C_17 
REMARK    4  A    between atoms: C_5  and  C_6 
REMARK       I    between atoms: C_6  and  N_7 
REMARK    5  A    between atoms: N_7  and  C_8 
REMARK    6  A    between atoms: C_17  and  C_18 
ROOT
HETATM    1  N   UNL     1      25.466  44.898  51.544  1.00  0.00    -0.059 N 
HETATM    2  H   UNL     1      24.525  44.997  51.143  1.00  0.00     0.280 HD
ENDROOT
BRANCH   1   3
HETATM    3  C   UNL     1      25.924  43.469  51.281  1.00  0.00     0.231 C 
HETATM    4  C   UNL     1      26.757  43.384  50.018  1.00  0.00     0.034 C 
ENDBRANCH   1   3
BRANCH   1   5
HETATM    5  C   UNL     1      25.290  45.227  53.040  1.00  0.00     0.337 C 
BRANCH   5   6
HETATM    6  C   UNL     1      26.355  44.619  53.957  1.00  0.00     0.248 C 
HETATM    7  N   UNL     1      27.622  45.153  53.790  1.00  0.00    -0.325 N 
HETATM    8  H   UNL     1      27.822  45.666  52.945  1.00  0.00     0.169 HD
HETATM    9  O   UNL     1      26.064  43.665  54.672  1.00  0.00    -0.271 OA
BRANCH   7  10
HETATM   10  C   UNL     1      28.768  44.678  54.477  1.00  0.00     0.046 A 
HETATM   11  C   UNL     1      29.125  45.323  55.686  1.00  0.00    -0.035 A 
HETATM   12  C   UNL     1      28.384  46.522  56.216  1.00  0.00     0.050 C 
HETATM   13  C   UNL     1      30.249  44.879  56.397  1.00  0.00     0.009 A 
HETATM   14  C   UNL     1      31.008  43.811  55.932  1.00  0.00     0.001 A 
HETATM   15  C   UNL     1      30.640  43.160  54.759  1.00  0.00     0.009 A 
HETATM   16  C   UNL     1      29.507  43.563  54.030  1.00  0.00    -0.035 A 
HETATM   17  C   UNL     1      29.137  42.726  52.834  1.00  0.00     0.050 C 
ENDBRANCH   7  10
ENDBRANCH   5   6
ENDBRANCH   1   5
BRANCH   1  18
HETATM   18  C   UNL     1      26.346  45.898  50.824  1.00  0.00     0.276 C 
BRANCH  18  19
HETATM   19  C   UNL     1      25.627  47.034  50.139  1.00  0.00    -0.003 A 
HETATM   20  C   UNL     1      26.317  48.117  49.544  1.00  0.00     0.069 A 
HETATM   21  C   UNL     1      25.682  49.167  48.881  1.00  0.00     0.012 A 
HETATM   22  N   UNL     1      27.658  48.416  49.437  1.00  0.00    -0.277 N 
HETATM   23  C   UNL     1      26.725  50.017  48.452  1.00  0.00     0.152 A 
HETATM   24  C   UNL     1      24.285  49.174  48.772  1.00  0.00     0.015 A 
HETATM   25  N   UNL     1      27.926  49.561  48.803  1.00  0.00    -0.186 NA
HETATM   26  C   UNL     1      23.567  48.116  49.325  1.00  0.00     0.002 A 
HETATM   27  C   UNL     1      24.222  47.071  49.984  1.00  0.00     0.011 A 
HETATM   28  H   UNL     1      28.454  47.888  49.772  1.00  0.00     0.189 HD
ENDBRANCH  18  19
ENDBRANCH   1  18
TORSDOF 6
ENDMDL
MODEL 3
REMARK VINA RESULT:      -8.5      1.353      2.624
REMARK  6 active torsions:
REMARK  status: ('A' for Active; 'I' for Inactive)
REMARK    1  A    between atoms: C_2  and  N_3 
REMARK    2  A    between atoms: N_3  and  C_5 
REMARK    3  A    between atoms: N_3  and  C_17 
REMARK    4  A    between atoms: C_5  and  C_6 
REMARK       I    between atoms: C_6  and  N_7 
REMARK    5  A    between atoms: N_7  and  C_8 
REMARK    6  A    between atoms: C_17  and  C_18 
ROOT
HETATM    1  N   UNL     1      24.872  45.318  50.756  1.00  0.00    -0.059 N 
HETATM    2  H   UNL     1      23.849  45.409  50.791  1.00  0.00     0.280 HD
ENDROOT
BRANCH   1   3
HETATM    3  C   UNL     1      25.254  45.036  49.308  1.00  0.00     0.231 C 
HETATM    4  C   UNL     1      24.108  44.389  48.554  1.00  0.00     0.034 C 
ENDBRANCH   1   3
BRANCH   1   5
HETATM    5  C   UNL     1      25.196  44.159  51.719  1.00  0.00     0.337 C 
BRANCH   5   6
HETATM    6  C   UNL     1      26.647  44.119  52.205  1.00  0.00     0.248 C 
HETATM    7  N   UNL     1      26.785  43.998  53.577  1.00  0.00    -0.325 N 
HETATM    8  H   UNL     1      25.994  44.217  54.163  1.00  0.00     0.169 HD
HETATM    9  O   UNL     1      27.559  44.299  51.402  1.00  0.00    -0.271 OA
BRANCH   7  10
HETATM   10  C   UNL     1      28.037  44.026  54.244  1.00  0.00     0.046 A 
HETATM   11  C   UNL     1      28.364  45.190  54.980  1.00  0.00    -0.035 A 
HETATM   12  C   UNL     1      27.476  46.405  55.016  1.00  0.00     0.050 C 
HETATM   13  C   UNL     1      29.591  45.253  55.659  1.00  0.00     0.009 A 
HETATM   14  C   UNL     1      30.480  44.185  55.620  1.00  0.00     0.001 A 
HETATM   15  C   UNL     1      30.144  43.031  54.919  1.00  0.00     0.009 A 
HETATM   16  C   UNL     1      28.915  42.922  54.246  1.00  0.00    -0.035 A 
HETATM   17  C   UNL     1      28.607  41.594  53.607  1.00  0.00     0.050 C 
ENDBRANCH   7  10
ENDBRANCH   5   6
ENDBRANCH   1   5
BRANCH   1  18
HETATM   18  C   UNL     1      25.436  46.644  51.224  1.00  0.00     0.276 C 
BRANCH  18  19
HETATM   19  C   UNL     1      25.578  47.709  50.165  1.00  0.00    -0.003 A 
HETATM   20  C   UNL     1      24.458  48.329  49.562  1.00  0.00     0.069 A 
HETATM   21  C   UNL     1      24.556  49.334  48.600  1.00  0.00     0.012 A 
HETATM   22  N   UNL     1      23.101  48.162  49.733  1.00  0.00    -0.277 N 
HETATM   23  C   UNL     1      23.223  49.662  48.270  1.00  0.00     0.152 A 
HETATM   24  C   UNL     1      25.820  49.784  48.194  1.00  0.00     0.015 A 
HETATM   25  N   UNL     1      22.339  48.936  48.954  1.00  0.00    -0.186 NA
HETATM   26  C   UNL     1      26.950  49.216  48.778  1.00  0.00     0.002 A 
HETATM   27  C   UNL     1      26.830  48.210  49.742  1.00  0.00     0.011 A 
HETATM   28  H   UNL     1      22.613  47.537  50.363  1.00  0.00     0.189 HD
ENDBRANCH  18  19
ENDBRANCH   1  18
TORSDOF 6
ENDMDL
MODEL 4
REMARK VINA RESULT:      -8.5      1.778      7.918
REMARK  6 active torsions:
REMARK  status: ('A' for Active; 'I' for Inactive)
REMARK    1  A    between atoms: C_2  and  N_3 
REMARK    2  A    between atoms: N_3  and  C_5 
REMARK    3  A    between atoms: N_3  and  C_17 
REMARK    4  A    between atoms: C_5  and  C_6 
REMARK       I    between atoms: C_6  and  N_7 
REMARK    5  A    between atoms: N_7  and  C_8 
REMARK    6  A    between atoms: C_17  and  C_18 
ROOT
HETATM    1  N   UNL     1      26.786  44.830  51.849  1.00  0.00    -0.059 N 
HETATM    2  H   UNL     1      27.295  45.648  52.206  1.00  0.00     0.280 HD
ENDROOT
BRANCH   1   3
HETATM    3  C   UNL     1      27.387  44.476  50.495  1.00  0.00     0.231 C 
HETATM    4  C   UNL     1      26.481  43.541  49.720  1.00  0.00     0.034 C 
ENDBRANCH   1   3
BRANCH   1   5
HETATM    5  C   UNL     1      25.316  45.285  51.775  1.00  0.00     0.337 C 
BRANCH   5   6
HETATM    6  C   UNL     1      25.115  46.720  51.279  1.00  0.00     0.248 C 
HETATM    7  N   UNL     1      25.065  46.845  49.901  1.00  0.00    -0.325 N 
HETATM    8  H   UNL     1      25.422  46.090  49.335  1.00  0.00     0.169 HD
HETATM    9  O   UNL     1      25.123  47.645  52.086  1.00  0.00    -0.271 OA
BRANCH   7  10
HETATM   10  C   UNL     1      24.969  48.090  49.230  1.00  0.00     0.046 A 
HETATM   11  C   UNL     1      26.176  48.752  48.897  1.00  0.00    -0.035 A 
HETATM   12  C   UNL     1      27.529  48.222  49.292  1.00  0.00     0.050 C 
HETATM   13  C   UNL     1      26.123  49.984  48.228  1.00  0.00     0.009 A 
HETATM   14  C   UNL     1      24.902  50.555  47.884  1.00  0.00     0.001 A 
HETATM   15  C   UNL     1      23.719  49.889  48.187  1.00  0.00     0.009 A 
HETATM   16  C   UNL     1      23.732  48.642  48.837  1.00  0.00    -0.035 A 
HETATM   17  C   UNL     1      22.403  47.960  49.023  1.00  0.00     0.050 C 
ENDBRANCH   7  10
ENDBRANCH   5   6
ENDBRANCH   1   5
BRANCH   1  18
HETATM   18  C   UNL     1      27.006  43.718  52.855  1.00  0.00     0.276 C 
BRANCH  18  19
HETATM   19  C   UNL     1      28.231  43.851  53.726  1.00  0.00    -0.003 A 
HETATM   20  C   UNL     1      28.355  44.864  54.706  1.00  0.00     0.069 A 
HETATM   21  C   UNL     1      29.462  44.995  55.544  1.00  0.00     0.012 A 
HETATM   22  N   UNL     1      27.518  45.887  55.094  1.00  0.00    -0.277 N 
HETATM   23  C   UNL     1      29.182  46.119  56.352  1.00  0.00     0.152 A 
HETATM   24  C   UNL     1      30.523  44.085  55.440  1.00  0.00     0.015 A 
HETATM   25  N   UNL     1      28.001  46.666  56.067  1.00  0.00    -0.186 NA
HETATM   26  C   UNL     1      30.432  43.059  54.502  1.00  0.00     0.002 A 
HETATM   27  C   UNL     1      29.312  42.942  53.673  1.00  0.00     0.011 A 
HETATM   28  H   UNL     1      26.598  46.122  54.743  1.00  0.00     0.189 HD
ENDBRANCH  18  19
ENDBRANCH   1  18
TORSDOF 6
ENDMDL
MODEL 5
REMARK VINA RESULT:      -8.1      2.075      4.075
REMARK  6 active torsions:
REMARK  status: ('A' for Active; 'I' for Inactive)
REMARK    1  A    between atoms: C_2  and  N_3 
REMARK    2  A    between atoms: N_3  and  C_5 
REMARK    3  A    between atoms: N_3  and  C_17 
REMARK    4  A    between atoms: C_5  and  C_6 
REMARK       I    between atoms: C_6  and  N_7 
REMARK    5  A    between atoms: N_7  and  C_8 
REMARK    6  A    between atoms: C_17  and  C_18 
ROOT
HETATM    1  N   UNL     1      28.113  42.193  51.916  1.00  0.00    -0.059 N 
HETATM    2  H   UNL     1      27.408  42.125  52.660  1.00  0.00     0.280 HD
ENDROOT
BRANCH   1   3
HETATM    3  C   UNL     1      28.333  40.789  51.368  1.00  0.00     0.231 C 
HETATM    4  C   UNL     1      28.062  40.733  49.877  1.00  0.00     0.034 C 
ENDBRANCH   1   3
BRANCH   1   5
HETATM    5  C   UNL     1      29.354  42.791  52.606  1.00  0.00     0.337 C 
BRANCH   5   6
HETATM    6  C   UNL     1      29.119  43.270  54.041  1.00  0.00     0.248 C 
HETATM    7  N   UNL     1      30.026  44.220  54.481  1.00  0.00    -0.325 N 
HETATM    8  H   UNL     1      30.895  44.325  53.979  1.00  0.00     0.169 HD
HETATM    9  O   UNL     1      28.253  42.731  54.724  1.00  0.00    -0.271 OA
BRANCH   7  10
HETATM   10  C   UNL     1      30.042  44.735  55.801  1.00  0.00     0.046 A 
HETATM   11  C   UNL     1      29.109  45.751  56.122  1.00  0.00    -0.035 A 
HETATM   12  C   UNL     1      28.170  46.342  55.104  1.00  0.00     0.050 C 
HETATM   13  C   UNL     1      29.089  46.282  57.420  1.00  0.00     0.009 A 
HETATM   14  C   UNL     1      29.968  45.818  58.392  1.00  0.00     0.001 A 
HETATM   15  C   UNL     1      30.865  44.800  58.083  1.00  0.00     0.009 A 
HETATM   16  C   UNL     1      30.899  44.227  56.799  1.00  0.00    -0.035 A 
HETATM   17  C   UNL     1      31.833  43.063  56.601  1.00  0.00     0.050 C 
ENDBRANCH   7  10
ENDBRANCH   5   6
ENDBRANCH   1   5
BRANCH   1  18
HETATM   18  C   UNL     1      27.531  43.110  50.859  1.00  0.00     0.276 C 
BRANCH  18  19
HETATM   19  C   UNL     1      26.779  44.313  51.373  1.00  0.00    -0.003 A 
HETATM   20  C   UNL     1      26.772  45.551  50.687  1.00  0.00     0.069 A 
HETATM   21  C   UNL     1      26.065  46.671  51.123  1.00  0.00     0.012 A 
HETATM   22  N   UNL     1      27.371  45.966  49.518  1.00  0.00    -0.277 N 
HETATM   23  C   UNL     1      26.333  47.672  50.163  1.00  0.00     0.152 A 
HETATM   24  C   UNL     1      25.302  46.597  52.296  1.00  0.00     0.015 A 
HETATM   25  N   UNL     1      27.139  47.242  49.194  1.00  0.00    -0.186 NA
HETATM   26  C   UNL     1      25.264  45.391  52.992  1.00  0.00     0.002 A 
HETATM   27  C   UNL     1      25.977  44.278  52.537  1.00  0.00     0.011 A 
HETATM   28  H   UNL     1      27.956  45.439  48.882  1.00  0.00     0.189 HD
ENDBRANCH  18  19
ENDBRANCH   1  18
TORSDOF 6
ENDMDL
MODEL 6
REMARK VINA RESULT:      -8.0      3.529      5.462
REMARK  6 active torsions:
REMARK  status: ('A' for Active; 'I' for Inactive)
REMARK    1  A    between atoms: C_2  and  N_3 
REMARK    2  A    between atoms: N_3  and  C_5 
REMARK    3  A    between atoms: N_3  and  C_17 
REMARK    4  A    between atoms: C_5  and  C_6 
REMARK       I    between atoms: C_6  and  N_7 
REMARK    5  A    between atoms: N_7  and  C_8 
REMARK    6  A    between atoms: C_17  and  C_18 
ROOT
HETATM    1  N   UNL     1      26.620  43.931  50.833  1.00  0.00    -0.059 N 
HETATM    2  H   UNL     1      27.535  43.601  51.165  1.00  0.00     0.280 HD
ENDROOT
BRANCH   1   3
HETATM    3  C   UNL     1      26.870  45.150  49.954  1.00  0.00     0.231 C 
HETATM    4  C   UNL     1      26.073  46.347  50.435  1.00  0.00     0.034 C 
ENDBRANCH   1   3
BRANCH   1   5
HETATM    5  C   UNL     1      25.827  44.245  52.116  1.00  0.00     0.337 C 
BRANCH   5   6
HETATM    6  C   UNL     1      26.646  44.167  53.408  1.00  0.00     0.248 C 
HETATM    7  N   UNL     1      27.963  44.574  53.273  1.00  0.00    -0.325 N 
HETATM    8  H   UNL     1      28.361  44.622  52.348  1.00  0.00     0.169 HD
HETATM    9  O   UNL     1      26.145  43.669  54.412  1.00  0.00    -0.271 OA
BRANCH   7  10
HETATM   10  C   UNL     1      28.915  44.504  54.321  1.00  0.00     0.046 A 
HETATM   11  C   UNL     1      29.828  43.422  54.309  1.00  0.00    -0.035 A 
HETATM   12  C   UNL     1      29.772  42.323  53.281  1.00  0.00     0.050 C 
HETATM   13  C   UNL     1      30.789  43.321  55.326  1.00  0.00     0.009 A 
HETATM   14  C   UNL     1      30.858  44.274  56.337  1.00  0.00     0.001 A 
HETATM   15  C   UNL     1      29.978  45.352  56.331  1.00  0.00     0.009 A 
HETATM   16  C   UNL     1      29.016  45.499  55.316  1.00  0.00    -0.035 A 
HETATM   17  C   UNL     1      28.185  46.754  55.347  1.00  0.00     0.050 C 
ENDBRANCH   7  10
ENDBRANCH   5   6
ENDBRANCH   1   5
BRANCH   1  18
HETATM   18  C   UNL     1      26.018  42.793  50.035  1.00  0.00     0.276 C 
BRANCH  18  19
HETATM   19  C   UNL     1      26.926  41.615  49.781  1.00  0.00    -0.003 A 
HETATM   20  C   UNL     1      27.226  41.158  48.475  1.00  0.00     0.069 A 
HETATM   21  C   UNL     1      28.081  40.091  48.208  1.00  0.00     0.012 A 
HETATM   22  N   UNL     1      26.827  41.588  47.229  1.00  0.00    -0.277 N 
HETATM   23  C   UNL     1      28.095  39.971  46.801  1.00  0.00     0.152 A 
HETATM   24  C   UNL     1      28.702  39.417  49.269  1.00  0.00     0.015 A 
HETATM   25  N   UNL     1      27.320  40.879  46.209  1.00  0.00    -0.186 NA
HETATM   26  C   UNL     1      28.452  39.847  50.570  1.00  0.00     0.002 A 
HETATM   27  C   UNL     1      27.592  40.922  50.817  1.00  0.00     0.011 A 
HETATM   28  H   UNL     1      26.218  42.361  46.988  1.00  0.00     0.189 HD
ENDBRANCH  18  19
ENDBRANCH   1  18
TORSDOF 6
ENDMDL
MODEL 7
REMARK VINA RESULT:      -8.0      3.100      5.488
REMARK  6 active torsions:
REMARK  status: ('A' for Active; 'I' for Inactive)
REMARK    1  A    between atoms: C_2  and  N_3 
REMARK    2  A    between atoms: N_3  and  C_5 
REMARK    3  A    between atoms: N_3  and  C_17 
REMARK    4  A    between atoms: C_5  and  C_6 
REMARK       I    between atoms: C_6  and  N_7 
REMARK    5  A    between atoms: N_7  and  C_8 
REMARK    6  A    between atoms: C_17  and  C_18 
ROOT
HETATM    1  N   UNL     1      26.236  44.351  51.300  1.00  0.00    -0.059 N 
HETATM    2  H   UNL     1      27.220  44.173  51.536  1.00  0.00     0.280 HD
ENDROOT
BRANCH   1   3
HETATM    3  C   UNL     1      26.182  45.666  50.533  1.00  0.00     0.231 C 
HETATM    4  C   UNL     1      25.539  46.760  51.362  1.00  0.00     0.034 C 
ENDBRANCH   1   3
BRANCH   1   5
HETATM    5  C   UNL     1      25.509  44.396  52.659  1.00  0.00     0.337 C 
BRANCH   5   6
HETATM    6  C   UNL     1      26.430  44.304  53.878  1.00  0.00     0.248 C 
HETATM    7  N   UNL     1      27.679  44.874  53.694  1.00  0.00    -0.325 N 
HETATM    8  H   UNL     1      27.995  45.048  52.752  1.00  0.00     0.169 HD
HETATM    9  O   UNL     1      26.069  43.665  54.862  1.00  0.00    -0.271 OA
BRANCH   7  10
HETATM   10  C   UNL     1      28.713  44.826  54.663  1.00  0.00     0.046 A 
HETATM   11  C   UNL     1      28.753  45.857  55.633  1.00  0.00    -0.035 A 
HETATM   12  C   UNL     1      27.797  47.021  55.622  1.00  0.00     0.050 C 
HETATM   13  C   UNL     1      29.757  45.842  56.613  1.00  0.00     0.009 A 
HETATM   14  C   UNL     1      30.704  44.824  56.645  1.00  0.00     0.001 A 
HETATM   15  C   UNL     1      30.645  43.796  55.708  1.00  0.00     0.009 A 
HETATM   16  C   UNL     1      29.640  43.766  54.725  1.00  0.00    -0.035 A 
HETATM   17  C   UNL     1      29.606  42.557  53.827  1.00  0.00     0.050 C 
ENDBRANCH   7  10
ENDBRANCH   5   6
ENDBRANCH   1   5
BRANCH   1  18
HETATM   18  C   UNL     1      25.787  43.192  50.434  1.00  0.00     0.276 C 
BRANCH  18  19
HETATM   19  C   UNL     1      26.747  42.032  50.337  1.00  0.00    -0.003 A 
HETATM   20  C   UNL     1      27.230  41.551  49.097  1.00  0.00     0.069 A 
HETATM   21  C   UNL     1      28.138  40.500  48.977  1.00  0.00     0.012 A 
HETATM   22  N   UNL     1      26.994  41.940  47.796  1.00  0.00    -0.277 N 
HETATM   23  C   UNL     1      28.344  40.346  47.589  1.00  0.00     0.152 A 
HETATM   24  C   UNL     1      28.625  39.869  50.130  1.00  0.00     0.015 A 
HETATM   25  N   UNL     1      27.635  41.218  46.872  1.00  0.00    -0.186 NA
HETATM   26  C   UNL     1      28.192  40.325  51.373  1.00  0.00     0.002 A 
HETATM   27  C   UNL     1      27.283  41.382  51.472  1.00  0.00     0.011 A 
HETATM   28  H   UNL     1      26.405  42.690  47.455  1.00  0.00     0.189 HD
ENDBRANCH  18  19
ENDBRANCH   1  18
TORSDOF 6
ENDMDL
MODEL 8
REMARK VINA RESULT:      -8.0      2.357      4.847
REMARK  6 active torsions:
REMARK  status: ('A' for Active; 'I' for Inactive)
REMARK    1  A    between atoms: C_2  and  N_3 
REMARK    2  A    between atoms: N_3  and  C_5 
REMARK    3  A    between atoms: N_3  and  C_17 
REMARK    4  A    between atoms: C_5  and  C_6 
REMARK       I    between atoms: C_6  and  N_7 
REMARK    5  A    between atoms: N_7  and  C_8 
REMARK    6  A    between atoms: C_17  and  C_18 
ROOT
HETATM    1  N   UNL     1      26.467  45.596  51.678  1.00  0.00    -0.059 N 
HETATM    2  H   UNL     1      27.321  45.947  52.129  1.00  0.00     0.280 HD
ENDROOT
BRANCH   1   3
HETATM    3  C   UNL     1      25.553  46.793  51.441  1.00  0.00     0.231 C 
HETATM    4  C   UNL     1      25.978  47.573  50.213  1.00  0.00     0.034 C 
ENDBRANCH   1   3
BRANCH   1   5
HETATM    5  C   UNL     1      25.894  44.567  52.671  1.00  0.00     0.337 C 
BRANCH   5   6
HETATM    6  C   UNL     1      26.806  44.250  53.860  1.00  0.00     0.248 C 
HETATM    7  N   UNL     1      28.071  44.808  53.772  1.00  0.00    -0.325 N 
HETATM    8  H   UNL     1      28.396  45.126  52.872  1.00  0.00     0.169 HD
HETATM    9  O   UNL     1      26.423  43.467  54.725  1.00  0.00    -0.271 OA
BRANCH   7  10
HETATM   10  C   UNL     1      29.098  44.573  54.721  1.00  0.00     0.046 A 
HETATM   11  C   UNL     1      29.172  45.440  55.838  1.00  0.00    -0.035 A 
HETATM   12  C   UNL     1      28.260  46.627  56.008  1.00  0.00     0.050 C 
HETATM   13  C   UNL     1      30.171  45.236  56.802  1.00  0.00     0.009 A 
HETATM   14  C   UNL     1      31.079  44.191  56.675  1.00  0.00     0.001 A 
HETATM   15  C   UNL     1      30.987  43.324  55.591  1.00  0.00     0.009 A 
HETATM   16  C   UNL     1      29.985  43.482  54.617  1.00  0.00    -0.035 A 
HETATM   17  C   UNL     1      29.910  42.428  53.544  1.00  0.00     0.050 C 
ENDBRANCH   7  10
ENDBRANCH   5   6
ENDBRANCH   1   5
BRANCH   1  18
HETATM   18  C   UNL     1      26.901  44.970  50.369  1.00  0.00     0.276 C 
BRANCH  18  19
HETATM   19  C   UNL     1      26.066  43.809  49.886  1.00  0.00    -0.003 A 
HETATM   20  C   UNL     1      26.417  42.464  50.151  1.00  0.00     0.069 A 
HETATM   21  C   UNL     1      25.652  41.372  49.743  1.00  0.00     0.012 A 
HETATM   22  N   UNL     1      27.476  41.897  50.825  1.00  0.00    -0.277 N 
HETATM   23  C   UNL     1      26.354  40.236  50.203  1.00  0.00     0.152 A 
HETATM   24  C   UNL     1      24.461  41.585  49.036  1.00  0.00     0.015 A 
HETATM   25  N   UNL     1      27.472  40.561  50.852  1.00  0.00    -0.186 NA
HETATM   26  C   UNL     1      24.067  42.895  48.772  1.00  0.00     0.002 A 
HETATM   27  C   UNL     1      24.846  43.977  49.193  1.00  0.00     0.011 A 
HETATM   28  H   UNL     1      28.248  42.355  51.295  1.00  0.00     0.189 HD
ENDBRANCH  18  19
ENDBRANCH   1  18
TORSDOF 6
ENDMDL
MODEL 9
REMARK VINA RESULT:      -7.9      2.404      4.414
REMARK  6 active torsions:
REMARK  status: ('A' for Active; 'I' for Inactive)
REMARK    1  A    between atoms: C_2  and  N_3 
REMARK    2  A    between atoms: N_3  and  C_5 
REMARK    3  A    between atoms: N_3  and  C_17 
REMARK    4  A    between atoms: C_5  and  C_6 
REMARK       I    between atoms: C_6  and  N_7 
REMARK    5  A    between atoms: N_7  and  C_8 
REMARK    6  A    between atoms: C_17  and  C_18 
ROOT
HETATM    1  N   UNL     1      26.118  45.710  52.369  1.00  0.00    -0.059 N 
HETATM    2  H   UNL     1      26.948  45.149  52.144  1.00  0.00     0.280 HD
ENDROOT
BRANCH   1   3
HETATM    3  C   UNL     1      26.078  46.875  51.388  1.00  0.00     0.231 C 
HETATM    4  C   UNL     1      26.467  46.431  49.992  1.00  0.00     0.034 C 
ENDBRANCH   1   3
BRANCH   1   5
HETATM    5  C   UNL     1      26.322  46.141  53.835  1.00  0.00     0.337 C 
BRANCH   5   6
HETATM    6  C   UNL     1      27.188  45.191  54.665  1.00  0.00     0.248 C 
HETATM    7  N   UNL     1      28.490  45.623  54.854  1.00  0.00    -0.325 N 
HETATM    8  H   UNL     1      28.853  46.340  54.244  1.00  0.00     0.169 HD
HETATM    9  O   UNL     1      26.735  44.101  55.006  1.00  0.00    -0.271 OA
BRANCH   7  10
HETATM   10  C   UNL     1      29.481  44.859  55.520  1.00  0.00     0.046 A 
HETATM   11  C   UNL     1      29.765  45.182  56.869  1.00  0.00    -0.035 A 
HETATM   12  C   UNL     1      29.113  46.338  57.582  1.00  0.00     0.050 C 
HETATM   13  C   UNL     1      30.735  44.444  57.564  1.00  0.00     0.009 A 
HETATM   14  C   UNL     1      31.411  43.399  56.946  1.00  0.00     0.001 A 
HETATM   15  C   UNL     1      31.111  43.065  55.628  1.00  0.00     0.009 A 
HETATM   16  C   UNL     1      30.129  43.767  54.907  1.00  0.00    -0.035 A 
HETATM   17  C   UNL     1      29.809  43.258  53.526  1.00  0.00     0.050 C 
ENDBRANCH   7  10
ENDBRANCH   5   6
ENDBRANCH   1   5
BRANCH   1  18
HETATM   18  C   UNL     1      24.922  44.798  52.187  1.00  0.00     0.276 C 
BRANCH  18  19
HETATM   19  C   UNL     1      25.181  43.517  51.433  1.00  0.00    -0.003 A 
HETATM   20  C   UNL     1      24.291  43.026  50.448  1.00  0.00     0.069 A 
HETATM   21  C   UNL     1      24.515  41.861  49.717  1.00  0.00     0.012 A 
HETATM   22  N   UNL     1      23.092  43.501  49.962  1.00  0.00    -0.277 N 
HETATM   23  C   UNL     1      23.398  41.740  48.862  1.00  0.00     0.152 A 
HETATM   24  C   UNL     1      25.682  41.117  49.938  1.00  0.00     0.015 A 
HETATM   25  N   UNL     1      22.527  42.736  49.024  1.00  0.00    -0.186 NA
HETATM   26  C   UNL     1      26.596  41.575  50.884  1.00  0.00     0.002 A 
HETATM   27  C   UNL     1      26.354  42.748  51.606  1.00  0.00     0.011 A 
HETATM   28  H   UNL     1      22.591  44.342  50.220  1.00  0.00     0.189 HD
ENDBRANCH  18  19
ENDBRANCH   1  18
TORSDOF 6
ENDMDL
MODEL 10
REMARK VINA RESULT:      -7.9      1.957      2.967
REMARK  6 active torsions:
REMARK  status: ('A' for Active; 'I' for Inactive)
REMARK    1  A    between atoms: C_2  and  N_3 
REMARK    2  A    between atoms: N_3  and  C_5 
REMARK    3  A    between atoms: N_3  and  C_17 
REMARK    4  A    between atoms: C_5  and  C_6 
REMARK       I    between atoms: C_6  and  N_7 
REMARK    5  A    between atoms: N_7  and  C_8 
REMARK    6  A    between atoms: C_17  and  C_18 
ROOT
HETATM    1  N   UNL     1      26.443  43.719  50.412  1.00  0.00    -0.059 N 
HETATM    2  H   UNL     1      25.565  43.969  50.883  1.00  0.00     0.280 HD
ENDROOT
BRANCH   1   3
HETATM    3  C   UNL     1      26.082  42.908  49.174  1.00  0.00     0.231 C 
HETATM    4  C   UNL     1      24.814  42.106  49.394  1.00  0.00     0.034 C 
ENDBRANCH   1   3
BRANCH   1   5
HETATM    5  C   UNL     1      27.239  42.922  51.465  1.00  0.00     0.337 C 
BRANCH   5   6
HETATM    6  C   UNL     1      27.261  43.552  52.860  1.00  0.00     0.248 C 
HETATM    7  N   UNL     1      28.389  44.310  53.126  1.00  0.00    -0.325 N 
HETATM    8  H   UNL     1      29.204  44.182  52.545  1.00  0.00     0.169 HD
HETATM    9  O   UNL     1      26.375  43.273  53.664  1.00  0.00    -0.271 OA
BRANCH   7  10
HETATM   10  C   UNL     1      28.651  44.911  54.383  1.00  0.00     0.046 A 
HETATM   11  C   UNL     1      29.707  44.378  55.160  1.00  0.00    -0.035 A 
HETATM   12  C   UNL     1      30.498  43.169  54.735  1.00  0.00     0.050 C 
HETATM   13  C   UNL     1      30.001  44.950  56.407  1.00  0.00     0.009 A 
HETATM   14  C   UNL     1      29.272  46.034  56.881  1.00  0.00     0.001 A 
HETATM   15  C   UNL     1      28.251  46.574  56.104  1.00  0.00     0.009 A 
HETATM   16  C   UNL     1      27.943  46.043  54.839  1.00  0.00    -0.035 A 
HETATM   17  C   UNL     1      26.894  46.766  54.037  1.00  0.00     0.050 C 
ENDBRANCH   7  10
ENDBRANCH   5   6
ENDBRANCH   1   5
BRANCH   1  18
HETATM   18  C   UNL     1      27.113  45.025  50.036  1.00  0.00     0.276 C 
BRANCH  18  19
HETATM   19  C   UNL     1      26.192  46.204  49.838  1.00  0.00    -0.003 A 
HETATM   20  C   UNL     1      26.669  47.479  49.451  1.00  0.00     0.069 A 
HETATM   21  C   UNL     1      25.840  48.579  49.234  1.00  0.00     0.012 A 
HETATM   22  N   UNL     1      27.934  47.955  49.186  1.00  0.00    -0.277 N 
HETATM   23  C   UNL     1      26.710  49.632  48.874  1.00  0.00     0.152 A 
HETATM   24  C   UNL     1      24.454  48.446  49.391  1.00  0.00     0.015 A 
HETATM   25  N   UNL     1      27.987  49.250  48.857  1.00  0.00    -0.186 NA
HETATM   26  C   UNL     1      23.940  47.202  49.750  1.00  0.00     0.002 A 
HETATM   27  C   UNL     1      24.788  46.110  49.961  1.00  0.00     0.011 A 
HETATM   28  H   UNL     1      28.817  47.459  49.209  1.00  0.00     0.189 HD
ENDBRANCH  18  19
ENDBRANCH   1  18
TORSDOF 6
ENDMDL
