MODEL 1
REMARK VINA RESULT:     -10.3      0.000      0.000
REMARK  8 active torsions:
REMARK  status: ('A' for Active; 'I' for Inactive)
REMARK    1  A    between atoms: C_2  and  C_3 
REMARK    2  A    between atoms: C_3  and  C_4 
REMARK       I    between atoms: C_4  and  N_5 
REMARK    3  A    between atoms: N_8  and  C_9 
REMARK    4  A    between atoms: C_12  and  N_13 
REMARK    5  A    between atoms: N_13  and  C_14 
REMARK    6  A    between atoms: C_14  and  N_15 
REMARK       I    between atoms: N_15  and  C_16 
REMARK    7  A    between atoms: C_16  and  C_17 
REMARK    8  A    between atoms: C_18  and  O_19 
ROOT
HETATM    1  N   UNL     1      26.936  44.950  49.600  1.00  0.00    -0.333 N 
HETATM    2  H   UNL     1      27.658  45.128  48.910  1.00  0.00     0.168 HD
ENDROOT
BRANCH   1   3
HETATM    3  C   UNL     1      25.913  45.919  49.610  1.00  0.00     0.034 A 
HETATM    4  C   UNL     1      26.111  47.289  49.730  1.00  0.00     0.032 A 
HETATM    5  C   UNL     1      25.020  48.177  49.669  1.00  0.00     0.031 A 
HETATM    6  C   UNL     1      23.703  47.737  49.467  1.00  0.00     0.030 A 
HETATM    7  C   UNL     1      23.539  46.353  49.299  1.00  0.00     0.031 A 
HETATM    8  C   UNL     1      24.615  45.460  49.380  1.00  0.00     0.032 A 
BRANCH   6   9
HETATM    9  N   UNL     1      22.601  48.600  49.355  1.00  0.00    -0.378 N 
HETATM   10  C   UNL     1      21.323  48.053  48.855  1.00  0.00     0.143 C 
HETATM   11  C   UNL     1      20.157  49.029  49.108  1.00  0.00     0.145 C 
HETATM   12  N   UNL     1      20.433  50.405  48.675  1.00  0.00    -0.349 N 
HETATM   13  C   UNL     1      19.434  51.345  48.427  1.00  0.00     0.219 C 
HETATM   14  C   UNL     1      21.748  50.918  49.069  1.00  0.00     0.145 C 
HETATM   15  O   UNL     1      19.671  52.552  48.385  1.00  0.00    -0.273 OA
HETATM   16  C   UNL     1      22.895  49.936  48.776  1.00  0.00     0.143 C 
BRANCH  13  17
HETATM   17  C   UNL     1      18.034  50.804  48.177  1.00  0.00     0.103 C 
BRANCH  17  18
HETATM   18  C   UNL     1      16.959  51.879  48.338  1.00  0.00     0.005 C 
HETATM   19  C   UNL     1      16.524  52.021  49.787  1.00  0.00     0.005 C 
ENDBRANCH  17  18
ENDBRANCH  13  17
ENDBRANCH   6   9
ENDBRANCH   1   3
BRANCH   1  20
HETATM   20  C   UNL     1      27.299  44.003  50.483  1.00  0.00     0.179 C 
HETATM   21  S   UNL     1      26.810  42.425  50.190  1.00  0.00    -0.040 SA
BRANCH  20  22
HETATM   22  N   UNL     1      27.990  44.226  51.628  1.00  0.00    -0.299 N 
HETATM   23  C   UNL     1      27.516  44.458  52.921  1.00  0.00     0.260 C 
HETATM   24  O   UNL     1      26.379  44.786  53.226  1.00  0.00    -0.267 OA
HETATM   25  H   UNL     1      28.878  43.741  51.594  1.00  0.00     0.171 HD
BRANCH  23  26
HETATM   26  C   UNL     1      28.542  44.235  53.985  1.00  0.00     0.066 A 
HETATM   27  C   UNL     1      29.447  43.169  53.920  1.00  0.00     0.084 A 
HETATM   28  C   UNL     1      30.388  42.984  54.938  1.00  0.00     0.050 A 
HETATM   29  C   UNL     1      30.479  43.882  56.011  1.00  0.00    -0.023 A 
HETATM   30  C   UNL     1      29.576  44.966  56.081  1.00  0.00    -0.025 A 
HETATM   31  C   UNL     1      31.448  43.725  57.016  1.00  0.00     0.012 A 
HETATM   32  C   UNL     1      28.605  45.120  55.076  1.00  0.00     0.032 A 
HETATM   33  C   UNL     1      29.669  45.867  57.157  1.00  0.00     0.012 A 
HETATM   34  C   UNL     1      30.644  45.701  58.142  1.00  0.00     0.001 A 
HETATM   35  C   UNL     1      31.532  44.632  58.073  1.00  0.00     0.001 A 
BRANCH  27  36
HETATM   36  O   UNL     1      29.461  42.228  52.926  1.00  0.00    -0.355 OA
HETATM   37  C   UNL     1      28.715  41.064  53.278  1.00  0.00     0.210 C 
ENDBRANCH  27  36
ENDBRANCH  23  26
ENDBRANCH  20  22
ENDBRANCH   1  20
TORSDOF 8
ENDMDL
MODEL 2
REMARK VINA RESULT:     -10.3      1.660      2.856
REMARK  8 active torsions:
REMARK  status: ('A' for Active; 'I' for Inactive)
REMARK    1  A    between atoms: C_2  and  C_3 
REMARK    2  A    between atoms: C_3  and  C_4 
REMARK       I    between atoms: C_4  and  N_5 
REMARK    3  A    between atoms: N_8  and  C_9 
REMARK    4  A    between atoms: C_12  and  N_13 
REMARK    5  A    between atoms: N_13  and  C_14 
REMARK    6  A    between atoms: C_14  and  N_15 
REMARK       I    between atoms: N_15  and  C_16 
REMARK    7  A    between atoms: C_16  and  C_17 
REMARK    8  A    between atoms: C_18  and  O_19 
ROOT
HETATM    1  N   UNL     1      26.032  41.860  51.170  1.00  0.00    -0.333 N 
HETATM    2  H   UNL     1      25.481  41.029  50.982  1.00  0.00     0.168 HD
ENDROOT
BRANCH   1   3
HETATM    3  C   UNL     1      25.463  43.043  50.660  1.00  0.00     0.034 A 
HETATM    4  C   UNL     1      26.174  44.093  50.094  1.00  0.00     0.032 A 
HETATM    5  C   UNL     1      25.501  45.208  49.560  1.00  0.00     0.031 A 
HETATM    6  C   UNL     1      24.101  45.307  49.551  1.00  0.00     0.030 A 
HETATM    7  C   UNL     1      23.407  44.210  50.084  1.00  0.00     0.031 A 
HETATM    8  C   UNL     1      24.069  43.107  50.637  1.00  0.00     0.032 A 
BRANCH   6   9
HETATM    9  N   UNL     1      23.399  46.383  48.985  1.00  0.00    -0.378 N 
HETATM   10  C   UNL     1      23.564  47.725  49.579  1.00  0.00     0.143 C 
HETATM   11  C   UNL     1      23.002  48.823  48.653  1.00  0.00     0.145 C 
HETATM   12  N   UNL     1      21.646  48.545  48.163  1.00  0.00    -0.349 N 
HETATM   13  C   UNL     1      20.794  49.530  47.666  1.00  0.00     0.219 C 
HETATM   14  C   UNL     1      21.440  47.179  47.676  1.00  0.00     0.145 C 
HETATM   15  O   UNL     1      19.815  49.256  46.972  1.00  0.00    -0.273 OA
HETATM   16  C   UNL     1      21.981  46.104  48.634  1.00  0.00     0.143 C 
BRANCH  13  17
HETATM   17  C   UNL     1      21.115  50.968  48.049  1.00  0.00     0.103 C 
BRANCH  17  18
HETATM   18  C   UNL     1      20.130  51.530  49.072  1.00  0.00     0.005 C 
HETATM   19  C   UNL     1      19.105  52.441  48.418  1.00  0.00     0.005 C 
ENDBRANCH  17  18
ENDBRANCH  13  17
ENDBRANCH   6   9
ENDBRANCH   1   3
BRANCH   1  20
HETATM   20  C   UNL     1      27.270  41.561  51.605  1.00  0.00     0.179 C 
HETATM   21  S   UNL     1      28.071  40.278  50.879  1.00  0.00    -0.040 SA
BRANCH  20  22
HETATM   22  N   UNL     1      27.910  42.184  52.626  1.00  0.00    -0.299 N 
HETATM   23  C   UNL     1      28.899  43.168  52.584  1.00  0.00     0.260 C 
HETATM   24  O   UNL     1      29.586  43.462  51.618  1.00  0.00    -0.267 OA
HETATM   25  H   UNL     1      27.298  42.247  53.429  1.00  0.00     0.171 HD
BRANCH  23  26
HETATM   26  C   UNL     1      29.058  43.913  53.870  1.00  0.00     0.066 A 
HETATM   27  C   UNL     1      28.170  44.928  54.244  1.00  0.00     0.084 A 
HETATM   28  C   UNL     1      28.353  45.612  55.451  1.00  0.00     0.050 A 
HETATM   29  C   UNL     1      29.391  45.266  56.328  1.00  0.00    -0.023 A 
HETATM   30  C   UNL     1      30.287  44.235  55.964  1.00  0.00    -0.025 A 
HETATM   31  C   UNL     1      29.557  45.920  57.559  1.00  0.00     0.012 A 
HETATM   32  C   UNL     1      30.121  43.582  54.730  1.00  0.00     0.032 A 
HETATM   33  C   UNL     1      31.325  43.887  56.846  1.00  0.00     0.012 A 
HETATM   34  C   UNL     1      31.471  44.542  58.070  1.00  0.00     0.001 A 
HETATM   35  C   UNL     1      30.588  45.558  58.427  1.00  0.00     0.001 A 
BRANCH  27  36
HETATM   36  O   UNL     1      27.120  45.358  53.477  1.00  0.00    -0.355 OA
HETATM   37  C   UNL     1      25.869  44.873  53.962  1.00  0.00     0.210 C 
ENDBRANCH  27  36
ENDBRANCH  23  26
ENDBRANCH  20  22
ENDBRANCH   1  20
TORSDOF 8
ENDMDL
MODEL 3
REMARK VINA RESULT:     -10.2      1.071      2.192
REMARK  8 active torsions:
REMARK  status: ('A' for Active; 'I' for Inactive)
REMARK    1  A    between atoms: C_2  and  C_3 
REMARK    2  A    between atoms: C_3  and  C_4 
REMARK       I    between atoms: C_4  and  N_5 
REMARK    3  A    between atoms: N_8  and  C_9 
REMARK    4  A    between atoms: C_12  and  N_13 
REMARK    5  A    between atoms: N_13  and  C_14 
REMARK    6  A    between atoms: C_14  and  N_15 
REMARK       I    between atoms: N_15  and  C_16 
REMARK    7  A    between atoms: C_16  and  C_17 
REMARK    8  A    between atoms: C_18  and  O_19 
ROOT
HETATM    1  N   UNL     1      26.435  44.593  50.063  1.00  0.00    -0.333 N 
HETATM    2  H   UNL     1      27.331  44.732  49.607  1.00  0.00     0.168 HD
ENDROOT
BRANCH   1   3
HETATM    3  C   UNL     1      25.507  45.621  49.809  1.00  0.00     0.034 A 
HETATM    4  C   UNL     1      25.758  46.979  49.954  1.00  0.00     0.032 A 
HETATM    5  C   UNL     1      24.776  47.930  49.617  1.00  0.00     0.031 A 
HETATM    6  C   UNL     1      23.521  47.563  49.104  1.00  0.00     0.030 A 
HETATM    7  C   UNL     1      23.313  46.188  48.921  1.00  0.00     0.031 A 
HETATM    8  C   UNL     1      24.276  45.235  49.275  1.00  0.00     0.032 A 
BRANCH   6   9
HETATM    9  N   UNL     1      22.538  48.487  48.714  1.00  0.00    -0.378 N 
HETATM   10  C   UNL     1      22.331  49.691  49.545  1.00  0.00     0.143 C 
HETATM   11  C   UNL     1      21.472  50.739  48.810  1.00  0.00     0.145 C 
HETATM   12  N   UNL     1      20.240  50.192  48.228  1.00  0.00    -0.349 N 
HETATM   13  C   UNL     1      19.140  50.975  47.885  1.00  0.00     0.219 C 
HETATM   14  C   UNL     1      20.417  48.934  47.497  1.00  0.00     0.145 C 
HETATM   15  O   UNL     1      18.266  50.572  47.117  1.00  0.00    -0.273 OA
HETATM   16  C   UNL     1      21.250  47.896  48.267  1.00  0.00     0.143 C 
BRANCH  13  17
HETATM   17  C   UNL     1      19.053  52.351  48.530  1.00  0.00     0.103 C 
BRANCH  17  18
HETATM   18  C   UNL     1      18.251  52.332  49.831  1.00  0.00     0.005 C 
HETATM   19  C   UNL     1      16.798  52.712  49.596  1.00  0.00     0.005 C 
ENDBRANCH  17  18
ENDBRANCH  13  17
ENDBRANCH   6   9
ENDBRANCH   1   3
BRANCH   1  20
HETATM   20  C   UNL     1      26.482  43.619  50.990  1.00  0.00     0.179 C 
HETATM   21  S   UNL     1      25.694  42.176  50.656  1.00  0.00    -0.040 SA
BRANCH  20  22
HETATM   22  N   UNL     1      27.076  43.725  52.205  1.00  0.00    -0.299 N 
HETATM   23  C   UNL     1      28.369  43.374  52.594  1.00  0.00     0.260 C 
HETATM   24  O   UNL     1      29.133  42.639  51.987  1.00  0.00    -0.267 OA
HETATM   25  H   UNL     1      26.693  44.516  52.707  1.00  0.00     0.171 HD
BRANCH  23  26
HETATM   26  C   UNL     1      28.807  44.018  53.870  1.00  0.00     0.066 A 
HETATM   27  C   UNL     1      28.183  45.170  54.362  1.00  0.00     0.084 A 
HETATM   28  C   UNL     1      28.624  45.753  55.555  1.00  0.00     0.050 A 
HETATM   29  C   UNL     1      29.659  45.174  56.304  1.00  0.00    -0.023 A 
HETATM   30  C   UNL     1      30.289  44.005  55.821  1.00  0.00    -0.025 A 
HETATM   31  C   UNL     1      30.079  45.730  57.522  1.00  0.00     0.012 A 
HETATM   32  C   UNL     1      29.868  43.450  54.599  1.00  0.00     0.032 A 
HETATM   33  C   UNL     1      31.324  43.424  56.573  1.00  0.00     0.012 A 
HETATM   34  C   UNL     1      31.725  43.986  57.787  1.00  0.00     0.001 A 
HETATM   35  C   UNL     1      31.104  45.138  58.261  1.00  0.00     0.001 A 
BRANCH  27  36
HETATM   36  O   UNL     1      27.164  45.828  53.727  1.00  0.00    -0.355 OA
HETATM   37  C   UNL     1      27.039  47.179  54.168  1.00  0.00     0.210 C 
ENDBRANCH  27  36
ENDBRANCH  23  26
ENDBRANCH  20  22
ENDBRANCH   1  20
TORSDOF 8
ENDMDL
MODEL 4
REMARK VINA RESULT:      -9.6      1.283      1.703
REMARK  8 active torsions:
REMARK  status: ('A' for Active; 'I' for Inactive)
REMARK    1  A    between atoms: C_2  and  C_3 
REMARK    2  A    between atoms: C_3  and  C_4 
REMARK       I    between atoms: C_4  and  N_5 
REMARK    3  A    between atoms: N_8  and  C_9 
REMARK    4  A    between atoms: C_12  and  N_13 
REMARK    5  A    between atoms: N_13  and  C_14 
REMARK    6  A    between atoms: C_14  and  N_15 
REMARK       I    between atoms: N_15  and  C_16 
REMARK    7  A    between atoms: C_16  and  C_17 
REMARK    8  A    between atoms: C_18  and  O_19 
ROOT
HETATM    1  N   UNL     1      25.520  44.681  49.174  1.00  0.00    -0.333 N 
HETATM    2  H   UNL     1      26.267  44.807  48.498  1.00  0.00     0.168 HD
ENDROOT
BRANCH   1   3
HETATM    3  C   UNL     1      24.517  45.667  49.097  1.00  0.00     0.034 A 
HETATM    4  C   UNL     1      24.606  46.943  49.640  1.00  0.00     0.032 A 
HETATM    5  C   UNL     1      23.567  47.874  49.455  1.00  0.00     0.031 A 
HETATM    6  C   UNL     1      22.416  47.576  48.708  1.00  0.00     0.030 A 
HETATM    7  C   UNL     1      22.375  46.298  48.130  1.00  0.00     0.031 A 
HETATM    8  C   UNL     1      23.395  45.359  48.327  1.00  0.00     0.032 A 
BRANCH   6   9
HETATM    9  N   UNL     1      21.384  48.497  48.466  1.00  0.00    -0.378 N 
HETATM   10  C   UNL     1      21.358  49.751  49.246  1.00  0.00     0.143 C 
HETATM   11  C   UNL     1      20.379  50.773  48.635  1.00  0.00     0.145 C 
HETATM   12  N   UNL     1      19.051  50.219  48.344  1.00  0.00    -0.349 N 
HETATM   13  C   UNL     1      17.912  51.005  48.178  1.00  0.00     0.219 C 
HETATM   14  C   UNL     1      19.066  48.917  47.670  1.00  0.00     0.145 C 
HETATM   15  O   UNL     1      16.899  50.576  47.626  1.00  0.00    -0.273 OA
HETATM   16  C   UNL     1      20.027  47.908  48.321  1.00  0.00     0.143 C 
BRANCH  13  17
HETATM   17  C   UNL     1      17.969  52.417  48.744  1.00  0.00     0.103 C 
BRANCH  17  18
HETATM   18  C   UNL     1      17.118  52.572  50.004  1.00  0.00     0.005 C 
HETATM   19  C   UNL     1      15.813  53.293  49.712  1.00  0.00     0.005 C 
ENDBRANCH  17  18
ENDBRANCH  13  17
ENDBRANCH   6   9
ENDBRANCH   1   3
BRANCH   1  20
HETATM   20  C   UNL     1      25.838  43.780  50.121  1.00  0.00     0.179 C 
HETATM   21  S   UNL     1      25.023  42.313  50.116  1.00  0.00    -0.040 SA
BRANCH  20  22
HETATM   22  N   UNL     1      26.734  43.978  51.119  1.00  0.00    -0.299 N 
HETATM   23  C   UNL     1      26.514  44.310  52.457  1.00  0.00     0.260 C 
HETATM   24  O   UNL     1      25.483  44.765  52.929  1.00  0.00    -0.267 OA
HETATM   25  H   UNL     1      27.553  43.404  50.965  1.00  0.00     0.171 HD
BRANCH  23  26
HETATM   26  C   UNL     1      27.682  44.026  53.346  1.00  0.00     0.066 A 
HETATM   27  C   UNL     1      28.495  42.904  53.153  1.00  0.00     0.084 A 
HETATM   28  C   UNL     1      29.575  42.664  54.009  1.00  0.00     0.050 A 
HETATM   29  C   UNL     1      29.895  43.560  55.039  1.00  0.00    -0.023 A 
HETATM   30  C   UNL     1      29.087  44.702  55.235  1.00  0.00    -0.025 A 
HETATM   31  C   UNL     1      31.002  43.347  55.876  1.00  0.00     0.012 A 
HETATM   32  C   UNL     1      27.978  44.913  54.397  1.00  0.00     0.032 A 
HETATM   33  C   UNL     1      29.410  45.601  56.266  1.00  0.00     0.012 A 
HETATM   34  C   UNL     1      30.519  45.379  57.084  1.00  0.00     0.001 A 
HETATM   35  C   UNL     1      31.314  44.253  56.890  1.00  0.00     0.001 A 
BRANCH  27  36
HETATM   36  O   UNL     1      28.288  41.957  52.186  1.00  0.00    -0.355 OA
HETATM   37  C   UNL     1      28.847  40.694  52.542  1.00  0.00     0.210 C 
ENDBRANCH  27  36
ENDBRANCH  23  26
ENDBRANCH  20  22
ENDBRANCH   1  20
TORSDOF 8
ENDMDL
MODEL 5
REMARK VINA RESULT:      -9.2      2.654     11.262
REMARK  8 active torsions:
REMARK  status: ('A' for Active; 'I' for Inactive)
REMARK    1  A    between atoms: C_2  and  C_3 
REMARK    2  A    between atoms: C_3  and  C_4 
REMARK       I    between atoms: C_4  and  N_5 
REMARK    3  A    between atoms: N_8  and  C_9 
REMARK    4  A    between atoms: C_12  and  N_13 
REMARK    5  A    between atoms: N_13  and  C_14 
REMARK    6  A    between atoms: C_14  and  N_15 
REMARK       I    between atoms: N_15  and  C_16 
REMARK    7  A    between atoms: C_16  and  C_17 
REMARK    8  A    between atoms: C_18  and  O_19 
ROOT
HETATM    1  N   UNL     1      22.641  43.859  47.929  1.00  0.00    -0.333 N 
HETATM    2  H   UNL     1      22.000  43.077  48.019  1.00  0.00     0.168 HD
ENDROOT
BRANCH   1   3
HETATM    3  C   UNL     1      23.532  43.986  49.012  1.00  0.00     0.034 A 
HETATM    4  C   UNL     1      23.728  43.032  50.003  1.00  0.00     0.032 A 
HETATM    5  C   UNL     1      24.688  43.234  51.012  1.00  0.00     0.031 A 
HETATM    6  C   UNL     1      25.501  44.379  51.057  1.00  0.00     0.030 A 
HETATM    7  C   UNL     1      25.316  45.301  50.017  1.00  0.00     0.031 A 
HETATM    8  C   UNL     1      24.348  45.118  49.021  1.00  0.00     0.032 A 
BRANCH   6   9
HETATM    9  N   UNL     1      26.499  44.588  52.022  1.00  0.00    -0.378 N 
HETATM   10  C   UNL     1      27.375  43.457  52.390  1.00  0.00     0.143 C 
HETATM   11  C   UNL     1      28.601  43.935  53.194  1.00  0.00     0.145 C 
HETATM   12  N   UNL     1      28.265  44.824  54.313  1.00  0.00    -0.349 N 
HETATM   13  C   UNL     1      29.116  45.051  55.393  1.00  0.00     0.219 C 
HETATM   14  C   UNL     1      27.307  45.883  53.986  1.00  0.00     0.145 C 
HETATM   15  O   UNL     1      28.977  46.019  56.141  1.00  0.00    -0.273 OA
HETATM   16  C   UNL     1      26.078  45.373  53.213  1.00  0.00     0.143 C 
BRANCH  13  17
HETATM   17  C   UNL     1      30.214  44.022  55.626  1.00  0.00     0.103 C 
BRANCH  17  18
HETATM   18  C   UNL     1      30.997  44.290  56.911  1.00  0.00     0.005 C 
HETATM   19  C   UNL     1      32.108  43.272  57.109  1.00  0.00     0.005 C 
ENDBRANCH  17  18
ENDBRANCH  13  17
ENDBRANCH   6   9
ENDBRANCH   1   3
BRANCH   1  20
HETATM   20  C   UNL     1      22.278  44.703  46.947  1.00  0.00     0.179 C 
HETATM   21  S   UNL     1      22.708  44.310  45.373  1.00  0.00    -0.040 SA
BRANCH  20  22
HETATM   22  N   UNL     1      21.633  45.882  47.128  1.00  0.00    -0.299 N 
HETATM   23  C   UNL     1      20.793  46.283  48.169  1.00  0.00     0.260 C 
HETATM   24  O   UNL     1      20.248  45.551  48.981  1.00  0.00    -0.267 OA
HETATM   25  H   UNL     1      22.168  46.635  46.716  1.00  0.00     0.171 HD
BRANCH  23  26
HETATM   26  C   UNL     1      20.614  47.764  48.258  1.00  0.00     0.066 A 
HETATM   27  C   UNL     1      21.686  48.645  48.078  1.00  0.00     0.084 A 
HETATM   28  C   UNL     1      21.485  50.026  48.177  1.00  0.00     0.050 A 
HETATM   29  C   UNL     1      20.208  50.556  48.407  1.00  0.00    -0.023 A 
HETATM   30  C   UNL     1      19.116  49.676  48.580  1.00  0.00    -0.025 A 
HETATM   31  C   UNL     1      19.991  51.942  48.467  1.00  0.00     0.012 A 
HETATM   32  C   UNL     1      19.335  48.288  48.521  1.00  0.00     0.032 A 
HETATM   33  C   UNL     1      17.836  50.209  48.807  1.00  0.00     0.012 A 
HETATM   34  C   UNL     1      17.636  51.589  48.855  1.00  0.00     0.001 A 
HETATM   35  C   UNL     1      18.712  52.456  48.686  1.00  0.00     0.001 A 
BRANCH  27  36
HETATM   36  O   UNL     1      22.978  48.253  47.849  1.00  0.00    -0.355 OA
HETATM   37  C   UNL     1      23.923  49.147  48.435  1.00  0.00     0.210 C 
ENDBRANCH  27  36
ENDBRANCH  23  26
ENDBRANCH  20  22
ENDBRANCH   1  20
TORSDOF 8
ENDMDL
MODEL 6
REMARK VINA RESULT:      -9.1      5.796      9.979
REMARK  8 active torsions:
REMARK  status: ('A' for Active; 'I' for Inactive)
REMARK    1  A    between atoms: C_2  and  C_3 
REMARK    2  A    between atoms: C_3  and  C_4 
REMARK       I    between atoms: C_4  and  N_5 
REMARK    3  A    between atoms: N_8  and  C_9 
REMARK    4  A    between atoms: C_12  and  N_13 
REMARK    5  A    between atoms: N_13  and  C_14 
REMARK    6  A    between atoms: C_14  and  N_15 
REMARK       I    between atoms: N_15  and  C_16 
REMARK    7  A    between atoms: C_16  and  C_17 
REMARK    8  A    between atoms: C_18  and  O_19 
ROOT
HETATM    1  N   UNL     1      24.860  42.700  51.448  1.00  0.00    -0.333 N 
HETATM    2  H   UNL     1      24.151  42.273  52.035  1.00  0.00     0.168 HD
ENDROOT
BRANCH   1   3
HETATM    3  C   UNL     1      25.305  41.868  50.403  1.00  0.00     0.034 A 
HETATM    4  C   UNL     1      24.872  41.940  49.085  1.00  0.00     0.032 A 
HETATM    5  C   UNL     1      25.426  41.097  48.102  1.00  0.00     0.031 A 
HETATM    6  C   UNL     1      26.442  40.172  48.392  1.00  0.00     0.030 A 
HETATM    7  C   UNL     1      26.894  40.157  49.720  1.00  0.00     0.031 A 
HETATM    8  C   UNL     1      26.334  40.976  50.708  1.00  0.00     0.032 A 
BRANCH   6   9
HETATM    9  N   UNL     1      27.047  39.351  47.427  1.00  0.00    -0.378 N 
HETATM   10  C   UNL     1      28.137  38.449  47.850  1.00  0.00     0.143 C 
HETATM   11  C   UNL     1      28.453  37.402  46.764  1.00  0.00     0.145 C 
HETATM   12  N   UNL     1      28.633  37.975  45.424  1.00  0.00    -0.349 N 
HETATM   13  C   UNL     1      29.302  37.318  44.393  1.00  0.00     0.219 C 
HETATM   14  C   UNL     1      27.618  38.959  45.039  1.00  0.00     0.145 C 
HETATM   15  O   UNL     1      29.169  37.648  43.215  1.00  0.00    -0.273 OA
HETATM   16  C   UNL     1      27.347  40.010  46.128  1.00  0.00     0.143 C 
BRANCH  13  17
HETATM   17  C   UNL     1      30.236  36.186  44.797  1.00  0.00     0.103 C 
BRANCH  17  18
HETATM   18  C   UNL     1      30.168  35.004  43.830  1.00  0.00     0.005 C 
HETATM   19  C   UNL     1      31.449  34.868  43.024  1.00  0.00     0.005 C 
ENDBRANCH  17  18
ENDBRANCH  13  17
ENDBRANCH   6   9
ENDBRANCH   1   3
BRANCH   1  20
HETATM   20  C   UNL     1      25.364  43.821  51.996  1.00  0.00     0.179 C 
HETATM   21  S   UNL     1      24.786  45.296  51.444  1.00  0.00    -0.040 SA
BRANCH  20  22
HETATM   22  N   UNL     1      26.347  43.860  52.929  1.00  0.00    -0.299 N 
HETATM   23  C   UNL     1      27.724  44.025  52.763  1.00  0.00     0.260 C 
HETATM   24  O   UNL     1      28.348  43.883  51.722  1.00  0.00    -0.267 OA
HETATM   25  H   UNL     1      25.987  44.245  53.793  1.00  0.00     0.171 HD
BRANCH  23  26
HETATM   26  C   UNL     1      28.433  44.444  54.010  1.00  0.00     0.066 A 
HETATM   27  C   UNL     1      28.066  45.599  54.710  1.00  0.00     0.084 A 
HETATM   28  C   UNL     1      28.757  45.967  55.869  1.00  0.00     0.050 A 
HETATM   29  C   UNL     1      29.790  45.169  56.379  1.00  0.00    -0.023 A 
HETATM   30  C   UNL     1      30.162  43.995  55.686  1.00  0.00    -0.025 A 
HETATM   31  C   UNL     1      30.461  45.510  57.565  1.00  0.00     0.012 A 
HETATM   32  C   UNL     1      29.490  43.655  54.499  1.00  0.00     0.032 A 
HETATM   33  C   UNL     1      31.196  43.194  56.201  1.00  0.00     0.012 A 
HETATM   34  C   UNL     1      31.847  43.544  57.385  1.00  0.00     0.001 A 
HETATM   35  C   UNL     1      31.481  44.701  58.066  1.00  0.00     0.001 A 
BRANCH  27  36
HETATM   36  O   UNL     1      27.077  46.459  54.315  1.00  0.00    -0.355 OA
HETATM   37  C   UNL     1      27.364  47.809  54.676  1.00  0.00     0.210 C 
ENDBRANCH  27  36
ENDBRANCH  23  26
ENDBRANCH  20  22
ENDBRANCH   1  20
TORSDOF 8
ENDMDL
MODEL 7
REMARK VINA RESULT:      -9.0      2.003      3.418
REMARK  8 active torsions:
REMARK  status: ('A' for Active; 'I' for Inactive)
REMARK    1  A    between atoms: C_2  and  C_3 
REMARK    2  A    between atoms: C_3  and  C_4 
REMARK       I    between atoms: C_4  and  N_5 
REMARK    3  A    between atoms: N_8  and  C_9 
REMARK    4  A    between atoms: C_12  and  N_13 
REMARK    5  A    between atoms: N_13  and  C_14 
REMARK    6  A    between atoms: C_14  and  N_15 
REMARK       I    between atoms: N_15  and  C_16 
REMARK    7  A    between atoms: C_16  and  C_17 
REMARK    8  A    between atoms: C_18  and  O_19 
ROOT
HETATM    1  N   UNL     1      24.103  44.302  48.246  1.00  0.00    -0.333 N 
HETATM    2  H   UNL     1      24.850  44.578  47.617  1.00  0.00     0.168 HD
ENDROOT
BRANCH   1   3
HETATM    3  C   UNL     1      23.071  45.255  48.349  1.00  0.00     0.034 A 
HETATM    4  C   UNL     1      21.724  45.004  48.114  1.00  0.00     0.032 A 
HETATM    5  C   UNL     1      20.764  46.016  48.303  1.00  0.00     0.031 A 
HETATM    6  C   UNL     1      21.105  47.301  48.753  1.00  0.00     0.030 A 
HETATM    7  C   UNL     1      22.465  47.511  49.031  1.00  0.00     0.031 A 
HETATM    8  C   UNL     1      23.429  46.517  48.824  1.00  0.00     0.032 A 
BRANCH   6   9
HETATM    9  N   UNL     1      20.167  48.317  48.996  1.00  0.00    -0.378 N 
HETATM   10  C   UNL     1      18.799  48.158  48.460  1.00  0.00     0.143 C 
HETATM   11  C   UNL     1      17.828  49.178  49.089  1.00  0.00     0.145 C 
HETATM   12  N   UNL     1      18.326  50.558  49.068  1.00  0.00    -0.349 N 
HETATM   13  C   UNL     1      17.499  51.673  49.196  1.00  0.00     0.219 C 
HETATM   14  C   UNL     1      19.721  50.712  49.490  1.00  0.00     0.145 C 
HETATM   15  O   UNL     1      17.940  52.781  49.500  1.00  0.00    -0.273 OA
HETATM   16  C   UNL     1      20.671  49.704  48.822  1.00  0.00     0.143 C 
BRANCH  13  17
HETATM   17  C   UNL     1      16.019  51.462  48.911  1.00  0.00     0.103 C 
BRANCH  17  18
HETATM   18  C   UNL     1      15.215  52.757  49.022  1.00  0.00     0.005 C 
HETATM   19  C   UNL     1      14.498  52.856  50.358  1.00  0.00     0.005 C 
ENDBRANCH  17  18
ENDBRANCH  13  17
ENDBRANCH   6   9
ENDBRANCH   1   3
BRANCH   1  20
HETATM   20  C   UNL     1      24.441  43.242  49.002  1.00  0.00     0.179 C 
HETATM   21  S   UNL     1      23.734  41.763  48.646  1.00  0.00    -0.040 SA
BRANCH  20  22
HETATM   22  N   UNL     1      25.274  43.280  50.072  1.00  0.00    -0.299 N 
HETATM   23  C   UNL     1      26.670  43.295  50.109  1.00  0.00     0.260 C 
HETATM   24  O   UNL     1      27.421  42.992  49.195  1.00  0.00    -0.267 OA
HETATM   25  H   UNL     1      24.835  43.782  50.833  1.00  0.00     0.171 HD
BRANCH  23  26
HETATM   26  C   UNL     1      27.229  43.766  51.413  1.00  0.00     0.066 A 
HETATM   27  C   UNL     1      26.627  44.800  52.139  1.00  0.00     0.084 A 
HETATM   28  C   UNL     1      27.183  45.223  53.352  1.00  0.00     0.050 A 
HETATM   29  C   UNL     1      28.316  44.593  53.886  1.00  0.00    -0.023 A 
HETATM   30  C   UNL     1      28.926  43.542  53.165  1.00  0.00    -0.025 A 
HETATM   31  C   UNL     1      28.855  44.985  55.122  1.00  0.00     0.012 A 
HETATM   32  C   UNL     1      28.386  43.152  51.927  1.00  0.00     0.032 A 
HETATM   33  C   UNL     1      30.060  42.910  53.704  1.00  0.00     0.012 A 
HETATM   34  C   UNL     1      30.579  43.307  54.938  1.00  0.00     0.001 A 
HETATM   35  C   UNL     1      29.978  44.343  55.646  1.00  0.00     0.001 A 
BRANCH  27  36
HETATM   36  O   UNL     1      25.520  45.491  51.725  1.00  0.00    -0.355 OA
HETATM   37  C   UNL     1      25.591  46.874  52.068  1.00  0.00     0.210 C 
ENDBRANCH  27  36
ENDBRANCH  23  26
ENDBRANCH  20  22
ENDBRANCH   1  20
TORSDOF 8
ENDMDL
MODEL 8
REMARK VINA RESULT:      -8.9      4.753      9.354
REMARK  8 active torsions:
REMARK  status: ('A' for Active; 'I' for Inactive)
REMARK    1  A    between atoms: C_2  and  C_3 
REMARK    2  A    between atoms: C_3  and  C_4 
REMARK       I    between atoms: C_4  and  N_5 
REMARK    3  A    between atoms: N_8  and  C_9 
REMARK    4  A    between atoms: C_12  and  N_13 
REMARK    5  A    between atoms: N_13  and  C_14 
REMARK    6  A    between atoms: C_14  and  N_15 
REMARK       I    between atoms: N_15  and  C_16 
REMARK    7  A    between atoms: C_16  and  C_17 
REMARK    8  A    between atoms: C_18  and  O_19 
ROOT
HETATM    1  N   UNL     1      24.110  45.111  50.231  1.00  0.00    -0.333 N 
HETATM    2  H   UNL     1      23.107  45.131  50.381  1.00  0.00     0.168 HD
ENDROOT
BRANCH   1   3
HETATM    3  C   UNL     1      24.591  43.865  49.786  1.00  0.00     0.034 A 
HETATM    4  C   UNL     1      23.799  42.817  49.333  1.00  0.00     0.032 A 
HETATM    5  C   UNL     1      24.385  41.631  48.854  1.00  0.00     0.031 A 
HETATM    6  C   UNL     1      25.776  41.453  48.790  1.00  0.00     0.030 A 
HETATM    7  C   UNL     1      26.552  42.545  49.207  1.00  0.00     0.031 A 
HETATM    8  C   UNL     1      25.977  43.721  49.705  1.00  0.00     0.032 A 
BRANCH   6   9
HETATM    9  N   UNL     1      26.393  40.301  48.275  1.00  0.00    -0.378 N 
HETATM   10  C   UNL     1      27.567  40.463  47.393  1.00  0.00     0.143 C 
HETATM   11  C   UNL     1      28.307  39.125  47.194  1.00  0.00     0.145 C 
HETATM   12  N   UNL     1      27.426  38.010  46.824  1.00  0.00    -0.349 N 
HETATM   13  C   UNL     1      27.881  36.843  46.213  1.00  0.00     0.219 C 
HETATM   14  C   UNL     1      26.200  37.910  47.621  1.00  0.00     0.145 C 
HETATM   15  O   UNL     1      27.215  35.809  46.205  1.00  0.00    -0.273 OA
HETATM   16  C   UNL     1      25.465  39.253  47.775  1.00  0.00     0.143 C 
BRANCH  13  17
HETATM   17  C   UNL     1      29.237  36.917  45.525  1.00  0.00     0.103 C 
BRANCH  17  18
HETATM   18  C   UNL     1      29.146  37.530  44.127  1.00  0.00     0.005 C 
HETATM   19  C   UNL     1      30.440  37.345  43.352  1.00  0.00     0.005 C 
ENDBRANCH  17  18
ENDBRANCH  13  17
ENDBRANCH   6   9
ENDBRANCH   1   3
BRANCH   1  20
HETATM   20  C   UNL     1      24.723  46.187  50.756  1.00  0.00     0.179 C 
HETATM   21  S   UNL     1      24.663  47.626  49.896  1.00  0.00    -0.040 SA
BRANCH  20  22
HETATM   22  N   UNL     1      25.436  46.194  51.910  1.00  0.00    -0.299 N 
HETATM   23  C   UNL     1      25.439  45.271  52.957  1.00  0.00     0.260 C 
HETATM   24  O   UNL     1      24.590  44.419  53.172  1.00  0.00    -0.267 OA
HETATM   25  H   UNL     1      26.326  46.653  51.762  1.00  0.00     0.171 HD
BRANCH  23  26
HETATM   26  C   UNL     1      26.639  45.372  53.843  1.00  0.00     0.066 A 
HETATM   27  C   UNL     1      26.846  46.479  54.674  1.00  0.00     0.084 A 
HETATM   28  C   UNL     1      27.985  46.546  55.484  1.00  0.00     0.050 A 
HETATM   29  C   UNL     1      28.911  45.494  55.518  1.00  0.00    -0.023 A 
HETATM   30  C   UNL     1      28.706  44.367  54.690  1.00  0.00    -0.025 A 
HETATM   31  C   UNL     1      30.035  45.536  56.358  1.00  0.00     0.012 A 
HETATM   32  C   UNL     1      27.581  44.327  53.848  1.00  0.00     0.032 A 
HETATM   33  C   UNL     1      29.633  43.311  54.728  1.00  0.00     0.012 A 
HETATM   34  C   UNL     1      30.741  43.366  55.576  1.00  0.00     0.001 A 
HETATM   35  C   UNL     1      30.943  44.477  56.389  1.00  0.00     0.001 A 
BRANCH  27  36
HETATM   36  O   UNL     1      26.017  47.568  54.731  1.00  0.00    -0.355 OA
HETATM   37  C   UNL     1      26.409  48.487  55.749  1.00  0.00     0.210 C 
ENDBRANCH  27  36
ENDBRANCH  23  26
ENDBRANCH  20  22
ENDBRANCH   1  20
TORSDOF 8
ENDMDL
MODEL 9
REMARK VINA RESULT:      -8.7      2.618     11.959
REMARK  8 active torsions:
REMARK  status: ('A' for Active; 'I' for Inactive)
REMARK    1  A    between atoms: C_2  and  C_3 
REMARK    2  A    between atoms: C_3  and  C_4 
REMARK       I    between atoms: C_4  and  N_5 
REMARK    3  A    between atoms: N_8  and  C_9 
REMARK    4  A    between atoms: C_12  and  N_13 
REMARK    5  A    between atoms: N_13  and  C_14 
REMARK    6  A    between atoms: C_14  and  N_15 
REMARK       I    between atoms: N_15  and  C_16 
REMARK    7  A    between atoms: C_16  and  C_17 
REMARK    8  A    between atoms: C_18  and  O_19 
ROOT
HETATM    1  N   UNL     1      22.196  44.692  48.643  1.00  0.00    -0.333 N 
HETATM    2  H   UNL     1      21.648  43.871  48.878  1.00  0.00     0.168 HD
ENDROOT
BRANCH   1   3
HETATM    3  C   UNL     1      23.311  44.885  49.481  1.00  0.00     0.034 A 
HETATM    4  C   UNL     1      24.021  46.073  49.607  1.00  0.00     0.032 A 
HETATM    5  C   UNL     1      25.088  46.177  50.519  1.00  0.00     0.031 A 
HETATM    6  C   UNL     1      25.470  45.114  51.352  1.00  0.00     0.030 A 
HETATM    7  C   UNL     1      24.705  43.943  51.240  1.00  0.00     0.031 A 
HETATM    8  C   UNL     1      23.656  43.824  50.319  1.00  0.00     0.032 A 
BRANCH   6   9
HETATM    9  N   UNL     1      26.498  45.200  52.305  1.00  0.00    -0.378 N 
HETATM   10  C   UNL     1      27.307  43.996  52.583  1.00  0.00     0.143 C 
HETATM   11  C   UNL     1      28.576  44.345  53.385  1.00  0.00     0.145 C 
HETATM   12  N   UNL     1      28.319  45.181  54.564  1.00  0.00    -0.349 N 
HETATM   13  C   UNL     1      29.203  45.287  55.637  1.00  0.00     0.219 C 
HETATM   14  C   UNL     1      27.423  46.316  54.325  1.00  0.00     0.145 C 
HETATM   15  O   UNL     1      29.139  46.213  56.445  1.00  0.00    -0.273 OA
HETATM   16  C   UNL     1      26.151  45.932  53.551  1.00  0.00     0.143 C 
BRANCH  13  17
HETATM   17  C   UNL     1      30.237  44.179  55.781  1.00  0.00     0.103 C 
BRANCH  17  18
HETATM   18  C   UNL     1      30.963  44.234  57.125  1.00  0.00     0.005 C 
HETATM   19  C   UNL     1      32.051  43.176  57.215  1.00  0.00     0.005 C 
ENDBRANCH  17  18
ENDBRANCH  13  17
ENDBRANCH   6   9
ENDBRANCH   1   3
BRANCH   1  20
HETATM   20  C   UNL     1      21.554  45.503  47.784  1.00  0.00     0.179 C 
HETATM   21  S   UNL     1      21.770  45.239  46.141  1.00  0.00    -0.040 SA
BRANCH  20  22
HETATM   22  N   UNL     1      20.779  46.558  48.137  1.00  0.00    -0.299 N 
HETATM   23  C   UNL     1      20.961  47.919  47.880  1.00  0.00     0.260 C 
HETATM   24  O   UNL     1      22.001  48.456  47.531  1.00  0.00    -0.267 OA
HETATM   25  H   UNL     1      19.809  46.273  48.183  1.00  0.00     0.171 HD
BRANCH  23  26
HETATM   26  C   UNL     1      19.716  48.730  48.038  1.00  0.00     0.066 A 
HETATM   27  C   UNL     1      18.483  48.287  47.546  1.00  0.00     0.084 A 
HETATM   28  C   UNL     1      17.339  49.076  47.704  1.00  0.00     0.050 A 
HETATM   29  C   UNL     1      17.390  50.295  48.395  1.00  0.00    -0.023 A 
HETATM   30  C   UNL     1      18.628  50.747  48.904  1.00  0.00    -0.025 A 
HETATM   31  C   UNL     1      16.238  51.073  48.592  1.00  0.00     0.012 A 
HETATM   32  C   UNL     1      19.781  49.968  48.705  1.00  0.00     0.032 A 
HETATM   33  C   UNL     1      18.678  51.968  49.599  1.00  0.00     0.012 A 
HETATM   34  C   UNL     1      17.521  52.726  49.793  1.00  0.00     0.001 A 
HETATM   35  C   UNL     1      16.303  52.280  49.290  1.00  0.00     0.001 A 
BRANCH  27  36
HETATM   36  O   UNL     1      18.302  47.118  46.856  1.00  0.00    -0.355 OA
HETATM   37  C   UNL     1      18.193  47.336  45.451  1.00  0.00     0.210 C 
ENDBRANCH  27  36
ENDBRANCH  23  26
ENDBRANCH  20  22
ENDBRANCH   1  20
TORSDOF 8
ENDMDL
MODEL 10
REMARK VINA RESULT:      -8.5      3.177     11.376
REMARK  8 active torsions:
REMARK  status: ('A' for Active; 'I' for Inactive)
REMARK    1  A    between atoms: C_2  and  C_3 
REMARK    2  A    between atoms: C_3  and  C_4 
REMARK       I    between atoms: C_4  and  N_5 
REMARK    3  A    between atoms: N_8  and  C_9 
REMARK    4  A    between atoms: C_12  and  N_13 
REMARK    5  A    between atoms: N_13  and  C_14 
REMARK    6  A    between atoms: C_14  and  N_15 
REMARK       I    between atoms: N_15  and  C_16 
REMARK    7  A    between atoms: C_16  and  C_17 
REMARK    8  A    between atoms: C_18  and  O_19 
ROOT
HETATM    1  N   UNL     1      22.328  43.033  47.715  1.00  0.00    -0.333 N 
HETATM    2  H   UNL     1      21.769  42.224  47.965  1.00  0.00     0.168 HD
ENDROOT
BRANCH   1   3
HETATM    3  C   UNL     1      23.258  43.405  48.705  1.00  0.00     0.034 A 
HETATM    4  C   UNL     1      22.952  44.101  49.868  1.00  0.00     0.032 A 
HETATM    5  C   UNL     1      23.949  44.373  50.823  1.00  0.00     0.031 A 
HETATM    6  C   UNL     1      25.277  43.945  50.665  1.00  0.00     0.030 A 
HETATM    7  C   UNL     1      25.547  43.202  49.505  1.00  0.00     0.031 A 
HETATM    8  C   UNL     1      24.565  42.946  48.540  1.00  0.00     0.032 A 
BRANCH   6   9
HETATM    9  N   UNL     1      26.284  44.160  51.619  1.00  0.00    -0.378 N 
HETATM   10  C   UNL     1      27.247  43.072  51.887  1.00  0.00     0.143 C 
HETATM   11  C   UNL     1      28.458  43.581  52.694  1.00  0.00     0.145 C 
HETATM   12  N   UNL     1      28.092  44.364  53.880  1.00  0.00    -0.349 N 
HETATM   13  C   UNL     1      28.954  44.578  54.955  1.00  0.00     0.219 C 
HETATM   14  C   UNL     1      27.052  45.371  53.650  1.00  0.00     0.145 C 
HETATM   15  O   UNL     1      28.767  45.480  55.771  1.00  0.00    -0.273 OA
HETATM   16  C   UNL     1      25.842  44.828  52.871  1.00  0.00     0.143 C 
BRANCH  13  17
HETATM   17  C   UNL     1      30.127  43.618  55.090  1.00  0.00     0.103 C 
BRANCH  17  18
HETATM   18  C   UNL     1      31.221  44.163  56.008  1.00  0.00     0.005 C 
HETATM   19  C   UNL     1      31.529  43.199  57.142  1.00  0.00     0.005 C 
ENDBRANCH  17  18
ENDBRANCH  13  17
ENDBRANCH   6   9
ENDBRANCH   1   3
BRANCH   1  20
HETATM   20  C   UNL     1      21.838  43.676  46.640  1.00  0.00     0.179 C 
HETATM   21  S   UNL     1      22.141  43.023  45.125  1.00  0.00    -0.040 SA
BRANCH  20  22
HETATM   22  N   UNL     1      21.155  44.848  46.675  1.00  0.00    -0.299 N 
HETATM   23  C   UNL     1      20.202  45.293  47.594  1.00  0.00     0.260 C 
HETATM   24  O   UNL     1      19.587  44.600  48.390  1.00  0.00    -0.267 OA
HETATM   25  H   UNL     1      21.718  45.586  46.273  1.00  0.00     0.171 HD
BRANCH  23  26
HETATM   26  C   UNL     1      19.987  46.772  47.566  1.00  0.00     0.066 A 
HETATM   27  C   UNL     1      19.050  47.361  46.710  1.00  0.00     0.084 A 
HETATM   28  C   UNL     1      18.881  48.750  46.703  1.00  0.00     0.050 A 
HETATM   29  C   UNL     1      19.604  49.571  47.580  1.00  0.00    -0.023 A 
HETATM   30  C   UNL     1      20.546  48.985  48.455  1.00  0.00    -0.025 A 
HETATM   31  C   UNL     1      19.411  50.961  47.607  1.00  0.00     0.012 A 
HETATM   32  C   UNL     1      20.740  47.593  48.426  1.00  0.00     0.032 A 
HETATM   33  C   UNL     1      21.268  49.809  49.336  1.00  0.00     0.012 A 
HETATM   34  C   UNL     1      21.057  51.189  49.355  1.00  0.00     0.001 A 
HETATM   35  C   UNL     1      20.130  51.765  48.492  1.00  0.00     0.001 A 
BRANCH  27  36
HETATM   36  O   UNL     1      18.284  46.669  45.810  1.00  0.00    -0.355 OA
HETATM   37  C   UNL     1      18.778  46.794  44.477  1.00  0.00     0.210 C 
ENDBRANCH  27  36
ENDBRANCH  23  26
ENDBRANCH  20  22
ENDBRANCH   1  20
TORSDOF 8
ENDMDL
