MODEL 1
REMARK VINA RESULT:      -9.8      0.000      0.000
REMARK  6 active torsions:
REMARK  status: ('A' for Active; 'I' for Inactive)
REMARK    1  A    between atoms: C_2  and  C_3 
REMARK       I    between atoms: C_3  and  N_4 
REMARK    2  A    between atoms: N_4  and  C_5 
REMARK    3  A    between atoms: C_8  and  N_9 
REMARK       I    between atoms: N_9  and  C_10 
REMARK    4  A    between atoms: C_10  and  C_11 
REMARK    5  A    between atoms: C_16  and  C_17 
REMARK    6  A    between atoms: C_23  and  C_24 
ROOT
HETATM    1  C   UNL     1      24.496  46.989  50.107  1.00  0.00     0.148 C 
HETATM    2  N   UNL     1      24.093  48.265  50.324  1.00  0.00    -0.165 NA
HETATM    3  N   UNL     1      23.080  48.414  49.456  1.00  0.00    -0.240 N 
HETATM    4  C   UNL     1      22.694  47.257  48.845  1.00  0.00     0.123 C 
HETATM    5  N   UNL     1      21.572  47.210  48.101  1.00  0.00    -0.364 N 
HETATM    6  C   UNL     1      20.542  48.259  48.147  1.00  0.00     0.143 C 
HETATM    7  C   UNL     1      20.864  49.341  49.207  1.00  0.00     0.068 C 
HETATM    8  C   UNL     1      22.359  49.659  49.301  1.00  0.00     0.221 C 
HETATM    9  C   UNL     1      23.652  46.333  49.166  1.00  0.00     0.089 C 
HETATM   10  H   UNL     1      21.292  46.356  47.622  1.00  0.00     0.162 HD
ENDROOT
BRANCH   1  11
HETATM   11  C   UNL     1      25.639  46.405  50.831  1.00  0.00     0.276 C 
HETATM   12  N   UNL     1      25.580  46.694  52.180  1.00  0.00    -0.322 N 
HETATM   13  H   UNL     1      24.744  47.210  52.442  1.00  0.00     0.169 HD
HETATM   14  O   UNL     1      26.480  45.717  50.262  1.00  0.00    -0.266 OA
BRANCH  12  15
HETATM   15  C   UNL     1      26.487  46.345  53.189  1.00  0.00     0.035 A 
HETATM   16  C   UNL     1      26.830  45.033  53.506  1.00  0.00     0.032 A 
HETATM   17  C   UNL     1      27.788  44.767  54.495  1.00  0.00     0.032 A 
HETATM   18  C   UNL     1      28.396  45.807  55.196  1.00  0.00     0.034 A 
HETATM   19  C   UNL     1      28.025  47.123  54.899  1.00  0.00     0.032 A 
HETATM   20  C   UNL     1      27.092  47.391  53.892  1.00  0.00     0.032 A 
BRANCH  18  21
HETATM   21  N   UNL     1      29.374  45.627  56.194  1.00  0.00    -0.327 N 
HETATM   22  C   UNL     1      29.258  45.908  57.543  1.00  0.00     0.221 C 
HETATM   23  O   UNL     1      28.282  46.390  58.108  1.00  0.00    -0.273 OA
HETATM   24  H   UNL     1      30.235  45.195  55.889  1.00  0.00     0.169 HD
BRANCH  22  25
HETATM   25  C   UNL     1      30.520  45.591  58.333  1.00  0.00     0.098 C 
HETATM   26  C   UNL     1      31.226  44.329  57.873  1.00  0.00     0.014 C 
ENDBRANCH  22  25
ENDBRANCH  18  21
ENDBRANCH  12  15
ENDBRANCH   1  11
BRANCH   8  27
HETATM   27  C   UNL     1      22.877  50.417  48.099  1.00  0.00     0.409 C 
HETATM   28  F   UNL     1      21.963  50.486  47.106  1.00  0.00    -0.169 F 
HETATM   29  F   UNL     1      23.277  51.673  48.380  1.00  0.00    -0.169 F 
HETATM   30  F   UNL     1      23.957  49.772  47.586  1.00  0.00    -0.169 F 
ENDBRANCH   8  27
BRANCH   6  31
HETATM   31  C   UNL     1      19.177  47.707  48.431  1.00  0.00     0.075 A 
HETATM   32  O   UNL     1      18.870  46.500  47.875  1.00  0.00    -0.325 OA
HETATM   33  C   UNL     1      17.590  46.216  48.231  1.00  0.00     0.142 A 
HETATM   34  C   UNL     1      17.066  47.226  49.004  1.00  0.00     0.027 A 
HETATM   35  C   UNL     1      18.091  48.192  49.135  1.00  0.00     0.037 A 
ENDBRANCH   6  31
TORSDOF 6
ENDMDL
MODEL 2
REMARK VINA RESULT:      -9.3      1.551      1.871
REMARK  6 active torsions:
REMARK  status: ('A' for Active; 'I' for Inactive)
REMARK    1  A    between atoms: C_2  and  C_3 
REMARK       I    between atoms: C_3  and  N_4 
REMARK    2  A    between atoms: N_4  and  C_5 
REMARK    3  A    between atoms: C_8  and  N_9 
REMARK       I    between atoms: N_9  and  C_10 
REMARK    4  A    between atoms: C_10  and  C_11 
REMARK    5  A    between atoms: C_16  and  C_17 
REMARK    6  A    between atoms: C_23  and  C_24 
ROOT
HETATM    1  C   UNL     1      24.256  47.703  49.657  1.00  0.00     0.148 C 
HETATM    2  N   UNL     1      23.622  48.798  50.144  1.00  0.00    -0.165 NA
HETATM    3  N   UNL     1      22.555  48.913  49.339  1.00  0.00    -0.240 N 
HETATM    4  C   UNL     1      22.372  47.853  48.500  1.00  0.00     0.123 C 
HETATM    5  N   UNL     1      21.243  47.734  47.774  1.00  0.00    -0.364 N 
HETATM    6  C   UNL     1      20.031  48.519  48.053  1.00  0.00     0.143 C 
HETATM    7  C   UNL     1      20.189  49.401  49.316  1.00  0.00     0.068 C 
HETATM    8  C   UNL     1      21.596  49.991  49.459  1.00  0.00     0.221 C 
HETATM    9  C   UNL     1      23.509  47.097  48.607  1.00  0.00     0.089 C 
HETATM   10  H   UNL     1      21.110  46.958  47.128  1.00  0.00     0.162 HD
ENDROOT
BRANCH   1  11
HETATM   11  C   UNL     1      25.529  47.227  50.228  1.00  0.00     0.276 C 
HETATM   12  N   UNL     1      25.338  46.107  51.012  1.00  0.00    -0.322 N 
HETATM   13  H   UNL     1      24.375  45.782  51.020  1.00  0.00     0.169 HD
HETATM   14  O   UNL     1      26.597  47.769  49.964  1.00  0.00    -0.266 OA
BRANCH  12  15
HETATM   15  C   UNL     1      26.288  45.381  51.744  1.00  0.00     0.035 A 
HETATM   16  C   UNL     1      27.202  44.501  51.172  1.00  0.00     0.032 A 
HETATM   17  C   UNL     1      28.158  43.851  51.967  1.00  0.00     0.032 A 
HETATM   18  C   UNL     1      28.195  44.055  53.345  1.00  0.00     0.034 A 
HETATM   19  C   UNL     1      27.254  44.915  53.922  1.00  0.00     0.032 A 
HETATM   20  C   UNL     1      26.320  45.586  53.127  1.00  0.00     0.032 A 
BRANCH  18  21
HETATM   21  N   UNL     1      29.128  43.452  54.213  1.00  0.00    -0.327 N 
HETATM   22  C   UNL     1      29.841  44.058  55.231  1.00  0.00     0.221 C 
HETATM   23  O   UNL     1      29.802  45.243  55.545  1.00  0.00    -0.273 OA
HETATM   24  H   UNL     1      29.243  42.454  54.106  1.00  0.00     0.169 HD
BRANCH  22  25
HETATM   25  C   UNL     1      30.767  43.102  55.968  1.00  0.00     0.098 C 
HETATM   26  C   UNL     1      31.566  43.761  57.078  1.00  0.00     0.014 C 
ENDBRANCH  22  25
ENDBRANCH  18  21
ENDBRANCH  12  15
ENDBRANCH   1  11
BRANCH   8  27
HETATM   27  C   UNL     1      21.890  51.069  48.441  1.00  0.00     0.409 C 
HETATM   28  F   UNL     1      20.857  51.928  48.295  1.00  0.00    -0.169 F 
HETATM   29  F   UNL     1      22.993  51.792  48.718  1.00  0.00    -0.169 F 
HETATM   30  F   UNL     1      22.095  50.501  47.224  1.00  0.00    -0.169 F 
ENDBRANCH   8  27
BRANCH   6  31
HETATM   31  C   UNL     1      18.818  47.655  48.228  1.00  0.00     0.075 A 
HETATM   32  O   UNL     1      17.725  48.234  48.804  1.00  0.00    -0.325 OA
HETATM   33  C   UNL     1      16.770  47.271  48.894  1.00  0.00     0.142 A 
HETATM   34  C   UNL     1      17.235  46.079  48.390  1.00  0.00     0.027 A 
HETATM   35  C   UNL     1      18.559  46.325  47.958  1.00  0.00     0.037 A 
ENDBRANCH   6  31
TORSDOF 6
ENDMDL
MODEL 3
REMARK VINA RESULT:      -9.2      4.391     10.488
REMARK  6 active torsions:
REMARK  status: ('A' for Active; 'I' for Inactive)
REMARK    1  A    between atoms: C_2  and  C_3 
REMARK       I    between atoms: C_3  and  N_4 
REMARK    2  A    between atoms: N_4  and  C_5 
REMARK    3  A    between atoms: C_8  and  N_9 
REMARK       I    between atoms: N_9  and  C_10 
REMARK    4  A    between atoms: C_10  and  C_11 
REMARK    5  A    between atoms: C_16  and  C_17 
REMARK    6  A    between atoms: C_23  and  C_24 
ROOT
HETATM    1  C   UNL     1      25.811  44.348  50.007  1.00  0.00     0.148 C 
HETATM    2  N   UNL     1      25.603  43.144  50.593  1.00  0.00    -0.165 NA
HETATM    3  N   UNL     1      26.803  42.853  51.119  1.00  0.00    -0.240 N 
HETATM    4  C   UNL     1      27.699  43.881  51.068  1.00  0.00     0.123 C 
HETATM    5  N   UNL     1      28.872  43.806  51.726  1.00  0.00    -0.364 N 
HETATM    6  C   UNL     1      29.139  42.805  52.769  1.00  0.00     0.143 C 
HETATM    7  C   UNL     1      27.892  41.937  53.070  1.00  0.00     0.068 C 
HETATM    8  C   UNL     1      27.072  41.614  51.818  1.00  0.00     0.221 C 
HETATM    9  C   UNL     1      27.125  44.831  50.267  1.00  0.00     0.089 C 
HETATM   10  H   UNL     1      29.556  44.560  51.672  1.00  0.00     0.162 HD
ENDROOT
BRANCH   1  11
HETATM   11  C   UNL     1      24.746  45.038  49.256  1.00  0.00     0.276 C 
HETATM   12  N   UNL     1      24.544  46.318  49.734  1.00  0.00    -0.322 N 
HETATM   13  H   UNL     1      25.189  46.575  50.476  1.00  0.00     0.169 HD
HETATM   14  O   UNL     1      24.180  44.509  48.306  1.00  0.00    -0.266 OA
BRANCH  12  15
HETATM   15  C   UNL     1      23.610  47.272  49.308  1.00  0.00     0.035 A 
HETATM   16  C   UNL     1      22.319  46.963  48.890  1.00  0.00     0.032 A 
HETATM   17  C   UNL     1      21.424  47.980  48.528  1.00  0.00     0.032 A 
HETATM   18  C   UNL     1      21.817  49.317  48.558  1.00  0.00     0.034 A 
HETATM   19  C   UNL     1      23.125  49.623  48.947  1.00  0.00     0.032 A 
HETATM   20  C   UNL     1      24.009  48.612  49.336  1.00  0.00     0.032 A 
BRANCH  18  21
HETATM   21  N   UNL     1      20.978  50.400  48.223  1.00  0.00    -0.327 N 
HETATM   22  C   UNL     1      20.334  51.262  49.090  1.00  0.00     0.221 C 
HETATM   23  O   UNL     1      20.361  51.220  50.316  1.00  0.00    -0.273 OA
HETATM   24  H   UNL     1      20.887  50.592  47.235  1.00  0.00     0.169 HD
BRANCH  22  25
HETATM   25  C   UNL     1      19.503  52.320  48.379  1.00  0.00     0.098 C 
HETATM   26  C   UNL     1      18.111  52.495  48.961  1.00  0.00     0.014 C 
ENDBRANCH  22  25
ENDBRANCH  18  21
ENDBRANCH  12  15
ENDBRANCH   1  11
BRANCH   8  27
HETATM   27  C   UNL     1      27.763  40.633  50.897  1.00  0.00     0.409 C 
HETATM   28  F   UNL     1      28.248  41.231  49.787  1.00  0.00    -0.169 F 
HETATM   29  F   UNL     1      28.774  39.959  51.480  1.00  0.00    -0.169 F 
HETATM   30  F   UNL     1      26.869  39.700  50.474  1.00  0.00    -0.169 F 
ENDBRANCH   8  27
BRANCH   6  31
HETATM   31  C   UNL     1      29.606  43.425  54.052  1.00  0.00     0.075 A 
HETATM   32  O   UNL     1      28.965  44.558  54.460  1.00  0.00    -0.325 OA
HETATM   33  C   UNL     1      29.567  44.960  55.609  1.00  0.00     0.142 A 
HETATM   34  C   UNL     1      30.591  44.104  55.944  1.00  0.00     0.027 A 
HETATM   35  C   UNL     1      30.617  43.110  54.938  1.00  0.00     0.037 A 
ENDBRANCH   6  31
TORSDOF 6
ENDMDL
MODEL 4
REMARK VINA RESULT:      -8.9      3.403      4.672
REMARK  6 active torsions:
REMARK  status: ('A' for Active; 'I' for Inactive)
REMARK    1  A    between atoms: C_2  and  C_3 
REMARK       I    between atoms: C_3  and  N_4 
REMARK    2  A    between atoms: N_4  and  C_5 
REMARK    3  A    between atoms: C_8  and  N_9 
REMARK       I    between atoms: N_9  and  C_10 
REMARK    4  A    between atoms: C_10  and  C_11 
REMARK    5  A    between atoms: C_16  and  C_17 
REMARK    6  A    between atoms: C_23  and  C_24 
ROOT
HETATM    1  C   UNL     1      22.695  48.953  49.035  1.00  0.00     0.148 C 
HETATM    2  N   UNL     1      21.557  48.270  49.309  1.00  0.00    -0.165 NA
HETATM    3  N   UNL     1      20.593  49.157  49.012  1.00  0.00    -0.240 N 
HETATM    4  C   UNL     1      21.045  50.283  48.387  1.00  0.00     0.123 C 
HETATM    5  N   UNL     1      20.182  51.169  47.856  1.00  0.00    -0.364 N 
HETATM    6  C   UNL     1      18.764  50.859  47.621  1.00  0.00     0.143 C 
HETATM    7  C   UNL     1      18.429  49.387  47.966  1.00  0.00     0.068 C 
HETATM    8  C   UNL     1      19.186  48.874  49.195  1.00  0.00     0.221 C 
HETATM    9  C   UNL     1      22.410  50.231  48.475  1.00  0.00     0.089 C 
HETATM   10  H   UNL     1      20.511  52.024  47.409  1.00  0.00     0.162 HD
ENDROOT
BRANCH   1  11
HETATM   11  C   UNL     1      24.026  48.362  49.263  1.00  0.00     0.276 C 
HETATM   12  N   UNL     1      23.931  47.150  49.919  1.00  0.00    -0.322 N 
HETATM   13  H   UNL     1      22.971  46.859  50.084  1.00  0.00     0.169 HD
HETATM   14  O   UNL     1      25.049  48.900  48.856  1.00  0.00    -0.266 OA
BRANCH  12  15
HETATM   15  C   UNL     1      24.963  46.300  50.338  1.00  0.00     0.035 A 
HETATM   16  C   UNL     1      25.672  45.459  49.484  1.00  0.00     0.032 A 
HETATM   17  C   UNL     1      26.728  44.676  49.972  1.00  0.00     0.032 A 
HETATM   18  C   UNL     1      27.073  44.707  51.322  1.00  0.00     0.034 A 
HETATM   19  C   UNL     1      26.339  45.527  52.184  1.00  0.00     0.032 A 
HETATM   20  C   UNL     1      25.304  46.331  51.694  1.00  0.00     0.032 A 
BRANCH  18  21
HETATM   21  N   UNL     1      28.127  43.962  51.890  1.00  0.00    -0.327 N 
HETATM   22  C   UNL     1      28.139  42.610  52.177  1.00  0.00     0.221 C 
HETATM   23  O   UNL     1      27.217  41.819  52.008  1.00  0.00    -0.273 OA
HETATM   24  H   UNL     1      28.984  44.472  52.052  1.00  0.00     0.169 HD
BRANCH  22  25
HETATM   25  C   UNL     1      29.449  42.138  52.791  1.00  0.00     0.098 C 
HETATM   26  C   UNL     1      29.917  42.991  53.957  1.00  0.00     0.014 C 
ENDBRANCH  22  25
ENDBRANCH  18  21
ENDBRANCH  12  15
ENDBRANCH   1  11
BRANCH   8  27
HETATM   27  C   UNL     1      18.694  49.485  50.488  1.00  0.00     0.409 C 
HETATM   28  F   UNL     1      17.625  50.289  50.299  1.00  0.00    -0.169 F 
HETATM   29  F   UNL     1      18.365  48.576  51.428  1.00  0.00    -0.169 F 
HETATM   30  F   UNL     1      19.671  50.261  51.025  1.00  0.00    -0.169 F 
ENDBRANCH   8  27
BRANCH   6  31
HETATM   31  C   UNL     1      18.346  51.120  46.205  1.00  0.00     0.075 A 
HETATM   32  O   UNL     1      17.533  52.194  45.989  1.00  0.00    -0.325 OA
HETATM   33  C   UNL     1      17.257  52.218  44.658  1.00  0.00     0.142 A 
HETATM   34  C   UNL     1      17.877  51.172  44.016  1.00  0.00     0.027 A 
HETATM   35  C   UNL     1      18.583  50.461  45.015  1.00  0.00     0.037 A 
ENDBRANCH   6  31
TORSDOF 6
ENDMDL
MODEL 5
REMARK VINA RESULT:      -8.9      3.760     10.401
REMARK  6 active torsions:
REMARK  status: ('A' for Active; 'I' for Inactive)
REMARK    1  A    between atoms: C_2  and  C_3 
REMARK       I    between atoms: C_3  and  N_4 
REMARK    2  A    between atoms: N_4  and  C_5 
REMARK    3  A    between atoms: C_8  and  N_9 
REMARK       I    between atoms: N_9  and  C_10 
REMARK    4  A    between atoms: C_10  and  C_11 
REMARK    5  A    between atoms: C_16  and  C_17 
REMARK    6  A    between atoms: C_23  and  C_24 
ROOT
HETATM    1  C   UNL     1      24.940  46.727  49.947  1.00  0.00     0.148 C 
HETATM    2  N   UNL     1      24.304  45.649  50.465  1.00  0.00    -0.165 NA
HETATM    3  N   UNL     1      25.293  44.750  50.597  1.00  0.00    -0.240 N 
HETATM    4  C   UNL     1      26.540  45.257  50.379  1.00  0.00     0.123 C 
HETATM    5  N   UNL     1      27.639  44.531  50.663  1.00  0.00    -0.364 N 
HETATM    6  C   UNL     1      27.600  43.321  51.498  1.00  0.00     0.143 C 
HETATM    7  C   UNL     1      26.186  43.057  52.070  1.00  0.00     0.068 C 
HETATM    8  C   UNL     1      25.068  43.405  51.083  1.00  0.00     0.221 C 
HETATM    9  C   UNL     1      26.344  46.508  49.858  1.00  0.00     0.089 C 
HETATM   10  H   UNL     1      28.573  44.894  50.479  1.00  0.00     0.162 HD
ENDROOT
BRANCH   1  11
HETATM   11  C   UNL     1      24.211  47.960  49.595  1.00  0.00     0.276 C 
HETATM   12  N   UNL     1      22.846  47.753  49.596  1.00  0.00    -0.322 N 
HETATM   13  H   UNL     1      22.584  46.814  49.883  1.00  0.00     0.169 HD
HETATM   14  O   UNL     1      24.796  49.017  49.385  1.00  0.00    -0.266 OA
BRANCH  12  15
HETATM   15  C   UNL     1      21.824  48.662  49.288  1.00  0.00     0.035 A 
HETATM   16  C   UNL     1      21.977  50.045  49.330  1.00  0.00     0.032 A 
HETATM   17  C   UNL     1      20.921  50.889  48.955  1.00  0.00     0.032 A 
HETATM   18  C   UNL     1      19.694  50.360  48.558  1.00  0.00     0.034 A 
HETATM   19  C   UNL     1      19.533  48.971  48.548  1.00  0.00     0.032 A 
HETATM   20  C   UNL     1      20.594  48.128  48.893  1.00  0.00     0.032 A 
BRANCH  18  21
HETATM   21  N   UNL     1      18.587  51.136  48.155  1.00  0.00    -0.327 N 
HETATM   22  C   UNL     1      17.531  51.561  48.939  1.00  0.00     0.221 C 
HETATM   23  O   UNL     1      17.357  51.313  50.128  1.00  0.00    -0.273 OA
HETATM   24  H   UNL     1      18.605  51.458  47.198  1.00  0.00     0.169 HD
BRANCH  22  25
HETATM   25  C   UNL     1      16.506  52.383  48.171  1.00  0.00     0.098 C 
HETATM   26  C   UNL     1      15.382  52.920  49.040  1.00  0.00     0.014 C 
ENDBRANCH  22  25
ENDBRANCH  18  21
ENDBRANCH  12  15
ENDBRANCH   1  11
BRANCH   8  27
HETATM   27  C   UNL     1      24.983  42.438  49.924  1.00  0.00     0.409 C 
HETATM   28  F   UNL     1      25.596  41.264  50.191  1.00  0.00    -0.169 F 
HETATM   29  F   UNL     1      23.721  42.165  49.534  1.00  0.00    -0.169 F 
HETATM   30  F   UNL     1      25.615  42.966  48.843  1.00  0.00    -0.169 F 
ENDBRANCH   8  27
BRANCH   6  31
HETATM   31  C   UNL     1      28.570  43.383  52.640  1.00  0.00     0.075 A 
HETATM   32  O   UNL     1      28.227  44.170  53.700  1.00  0.00    -0.325 OA
HETATM   33  C   UNL     1      29.252  44.105  54.589  1.00  0.00     0.142 A 
HETATM   34  C   UNL     1      30.253  43.290  54.113  1.00  0.00     0.027 A 
HETATM   35  C   UNL     1      29.814  42.822  52.853  1.00  0.00     0.037 A 
ENDBRANCH   6  31
TORSDOF 6
ENDMDL
MODEL 6
REMARK VINA RESULT:      -8.8      4.113     10.429
REMARK  6 active torsions:
REMARK  status: ('A' for Active; 'I' for Inactive)
REMARK    1  A    between atoms: C_2  and  C_3 
REMARK       I    between atoms: C_3  and  N_4 
REMARK    2  A    between atoms: N_4  and  C_5 
REMARK    3  A    between atoms: C_8  and  N_9 
REMARK       I    between atoms: N_9  and  C_10 
REMARK    4  A    between atoms: C_10  and  C_11 
REMARK    5  A    between atoms: C_16  and  C_17 
REMARK    6  A    between atoms: C_23  and  C_24 
ROOT
HETATM    1  C   UNL     1      24.572  47.041  50.530  1.00  0.00     0.148 C 
HETATM    2  N   UNL     1      25.601  47.258  51.386  1.00  0.00    -0.165 NA
HETATM    3  N   UNL     1      25.786  46.052  51.946  1.00  0.00    -0.240 N 
HETATM    4  C   UNL     1      25.071  45.048  51.361  1.00  0.00     0.123 C 
HETATM    5  N   UNL     1      25.298  43.761  51.684  1.00  0.00    -0.364 N 
HETATM    6  C   UNL     1      26.498  43.322  52.413  1.00  0.00     0.143 C 
HETATM    7  C   UNL     1      27.483  44.490  52.664  1.00  0.00     0.068 C 
HETATM    8  C   UNL     1      26.774  45.811  52.977  1.00  0.00     0.221 C 
HETATM    9  C   UNL     1      24.199  45.667  50.506  1.00  0.00     0.089 C 
HETATM   10  H   UNL     1      24.751  43.008  51.269  1.00  0.00     0.162 HD
ENDROOT
BRANCH   1  11
HETATM   11  C   UNL     1      23.998  48.130  49.719  1.00  0.00     0.276 C 
HETATM   12  N   UNL     1      22.622  48.035  49.654  1.00  0.00    -0.322 N 
HETATM   13  H   UNL     1      22.247  47.271  50.209  1.00  0.00     0.169 HD
HETATM   14  O   UNL     1      24.699  49.008  49.229  1.00  0.00    -0.266 OA
BRANCH  12  15
HETATM   15  C   UNL     1      21.721  48.857  48.962  1.00  0.00     0.035 A 
HETATM   16  C   UNL     1      21.674  50.241  49.095  1.00  0.00     0.032 A 
HETATM   17  C   UNL     1      20.778  51.000  48.328  1.00  0.00     0.032 A 
HETATM   18  C   UNL     1      19.903  50.381  47.436  1.00  0.00     0.034 A 
HETATM   19  C   UNL     1      19.930  48.987  47.329  1.00  0.00     0.032 A 
HETATM   20  C   UNL     1      20.843  48.232  48.072  1.00  0.00     0.032 A 
BRANCH  18  21
HETATM   21  N   UNL     1      18.982  51.069  46.620  1.00  0.00    -0.327 N 
HETATM   22  C   UNL     1      17.728  51.530  46.975  1.00  0.00     0.221 C 
HETATM   23  O   UNL     1      17.183  51.399  48.067  1.00  0.00    -0.273 OA
HETATM   24  H   UNL     1      19.305  51.291  45.689  1.00  0.00     0.169 HD
BRANCH  22  25
HETATM   25  C   UNL     1      17.000  52.230  45.837  1.00  0.00     0.098 C 
HETATM   26  C   UNL     1      17.492  51.823  44.459  1.00  0.00     0.014 C 
ENDBRANCH  22  25
ENDBRANCH  18  21
ENDBRANCH  12  15
ENDBRANCH   1  11
BRANCH   8  27
HETATM   27  C   UNL     1      26.122  45.822  54.340  1.00  0.00     0.409 C 
HETATM   28  F   UNL     1      25.863  47.076  54.772  1.00  0.00    -0.169 F 
HETATM   29  F   UNL     1      24.973  45.120  54.399  1.00  0.00    -0.169 F 
HETATM   30  F   UNL     1      26.963  45.266  55.251  1.00  0.00    -0.169 F 
ENDBRANCH   8  27
BRANCH   6  31
HETATM   31  C   UNL     1      27.233  42.228  51.698  1.00  0.00     0.075 A 
HETATM   32  O   UNL     1      27.116  42.189  50.339  1.00  0.00    -0.325 OA
HETATM   33  C   UNL     1      27.825  41.112  49.912  1.00  0.00     0.142 A 
HETATM   34  C   UNL     1      28.392  40.453  50.977  1.00  0.00     0.027 A 
HETATM   35  C   UNL     1      28.011  41.173  52.134  1.00  0.00     0.037 A 
ENDBRANCH   6  31
TORSDOF 6
ENDMDL
MODEL 7
REMARK VINA RESULT:      -8.8      2.269      2.928
REMARK  6 active torsions:
REMARK  status: ('A' for Active; 'I' for Inactive)
REMARK    1  A    between atoms: C_2  and  C_3 
REMARK       I    between atoms: C_3  and  N_4 
REMARK    2  A    between atoms: N_4  and  C_5 
REMARK    3  A    between atoms: C_8  and  N_9 
REMARK       I    between atoms: N_9  and  C_10 
REMARK    4  A    between atoms: C_10  and  C_11 
REMARK    5  A    between atoms: C_16  and  C_17 
REMARK    6  A    between atoms: C_23  and  C_24 
ROOT
HETATM    1  C   UNL     1      22.743  46.741  48.651  1.00  0.00     0.148 C 
HETATM    2  N   UNL     1      22.532  47.824  49.439  1.00  0.00    -0.165 NA
HETATM    3  N   UNL     1      21.616  48.524  48.751  1.00  0.00    -0.240 N 
HETATM    4  C   UNL     1      21.095  47.860  47.679  1.00  0.00     0.123 C 
HETATM    5  N   UNL     1      20.033  48.352  47.012  1.00  0.00    -0.364 N 
HETATM    6  C   UNL     1      19.180  49.421  47.551  1.00  0.00     0.143 C 
HETATM    7  C   UNL     1      19.595  49.825  48.988  1.00  0.00     0.068 C 
HETATM    8  C   UNL     1      21.111  49.805  49.199  1.00  0.00     0.221 C 
HETATM    9  C   UNL     1      21.872  46.743  47.524  1.00  0.00     0.089 C 
HETATM   10  H   UNL     1      19.655  47.874  46.196  1.00  0.00     0.162 HD
ENDROOT
BRANCH   1  11
HETATM   11  C   UNL     1      23.728  45.705  49.007  1.00  0.00     0.276 C 
HETATM   12  N   UNL     1      24.421  46.044  50.153  1.00  0.00    -0.322 N 
HETATM   13  H   UNL     1      24.101  46.913  50.571  1.00  0.00     0.169 HD
HETATM   14  O   UNL     1      23.840  44.671  48.359  1.00  0.00    -0.266 OA
BRANCH  12  15
HETATM   15  C   UNL     1      25.451  45.340  50.793  1.00  0.00     0.035 A 
HETATM   16  C   UNL     1      26.675  45.047  50.199  1.00  0.00     0.032 A 
HETATM   17  C   UNL     1      27.677  44.384  50.924  1.00  0.00     0.032 A 
HETATM   18  C   UNL     1      27.456  43.986  52.241  1.00  0.00     0.034 A 
HETATM   19  C   UNL     1      26.213  44.253  52.824  1.00  0.00     0.032 A 
HETATM   20  C   UNL     1      25.225  44.940  52.113  1.00  0.00     0.032 A 
BRANCH  18  21
HETATM   21  N   UNL     1      28.411  43.327  53.043  1.00  0.00    -0.327 N 
HETATM   22  C   UNL     1      29.089  43.840  54.133  1.00  0.00     0.221 C 
HETATM   23  O   UNL     1      28.995  44.977  54.583  1.00  0.00    -0.273 OA
HETATM   24  H   UNL     1      28.572  42.355  52.820  1.00  0.00     0.169 HD
BRANCH  22  25
HETATM   25  C   UNL     1      30.054  42.846  54.763  1.00  0.00     0.098 C 
HETATM   26  C   UNL     1      30.891  43.436  55.884  1.00  0.00     0.014 C 
ENDBRANCH  22  25
ENDBRANCH  18  21
ENDBRANCH  12  15
ENDBRANCH   1  11
BRANCH   8  27
HETATM   27  C   UNL     1      21.822  50.928  48.478  1.00  0.00     0.409 C 
HETATM   28  F   UNL     1      22.877  51.398  49.180  1.00  0.00    -0.169 F 
HETATM   29  F   UNL     1      22.260  50.593  47.248  1.00  0.00    -0.169 F 
HETATM   30  F   UNL     1      20.970  51.974  48.314  1.00  0.00    -0.169 F 
ENDBRANCH   8  27
BRANCH   6  31
HETATM   31  C   UNL     1      17.729  49.043  47.566  1.00  0.00     0.075 A 
HETATM   32  O   UNL     1      16.832  50.042  47.810  1.00  0.00    -0.325 OA
HETATM   33  C   UNL     1      15.598  49.473  47.811  1.00  0.00     0.142 A 
HETATM   34  C   UNL     1      15.688  48.121  47.578  1.00  0.00     0.027 A 
HETATM   35  C   UNL     1      17.066  47.840  47.418  1.00  0.00     0.037 A 
ENDBRANCH   6  31
TORSDOF 6
ENDMDL
MODEL 8
REMARK VINA RESULT:      -8.7      4.185     10.263
REMARK  6 active torsions:
REMARK  status: ('A' for Active; 'I' for Inactive)
REMARK    1  A    between atoms: C_2  and  C_3 
REMARK       I    between atoms: C_3  and  N_4 
REMARK    2  A    between atoms: N_4  and  C_5 
REMARK    3  A    between atoms: C_8  and  N_9 
REMARK       I    between atoms: N_9  and  C_10 
REMARK    4  A    between atoms: C_10  and  C_11 
REMARK    5  A    between atoms: C_16  and  C_17 
REMARK    6  A    between atoms: C_23  and  C_24 
ROOT
HETATM    1  C   UNL     1      23.447  46.321  49.172  1.00  0.00     0.148 C 
HETATM    2  N   UNL     1      24.629  46.825  49.603  1.00  0.00    -0.165 NA
HETATM    3  N   UNL     1      25.196  45.778  50.224  1.00  0.00    -0.240 N 
HETATM    4  C   UNL     1      24.535  44.598  50.044  1.00  0.00     0.123 C 
HETATM    5  N   UNL     1      25.083  43.433  50.439  1.00  0.00    -0.364 N 
HETATM    6  C   UNL     1      26.507  43.298  50.780  1.00  0.00     0.143 C 
HETATM    7  C   UNL     1      27.288  44.613  50.537  1.00  0.00     0.068 C 
HETATM    8  C   UNL     1      26.478  45.863  50.891  1.00  0.00     0.221 C 
HETATM    9  C   UNL     1      23.345  44.929  49.453  1.00  0.00     0.089 C 
HETATM   10  H   UNL     1      24.584  42.551  50.331  1.00  0.00     0.162 HD
ENDROOT
BRANCH   1  11
HETATM   11  C   UNL     1      22.463  47.157  48.461  1.00  0.00     0.276 C 
HETATM   12  N   UNL     1      21.766  47.966  49.337  1.00  0.00    -0.322 N 
HETATM   13  H   UNL     1      22.083  47.881  50.299  1.00  0.00     0.169 HD
HETATM   14  O   UNL     1      22.355  47.129  47.241  1.00  0.00    -0.266 OA
BRANCH  12  15
HETATM   15  C   UNL     1      20.736  48.874  49.057  1.00  0.00     0.035 A 
HETATM   16  C   UNL     1      20.949  50.180  48.625  1.00  0.00     0.032 A 
HETATM   17  C   UNL     1      19.864  51.013  48.313  1.00  0.00     0.032 A 
HETATM   18  C   UNL     1      18.554  50.556  48.453  1.00  0.00     0.034 A 
HETATM   19  C   UNL     1      18.343  49.255  48.919  1.00  0.00     0.032 A 
HETATM   20  C   UNL     1      19.424  48.414  49.201  1.00  0.00     0.032 A 
BRANCH  18  21
HETATM   21  N   UNL     1      17.409  51.322  48.151  1.00  0.00    -0.327 N 
HETATM   22  C   UNL     1      16.589  51.992  49.040  1.00  0.00     0.221 C 
HETATM   23  O   UNL     1      16.701  52.016  50.261  1.00  0.00    -0.273 OA
HETATM   24  H   UNL     1      17.205  51.433  47.167  1.00  0.00     0.169 HD
BRANCH  22  25
HETATM   25  C   UNL     1      15.436  52.719  48.363  1.00  0.00     0.098 C 
HETATM   26  C   UNL     1      14.768  53.758  49.247  1.00  0.00     0.014 C 
ENDBRANCH  22  25
ENDBRANCH  18  21
ENDBRANCH  12  15
ENDBRANCH   1  11
BRANCH   8  27
HETATM   27  C   UNL     1      26.282  46.037  52.380  1.00  0.00     0.409 C 
HETATM   28  F   UNL     1      25.075  45.590  52.792  1.00  0.00    -0.169 F 
HETATM   29  F   UNL     1      27.225  45.430  53.128  1.00  0.00    -0.169 F 
HETATM   30  F   UNL     1      26.331  47.359  52.694  1.00  0.00    -0.169 F 
ENDBRANCH   8  27
BRANCH   6  31
HETATM   31  C   UNL     1      27.178  42.199  50.012  1.00  0.00     0.075 A 
HETATM   32  O   UNL     1      27.079  42.246  48.652  1.00  0.00    -0.325 OA
HETATM   33  C   UNL     1      27.721  41.149  48.172  1.00  0.00     0.142 A 
HETATM   34  C   UNL     1      28.227  40.394  49.204  1.00  0.00     0.027 A 
HETATM   35  C   UNL     1      27.878  41.071  50.395  1.00  0.00     0.037 A 
ENDBRANCH   6  31
TORSDOF 6
ENDMDL
MODEL 9
REMARK VINA RESULT:      -8.4     13.455     14.533
REMARK  6 active torsions:
REMARK  status: ('A' for Active; 'I' for Inactive)
REMARK    1  A    between atoms: C_2  and  C_3 
REMARK       I    between atoms: C_3  and  N_4 
REMARK    2  A    between atoms: N_4  and  C_5 
REMARK    3  A    between atoms: C_8  and  N_9 
REMARK       I    between atoms: N_9  and  C_10 
REMARK    4  A    between atoms: C_10  and  C_11 
REMARK    5  A    between atoms: C_16  and  C_17 
REMARK    6  A    between atoms: C_23  and  C_24 
ROOT
HETATM    1  C   UNL     1      34.914  51.366  42.698  1.00  0.00     0.148 C 
HETATM    2  N   UNL     1      34.635  50.583  41.627  1.00  0.00    -0.165 NA
HETATM    3  N   UNL     1      33.342  50.272  41.810  1.00  0.00    -0.240 N 
HETATM    4  C   UNL     1      32.738  50.963  42.819  1.00  0.00     0.123 C 
HETATM    5  N   UNL     1      31.404  50.904  42.994  1.00  0.00    -0.364 N 
HETATM    6  C   UNL     1      30.489  50.381  41.969  1.00  0.00     0.143 C 
HETATM    7  C   UNL     1      31.233  50.011  40.662  1.00  0.00     0.068 C 
HETATM    8  C   UNL     1      32.614  49.398  40.914  1.00  0.00     0.221 C 
HETATM    9  C   UNL     1      33.749  51.607  43.481  1.00  0.00     0.089 C 
HETATM   10  H   UNL     1      30.950  51.398  43.761  1.00  0.00     0.162 HD
ENDROOT
BRANCH   1  11
HETATM   11  C   UNL     1      36.265  51.909  42.929  1.00  0.00     0.276 C 
HETATM   12  N   UNL     1      36.455  52.233  44.258  1.00  0.00    -0.322 N 
HETATM   13  H   UNL     1      35.659  51.999  44.845  1.00  0.00     0.169 HD
HETATM   14  O   UNL     1      37.090  51.993  42.026  1.00  0.00    -0.266 OA
BRANCH  12  15
HETATM   15  C   UNL     1      37.584  52.797  44.868  1.00  0.00     0.035 A 
HETATM   16  C   UNL     1      37.611  54.073  45.422  1.00  0.00     0.032 A 
HETATM   17  C   UNL     1      38.766  54.547  46.062  1.00  0.00     0.032 A 
HETATM   18  C   UNL     1      39.913  53.759  46.134  1.00  0.00     0.034 A 
HETATM   19  C   UNL     1      39.894  52.490  45.548  1.00  0.00     0.032 A 
HETATM   20  C   UNL     1      38.734  52.005  44.935  1.00  0.00     0.032 A 
BRANCH  18  21
HETATM   21  N   UNL     1      41.109  54.154  46.769  1.00  0.00    -0.327 N 
HETATM   22  C   UNL     1      41.364  54.197  48.127  1.00  0.00     0.221 C 
HETATM   23  O   UNL     1      40.578  53.921  49.027  1.00  0.00    -0.273 OA
HETATM   24  H   UNL     1      41.878  54.377  46.151  1.00  0.00     0.169 HD
BRANCH  22  25
HETATM   25  C   UNL     1      42.769  54.677  48.459  1.00  0.00     0.098 C 
HETATM   26  C   UNL     1      43.250  55.813  47.574  1.00  0.00     0.014 C 
ENDBRANCH  22  25
ENDBRANCH  18  21
ENDBRANCH  12  15
ENDBRANCH   1  11
BRANCH   8  27
HETATM   27  C   UNL     1      32.543  48.001  41.489  1.00  0.00     0.409 C 
HETATM   28  F   UNL     1      33.764  47.433  41.602  1.00  0.00    -0.169 F 
HETATM   29  F   UNL     1      31.946  47.940  42.696  1.00  0.00    -0.169 F 
HETATM   30  F   UNL     1      31.821  47.204  40.659  1.00  0.00    -0.169 F 
ENDBRANCH   8  27
BRANCH   6  31
HETATM   31  C   UNL     1      29.393  51.348  41.632  1.00  0.00     0.075 A 
HETATM   32  O   UNL     1      28.113  50.886  41.723  1.00  0.00    -0.325 OA
HETATM   33  C   UNL     1      27.298  51.906  41.345  1.00  0.00     0.142 A 
HETATM   34  C   UNL     1      28.037  53.016  41.006  1.00  0.00     0.027 A 
HETATM   35  C   UNL     1      29.392  52.657  41.192  1.00  0.00     0.037 A 
ENDBRANCH   6  31
TORSDOF 6
ENDMDL
MODEL 10
REMARK VINA RESULT:      -8.3     12.462     13.448
REMARK  6 active torsions:
REMARK  status: ('A' for Active; 'I' for Inactive)
REMARK    1  A    between atoms: C_2  and  C_3 
REMARK       I    between atoms: C_3  and  N_4 
REMARK    2  A    between atoms: N_4  and  C_5 
REMARK    3  A    between atoms: C_8  and  N_9 
REMARK       I    between atoms: N_9  and  C_10 
REMARK    4  A    between atoms: C_10  and  C_11 
REMARK    5  A    between atoms: C_16  and  C_17 
REMARK    6  A    between atoms: C_23  and  C_24 
ROOT
HETATM    1  C   UNL     1      32.194  51.376  42.587  1.00  0.00     0.148 C 
HETATM    2  N   UNL     1      31.117  52.197  42.534  1.00  0.00    -0.165 NA
HETATM    3  N   UNL     1      30.349  51.625  41.592  1.00  0.00    -0.240 N 
HETATM    4  C   UNL     1      30.782  50.397  41.189  1.00  0.00     0.123 C 
HETATM    5  N   UNL     1      30.016  49.620  40.399  1.00  0.00    -0.364 N 
HETATM    6  C   UNL     1      28.584  49.873  40.182  1.00  0.00     0.143 C 
HETATM    7  C   UNL     1      28.068  51.057  41.036  1.00  0.00     0.068 C 
HETATM    8  C   UNL     1      29.089  52.192  41.160  1.00  0.00     0.221 C 
HETATM    9  C   UNL     1      32.028  50.246  41.738  1.00  0.00     0.089 C 
HETATM   10  H   UNL     1      30.344  48.712  40.073  1.00  0.00     0.162 HD
ENDROOT
BRANCH   1  11
HETATM   11  C   UNL     1      33.335  51.655  43.478  1.00  0.00     0.276 C 
HETATM   12  N   UNL     1      34.522  51.702  42.773  1.00  0.00    -0.322 N 
HETATM   13  H   UNL     1      34.397  51.587  41.771  1.00  0.00     0.169 HD
HETATM   14  O   UNL     1      33.183  51.859  44.677  1.00  0.00    -0.266 OA
BRANCH  12  15
HETATM   15  C   UNL     1      35.820  51.912  43.260  1.00  0.00     0.035 A 
HETATM   16  C   UNL     1      36.146  52.874  44.211  1.00  0.00     0.032 A 
HETATM   17  C   UNL     1      37.461  52.987  44.687  1.00  0.00     0.032 A 
HETATM   18  C   UNL     1      38.468  52.155  44.201  1.00  0.00     0.034 A 
HETATM   19  C   UNL     1      38.144  51.211  43.221  1.00  0.00     0.032 A 
HETATM   20  C   UNL     1      36.828  51.078  42.767  1.00  0.00     0.032 A 
BRANCH  18  21
HETATM   21  N   UNL     1      39.809  52.195  44.634  1.00  0.00    -0.327 N 
HETATM   22  C   UNL     1      40.470  51.257  45.406  1.00  0.00     0.221 C 
HETATM   23  O   UNL     1      39.992  50.229  45.873  1.00  0.00    -0.273 OA
HETATM   24  H   UNL     1      40.355  52.973  44.292  1.00  0.00     0.169 HD
BRANCH  22  25
HETATM   25  C   UNL     1      41.919  51.624  45.687  1.00  0.00     0.098 C 
HETATM   26  C   UNL     1      42.838  50.422  45.815  1.00  0.00     0.014 C 
ENDBRANCH  22  25
ENDBRANCH  18  21
ENDBRANCH  12  15
ENDBRANCH   1  11
BRANCH   8  27
HETATM   27  C   UNL     1      29.276  52.961  39.871  1.00  0.00     0.409 C 
HETATM   28  F   UNL     1      30.438  52.650  39.255  1.00  0.00    -0.169 F 
HETATM   29  F   UNL     1      28.278  52.784  38.982  1.00  0.00    -0.169 F 
HETATM   30  F   UNL     1      29.325  54.292  40.138  1.00  0.00    -0.169 F 
ENDBRANCH   8  27
BRANCH   6  31
HETATM   31  C   UNL     1      27.739  48.670  40.480  1.00  0.00     0.075 A 
HETATM   32  O   UNL     1      26.392  48.804  40.310  1.00  0.00    -0.325 OA
HETATM   33  C   UNL     1      25.830  47.620  40.667  1.00  0.00     0.142 A 
HETATM   34  C   UNL     1      26.795  46.727  41.070  1.00  0.00     0.027 A 
HETATM   35  C   UNL     1      28.031  47.405  40.950  1.00  0.00     0.037 A 
ENDBRANCH   6  31
TORSDOF 6
ENDMDL
