MODEL 1
REMARK VINA RESULT:     -10.1      0.000      0.000
REMARK  10 active torsions:
REMARK  status: ('A' for Active; 'I' for Inactive)
REMARK    1  A    between atoms: C_2  and  C_5 
REMARK    2  A    between atoms: C_5  and  C_6 
REMARK    3  A    between atoms: C_6  and  N_7 
REMARK    4  A    between atoms: N_7  and  C_10 
REMARK    5  A    between atoms: C_16  and  N_17 
REMARK       I    between atoms: N_17  and  C_18 
REMARK    6  A    between atoms: C_18  and  C_20 
REMARK    7  A    between atoms: C_24  and  C_25 
REMARK    8  A    between atoms: C_25  and  O_26 
REMARK    9  A    between atoms: O_26  and  C_27 
REMARK       I    between atoms: C_27  and  N_29 
REMARK   10  A    between atoms: N_29  and  C_30 
ROOT
HETATM    1  C   UNL     1      28.265  45.247  54.116  1.00  0.00     0.036 A 
HETATM    2  C   UNL     1      28.809  43.975  53.918  1.00  0.00     0.031 A 
HETATM    3  C   UNL     1      29.791  43.482  54.785  1.00  0.00     0.025 A 
HETATM    4  C   UNL     1      30.233  44.253  55.863  1.00  0.00     0.044 A 
HETATM    5  C   UNL     1      29.688  45.522  56.070  1.00  0.00     0.025 A 
HETATM    6  C   UNL     1      28.712  46.016  55.198  1.00  0.00     0.031 A 
HETATM    7  C   UNL     1      31.243  43.744  56.744  1.00  0.00     0.099 C 
HETATM    8  N   UNL     1      32.069  43.321  57.441  1.00  0.00    -0.191 NA
ENDROOT
BRANCH   1   9
HETATM    9  N   UNL     1      27.291  45.816  53.280  1.00  0.00    -0.303 N 
HETATM   10  C   UNL     1      25.951  45.944  53.502  1.00  0.00     0.365 C 
HETATM   11  O   UNL     1      25.318  45.618  54.497  1.00  0.00    -0.238 OA
HETATM   12  H   UNL     1      27.597  46.216  52.403  1.00  0.00     0.171 HD
BRANCH  10  13
HETATM   13  O   UNL     1      25.395  46.518  52.401  1.00  0.00    -0.299 OA
BRANCH  13  14
HETATM   14  C   UNL     1      26.078  46.278  51.164  1.00  0.00     0.219 C 
BRANCH  14  15
HETATM   15  C   UNL     1      26.016  47.480  50.252  1.00  0.00    -0.033 A 
HETATM   16  C   UNL     1      27.187  48.070  49.761  1.00  0.00     0.009 A 
HETATM   17  C   UNL     1      27.121  49.166  48.897  1.00  0.00     0.002 A 
HETATM   18  C   UNL     1      25.883  49.679  48.501  1.00  0.00     0.017 A 
HETATM   19  C   UNL     1      24.707  49.086  48.973  1.00  0.00     0.033 A 
HETATM   20  C   UNL     1      24.777  48.002  49.857  1.00  0.00     0.026 A 
BRANCH  19  21
HETATM   21  C   UNL     1      23.362  49.580  48.596  1.00  0.00     0.257 C 
HETATM   22  N   UNL     1      22.244  48.759  48.928  1.00  0.00    -0.303 N 
HETATM   23  H   UNL     1      22.369  47.875  49.390  1.00  0.00     0.171 HD
HETATM   24  O   UNL     1      23.198  50.626  48.000  1.00  0.00    -0.267 OA
BRANCH  22  25
HETATM   25  C   UNL     1      20.985  49.110  48.684  1.00  0.00     0.152 A 
HETATM   26  N   UNL     1      20.628  49.639  47.495  1.00  0.00    -0.339 N 
HETATM   27  C   UNL     1      19.297  49.994  47.428  1.00  0.00     0.024 A 
HETATM   28  H   UNL     1      21.313  49.765  46.753  1.00  0.00     0.168 HD
HETATM   29  C   UNL     1      18.744  50.690  46.241  1.00  0.00     0.060 C 
HETATM   30  C   UNL     1      18.589  49.699  48.561  1.00  0.00     0.011 A 
HETATM   31  C   UNL     1      17.201  50.756  46.312  1.00  0.00     0.039 C 
HETATM   32  C   UNL     1      16.615  51.003  47.726  1.00  0.00     0.191 C 
HETATM   33  C   UNL     1      17.120  49.938  48.743  1.00  0.00     0.081 C 
HETATM   34  S   UNL     1      19.591  48.982  49.733  1.00  0.00    -0.056 SA
BRANCH  32  35
HETATM   35  N   UNL     1      16.965  52.388  48.254  1.00  0.00    -0.070 N 
HETATM   36  H   UNL     1      16.414  53.122  47.786  1.00  0.00     0.277 HD
HETATM   37  H   UNL     1      17.945  52.576  47.980  1.00  0.00     0.277 HD
BRANCH  35  38
HETATM   38  C   UNL     1      16.889  52.574  49.754  1.00  0.00     0.241 C 
BRANCH  38  39
HETATM   39  C   UNL     1      15.991  53.756  50.068  1.00  0.00     0.144 C 
BRANCH  39  40
HETATM   40  C   UNL     1      14.575  53.259  50.238  1.00  0.00     0.389 C 
HETATM   41  F   UNL     1      14.073  53.689  51.411  1.00  0.00    -0.171 F 
HETATM   42  F   UNL     1      14.569  51.911  50.244  1.00  0.00    -0.171 F 
HETATM   43  F   UNL     1      13.792  53.692  49.238  1.00  0.00    -0.171 F 
ENDBRANCH  39  40
ENDBRANCH  38  39
ENDBRANCH  35  38
ENDBRANCH  32  35
ENDBRANCH  22  25
ENDBRANCH  19  21
ENDBRANCH  14  15
ENDBRANCH  13  14
ENDBRANCH  10  13
ENDBRANCH   1   9
TORSDOF 10
ENDMDL
MODEL 2
REMARK VINA RESULT:     -10.0      6.320     13.225
REMARK  10 active torsions:
REMARK  status: ('A' for Active; 'I' for Inactive)
REMARK    1  A    between atoms: C_2  and  C_5 
REMARK    2  A    between atoms: C_5  and  C_6 
REMARK    3  A    between atoms: C_6  and  N_7 
REMARK    4  A    between atoms: N_7  and  C_10 
REMARK    5  A    between atoms: C_16  and  N_17 
REMARK       I    between atoms: N_17  and  C_18 
REMARK    6  A    between atoms: C_18  and  C_20 
REMARK    7  A    between atoms: C_24  and  C_25 
REMARK    8  A    between atoms: C_25  and  O_26 
REMARK    9  A    between atoms: O_26  and  C_27 
REMARK       I    between atoms: C_27  and  N_29 
REMARK   10  A    between atoms: N_29  and  C_30 
ROOT
HETATM    1  C   UNL     1      17.702  50.759  49.175  1.00  0.00     0.036 A 
HETATM    2  C   UNL     1      16.373  50.602  48.774  1.00  0.00     0.031 A 
HETATM    3  C   UNL     1      15.460  51.653  48.920  1.00  0.00     0.025 A 
HETATM    4  C   UNL     1      15.869  52.873  49.463  1.00  0.00     0.044 A 
HETATM    5  C   UNL     1      17.197  53.038  49.859  1.00  0.00     0.025 A 
HETATM    6  C   UNL     1      18.107  51.984  49.719  1.00  0.00     0.031 A 
HETATM    7  C   UNL     1      14.928  53.943  49.614  1.00  0.00     0.099 C 
HETATM    8  N   UNL     1      14.150  54.796  49.740  1.00  0.00    -0.191 NA
ENDROOT
BRANCH   1   9
HETATM    9  N   UNL     1      18.670  49.746  49.076  1.00  0.00    -0.303 N 
HETATM   10  C   UNL     1      19.074  48.860  50.033  1.00  0.00     0.365 C 
HETATM   11  O   UNL     1      18.652  48.741  51.174  1.00  0.00    -0.238 OA
HETATM   12  H   UNL     1      19.125  49.614  48.183  1.00  0.00     0.171 HD
BRANCH  10  13
HETATM   13  O   UNL     1      20.063  48.092  49.503  1.00  0.00    -0.299 OA
BRANCH  13  14
HETATM   14  C   UNL     1      20.553  48.506  48.221  1.00  0.00     0.219 C 
BRANCH  14  15
HETATM   15  C   UNL     1      21.984  48.984  48.300  1.00  0.00    -0.033 A 
HETATM   16  C   UNL     1      22.371  50.195  47.714  1.00  0.00     0.009 A 
HETATM   17  C   UNL     1      23.690  50.642  47.814  1.00  0.00     0.002 A 
HETATM   18  C   UNL     1      24.639  49.890  48.511  1.00  0.00     0.017 A 
HETATM   19  C   UNL     1      24.259  48.686  49.114  1.00  0.00     0.033 A 
HETATM   20  C   UNL     1      22.941  48.229  48.993  1.00  0.00     0.026 A 
BRANCH  19  21
HETATM   21  C   UNL     1      25.213  47.838  49.867  1.00  0.00     0.257 C 
HETATM   22  N   UNL     1      24.798  46.514  50.196  1.00  0.00    -0.303 N 
HETATM   23  H   UNL     1      23.888  46.177  49.934  1.00  0.00     0.171 HD
HETATM   24  O   UNL     1      26.301  48.246  50.226  1.00  0.00    -0.267 OA
BRANCH  22  25
HETATM   25  C   UNL     1      25.577  45.642  50.827  1.00  0.00     0.152 A 
HETATM   26  N   UNL     1      25.341  45.301  52.112  1.00  0.00    -0.339 N 
HETATM   27  C   UNL     1      26.273  44.426  52.629  1.00  0.00     0.024 A 
HETATM   28  H   UNL     1      24.550  45.691  52.619  1.00  0.00     0.168 HD
HETATM   29  C   UNL     1      26.242  44.022  54.056  1.00  0.00     0.060 C 
HETATM   30  C   UNL     1      27.228  44.040  51.728  1.00  0.00     0.011 A 
HETATM   31  C   UNL     1      27.232  42.864  54.320  1.00  0.00     0.039 C 
HETATM   32  C   UNL     1      28.572  42.950  53.545  1.00  0.00     0.191 C 
HETATM   33  C   UNL     1      28.332  43.066  52.010  1.00  0.00     0.081 C 
HETATM   34  S   UNL     1      26.974  44.782  50.220  1.00  0.00    -0.056 SA
BRANCH  32  35
HETATM   35  N   UNL     1      29.418  44.131  53.999  1.00  0.00    -0.070 N 
HETATM   36  H   UNL     1      29.158  44.996  53.506  1.00  0.00     0.277 HD
HETATM   37  H   UNL     1      30.390  43.938  53.701  1.00  0.00     0.277 HD
BRANCH  35  38
HETATM   38  C   UNL     1      29.464  44.390  55.490  1.00  0.00     0.241 C 
BRANCH  38  39
HETATM   39  C   UNL     1      30.895  44.675  55.906  1.00  0.00     0.144 C 
BRANCH  39  40
HETATM   40  C   UNL     1      31.325  43.635  56.913  1.00  0.00     0.389 C 
HETATM   41  F   UNL     1      30.587  42.518  56.767  1.00  0.00    -0.171 F 
HETATM   42  F   UNL     1      31.132  44.109  58.160  1.00  0.00    -0.171 F 
HETATM   43  F   UNL     1      32.622  43.329  56.762  1.00  0.00    -0.171 F 
ENDBRANCH  39  40
ENDBRANCH  38  39
ENDBRANCH  35  38
ENDBRANCH  32  35
ENDBRANCH  22  25
ENDBRANCH  19  21
ENDBRANCH  14  15
ENDBRANCH  13  14
ENDBRANCH  10  13
ENDBRANCH   1   9
TORSDOF 10
ENDMDL
MODEL 3
REMARK VINA RESULT:      -9.8      2.431      3.074
REMARK  10 active torsions:
REMARK  status: ('A' for Active; 'I' for Inactive)
REMARK    1  A    between atoms: C_2  and  C_5 
REMARK    2  A    between atoms: C_5  and  C_6 
REMARK    3  A    between atoms: C_6  and  N_7 
REMARK    4  A    between atoms: N_7  and  C_10 
REMARK    5  A    between atoms: C_16  and  N_17 
REMARK       I    between atoms: N_17  and  C_18 
REMARK    6  A    between atoms: C_18  and  C_20 
REMARK    7  A    between atoms: C_24  and  C_25 
REMARK    8  A    between atoms: C_25  and  O_26 
REMARK    9  A    between atoms: O_26  and  C_27 
REMARK       I    between atoms: C_27  and  N_29 
REMARK   10  A    between atoms: N_29  and  C_30 
ROOT
HETATM    1  C   UNL     1      28.268  45.164  54.174  1.00  0.00     0.036 A 
HETATM    2  C   UNL     1      28.818  43.900  53.946  1.00  0.00     0.031 A 
HETATM    3  C   UNL     1      29.812  43.396  54.794  1.00  0.00     0.025 A 
HETATM    4  C   UNL     1      30.260  44.150  55.882  1.00  0.00     0.044 A 
HETATM    5  C   UNL     1      29.709  45.411  56.118  1.00  0.00     0.025 A 
HETATM    6  C   UNL     1      28.721  45.915  55.266  1.00  0.00     0.031 A 
HETATM    7  C   UNL     1      31.282  43.631  56.742  1.00  0.00     0.099 C 
HETATM    8  N   UNL     1      32.118  43.201  57.423  1.00  0.00    -0.191 NA
ENDROOT
BRANCH   1   9
HETATM    9  N   UNL     1      27.281  45.742  53.359  1.00  0.00    -0.303 N 
HETATM   10  C   UNL     1      25.925  45.647  53.470  1.00  0.00     0.365 C 
HETATM   11  O   UNL     1      25.279  45.061  54.328  1.00  0.00    -0.238 OA
HETATM   12  H   UNL     1      27.586  46.335  52.598  1.00  0.00     0.171 HD
BRANCH  10  13
HETATM   13  O   UNL     1      25.369  46.335  52.436  1.00  0.00    -0.299 OA
BRANCH  13  14
HETATM   14  C   UNL     1      25.873  46.012  51.134  1.00  0.00     0.219 C 
BRANCH  14  15
HETATM   15  C   UNL     1      26.042  47.248  50.281  1.00  0.00    -0.033 A 
HETATM   16  C   UNL     1      27.316  47.729  49.956  1.00  0.00     0.009 A 
HETATM   17  C   UNL     1      27.464  48.856  49.146  1.00  0.00     0.002 A 
HETATM   18  C   UNL     1      26.340  49.512  48.637  1.00  0.00     0.017 A 
HETATM   19  C   UNL     1      25.062  49.029  48.942  1.00  0.00     0.033 A 
HETATM   20  C   UNL     1      24.917  47.912  49.774  1.00  0.00     0.026 A 
BRANCH  19  21
HETATM   21  C   UNL     1      23.827  49.676  48.438  1.00  0.00     0.257 C 
HETATM   22  N   UNL     1      22.586  49.237  48.986  1.00  0.00    -0.303 N 
HETATM   23  H   UNL     1      22.553  48.510  49.679  1.00  0.00     0.171 HD
HETATM   24  O   UNL     1      23.849  50.527  47.571  1.00  0.00    -0.267 OA
BRANCH  22  25
HETATM   25  C   UNL     1      21.415  49.769  48.651  1.00  0.00     0.152 A 
HETATM   26  N   UNL     1      20.805  50.670  49.449  1.00  0.00    -0.339 N 
HETATM   27  C   UNL     1      19.576  51.081  48.978  1.00  0.00     0.024 A 
HETATM   28  H   UNL     1      21.239  50.976  50.317  1.00  0.00     0.168 HD
HETATM   29  C   UNL     1      18.709  51.986  49.771  1.00  0.00     0.060 C 
HETATM   30  C   UNL     1      19.234  50.530  47.773  1.00  0.00     0.011 A 
HETATM   31  C   UNL     1      17.513  52.481  48.927  1.00  0.00     0.039 C 
HETATM   32  C   UNL     1      16.900  51.427  47.969  1.00  0.00     0.191 C 
HETATM   33  C   UNL     1      17.977  50.834  47.014  1.00  0.00     0.081 C 
HETATM   34  S   UNL     1      20.449  49.477  47.221  1.00  0.00    -0.056 SA
BRANCH  32  35
HETATM   35  N   UNL     1      16.235  50.286  48.727  1.00  0.00    -0.070 N 
HETATM   36  H   UNL     1      15.259  50.509  48.968  1.00  0.00     0.277 HD
HETATM   37  H   UNL     1      16.721  50.206  49.637  1.00  0.00     0.277 HD
BRANCH  35  38
HETATM   38  C   UNL     1      16.301  48.920  48.078  1.00  0.00     0.241 C 
BRANCH  38  39
HETATM   39  C   UNL     1      16.976  47.946  49.026  1.00  0.00     0.144 C 
BRANCH  39  40
HETATM   40  C   UNL     1      17.676  46.883  48.212  1.00  0.00     0.389 C 
HETATM   41  F   UNL     1      18.920  46.684  48.686  1.00  0.00    -0.171 F 
HETATM   42  F   UNL     1      17.771  47.287  46.930  1.00  0.00    -0.171 F 
HETATM   43  F   UNL     1      16.998  45.726  48.254  1.00  0.00    -0.171 F 
ENDBRANCH  39  40
ENDBRANCH  38  39
ENDBRANCH  35  38
ENDBRANCH  32  35
ENDBRANCH  22  25
ENDBRANCH  19  21
ENDBRANCH  14  15
ENDBRANCH  13  14
ENDBRANCH  10  13
ENDBRANCH   1   9
TORSDOF 10
ENDMDL
MODEL 4
REMARK VINA RESULT:      -9.5      2.879      3.732
REMARK  10 active torsions:
REMARK  status: ('A' for Active; 'I' for Inactive)
REMARK    1  A    between atoms: C_2  and  C_5 
REMARK    2  A    between atoms: C_5  and  C_6 
REMARK    3  A    between atoms: C_6  and  N_7 
REMARK    4  A    between atoms: N_7  and  C_10 
REMARK    5  A    between atoms: C_16  and  N_17 
REMARK       I    between atoms: N_17  and  C_18 
REMARK    6  A    between atoms: C_18  and  C_20 
REMARK    7  A    between atoms: C_24  and  C_25 
REMARK    8  A    between atoms: C_25  and  O_26 
REMARK    9  A    between atoms: O_26  and  C_27 
REMARK       I    between atoms: C_27  and  N_29 
REMARK   10  A    between atoms: N_29  and  C_30 
ROOT
HETATM    1  C   UNL     1      29.054  43.796  53.459  1.00  0.00     0.036 A 
HETATM    2  C   UNL     1      30.144  42.992  53.800  1.00  0.00     0.031 A 
HETATM    3  C   UNL     1      30.791  43.161  55.031  1.00  0.00     0.025 A 
HETATM    4  C   UNL     1      30.348  44.132  55.934  1.00  0.00     0.044 A 
HETATM    5  C   UNL     1      29.255  44.933  55.600  1.00  0.00     0.025 A 
HETATM    6  C   UNL     1      28.615  44.768  54.367  1.00  0.00     0.031 A 
HETATM    7  C   UNL     1      31.018  44.302  57.189  1.00  0.00     0.099 C 
HETATM    8  N   UNL     1      31.578  44.436  58.197  1.00  0.00    -0.191 NA
ENDROOT
BRANCH   1   9
HETATM    9  N   UNL     1      28.367  43.698  52.238  1.00  0.00    -0.303 N 
HETATM   10  C   UNL     1      27.718  42.618  51.713  1.00  0.00     0.365 C 
HETATM   11  O   UNL     1      27.573  41.512  52.213  1.00  0.00    -0.238 OA
HETATM   12  H   UNL     1      28.302  44.529  51.664  1.00  0.00     0.171 HD
BRANCH  10  13
HETATM   13  O   UNL     1      27.235  42.971  50.491  1.00  0.00    -0.299 OA
BRANCH  13  14
HETATM   14  C   UNL     1      26.438  44.162  50.459  1.00  0.00     0.219 C 
BRANCH  14  15
HETATM   15  C   UNL     1      25.253  44.014  49.534  1.00  0.00    -0.033 A 
HETATM   16  C   UNL     1      25.077  42.853  48.772  1.00  0.00     0.009 A 
HETATM   17  C   UNL     1      23.964  42.713  47.940  1.00  0.00     0.002 A 
HETATM   18  C   UNL     1      23.004  43.726  47.868  1.00  0.00     0.017 A 
HETATM   19  C   UNL     1      23.162  44.884  48.638  1.00  0.00     0.033 A 
HETATM   20  C   UNL     1      24.291  45.031  49.454  1.00  0.00     0.026 A 
BRANCH  19  21
HETATM   21  C   UNL     1      22.185  45.997  48.610  1.00  0.00     0.257 C 
HETATM   22  N   UNL     1      22.629  47.273  49.068  1.00  0.00    -0.303 N 
HETATM   23  H   UNL     1      23.567  47.404  49.406  1.00  0.00     0.171 HD
HETATM   24  O   UNL     1      21.037  45.843  48.242  1.00  0.00    -0.267 OA
BRANCH  22  25
HETATM   25  C   UNL     1      21.864  48.359  49.050  1.00  0.00     0.152 A 
HETATM   26  N   UNL     1      20.641  48.358  49.621  1.00  0.00    -0.339 N 
HETATM   27  C   UNL     1      19.961  49.548  49.467  1.00  0.00     0.024 A 
HETATM   28  H   UNL     1      20.286  47.530  50.093  1.00  0.00     0.168 HD
HETATM   29  C   UNL     1      18.561  49.702  49.933  1.00  0.00     0.060 C 
HETATM   30  C   UNL     1      20.674  50.512  48.807  1.00  0.00     0.011 A 
HETATM   31  C   UNL     1      18.118  51.181  49.864  1.00  0.00     0.039 C 
HETATM   32  C   UNL     1      18.642  51.971  48.637  1.00  0.00     0.191 C 
HETATM   33  C   UNL     1      20.195  51.906  48.542  1.00  0.00     0.081 C 
HETATM   34  S   UNL     1      22.208  49.929  48.359  1.00  0.00    -0.056 SA
BRANCH  32  35
HETATM   35  N   UNL     1      18.049  51.456  47.333  1.00  0.00    -0.070 N 
HETATM   36  H   UNL     1      18.357  50.495  47.129  1.00  0.00     0.277 HD
HETATM   37  H   UNL     1      18.450  52.031  46.571  1.00  0.00     0.277 HD
BRANCH  35  38
HETATM   38  C   UNL     1      16.544  51.547  47.198  1.00  0.00     0.241 C 
BRANCH  38  39
HETATM   39  C   UNL     1      16.042  50.370  46.381  1.00  0.00     0.144 C 
BRANCH  39  40
HETATM   40  C   UNL     1      15.512  49.316  47.323  1.00  0.00     0.389 C 
HETATM   41  F   UNL     1      16.366  48.276  47.380  1.00  0.00    -0.171 F 
HETATM   42  F   UNL     1      14.325  48.863  46.871  1.00  0.00    -0.171 F 
HETATM   43  F   UNL     1      15.344  49.816  48.556  1.00  0.00    -0.171 F 
ENDBRANCH  39  40
ENDBRANCH  38  39
ENDBRANCH  35  38
ENDBRANCH  32  35
ENDBRANCH  22  25
ENDBRANCH  19  21
ENDBRANCH  14  15
ENDBRANCH  13  14
ENDBRANCH  10  13
ENDBRANCH   1   9
TORSDOF 10
ENDMDL
MODEL 5
REMARK VINA RESULT:      -9.4      2.668      3.394
REMARK  10 active torsions:
REMARK  status: ('A' for Active; 'I' for Inactive)
REMARK    1  A    between atoms: C_2  and  C_5 
REMARK    2  A    between atoms: C_5  and  C_6 
REMARK    3  A    between atoms: C_6  and  N_7 
REMARK    4  A    between atoms: N_7  and  C_10 
REMARK    5  A    between atoms: C_16  and  N_17 
REMARK       I    between atoms: N_17  and  C_18 
REMARK    6  A    between atoms: C_18  and  C_20 
REMARK    7  A    between atoms: C_24  and  C_25 
REMARK    8  A    between atoms: C_25  and  O_26 
REMARK    9  A    between atoms: O_26  and  C_27 
REMARK       I    between atoms: C_27  and  N_29 
REMARK   10  A    between atoms: N_29  and  C_30 
ROOT
HETATM    1  C   UNL     1      28.155  45.586  54.223  1.00  0.00     0.036 A 
HETATM    2  C   UNL     1      28.565  44.261  54.062  1.00  0.00     0.031 A 
HETATM    3  C   UNL     1      29.569  43.726  54.879  1.00  0.00     0.025 A 
HETATM    4  C   UNL     1      30.167  44.511  55.868  1.00  0.00     0.044 A 
HETATM    5  C   UNL     1      29.756  45.834  56.038  1.00  0.00     0.025 A 
HETATM    6  C   UNL     1      28.757  46.369  55.216  1.00  0.00     0.031 A 
HETATM    7  C   UNL     1      31.198  43.958  56.697  1.00  0.00     0.099 C 
HETATM    8  N   UNL     1      32.038  43.499  57.352  1.00  0.00    -0.191 NA
ENDROOT
BRANCH   1   9
HETATM    9  N   UNL     1      27.168  46.197  53.433  1.00  0.00    -0.303 N 
HETATM   10  C   UNL     1      26.153  47.021  53.826  1.00  0.00     0.365 C 
HETATM   11  O   UNL     1      25.908  47.427  54.953  1.00  0.00    -0.238 OA
HETATM   12  H   UNL     1      27.205  46.049  52.433  1.00  0.00     0.171 HD
BRANCH  10  13
HETATM   13  O   UNL     1      25.418  47.338  52.726  1.00  0.00    -0.299 OA
BRANCH  13  14
HETATM   14  C   UNL     1      26.089  47.192  51.468  1.00  0.00     0.219 C 
BRANCH  14  15
HETATM   15  C   UNL     1      25.167  46.639  50.406  1.00  0.00    -0.033 A 
HETATM   16  C   UNL     1      25.412  45.392  49.820  1.00  0.00     0.009 A 
HETATM   17  C   UNL     1      24.541  44.876  48.859  1.00  0.00     0.002 A 
HETATM   18  C   UNL     1      23.404  45.594  48.479  1.00  0.00     0.017 A 
HETATM   19  C   UNL     1      23.141  46.835  49.071  1.00  0.00     0.033 A 
HETATM   20  C   UNL     1      24.029  47.359  50.018  1.00  0.00     0.026 A 
BRANCH  19  21
HETATM   21  C   UNL     1      21.956  47.651  48.714  1.00  0.00     0.257 C 
HETATM   22  N   UNL     1      21.471  48.567  49.693  1.00  0.00    -0.303 N 
HETATM   23  H   UNL     1      21.911  48.645  50.593  1.00  0.00     0.171 HD
HETATM   24  O   UNL     1      21.388  47.536  47.645  1.00  0.00    -0.267 OA
BRANCH  22  25
HETATM   25  C   UNL     1      20.445  49.385  49.478  1.00  0.00     0.152 A 
HETATM   26  N   UNL     1      19.306  48.938  48.909  1.00  0.00    -0.339 N 
HETATM   27  C   UNL     1      18.365  49.927  48.713  1.00  0.00     0.024 A 
HETATM   28  H   UNL     1      19.201  47.961  48.647  1.00  0.00     0.168 HD
HETATM   29  C   UNL     1      17.092  49.650  48.002  1.00  0.00     0.060 C 
HETATM   30  C   UNL     1      18.750  51.156  49.173  1.00  0.00     0.011 A 
HETATM   31  C   UNL     1      16.121  50.846  48.127  1.00  0.00     0.039 C 
HETATM   32  C   UNL     1      16.785  52.246  48.058  1.00  0.00     0.191 C 
HETATM   33  C   UNL     1      17.907  52.395  49.127  1.00  0.00     0.081 C 
HETATM   34  S   UNL     1      20.308  51.089  49.850  1.00  0.00    -0.056 SA
BRANCH  32  35
HETATM   35  N   UNL     1      17.377  52.527  46.684  1.00  0.00    -0.070 N 
HETATM   36  H   UNL     1      18.343  52.178  46.609  1.00  0.00     0.277 HD
HETATM   37  H   UNL     1      17.459  53.555  46.596  1.00  0.00     0.277 HD
BRANCH  35  38
HETATM   38  C   UNL     1      16.571  52.052  45.494  1.00  0.00     0.241 C 
BRANCH  38  39
HETATM   39  C   UNL     1      17.485  51.915  44.291  1.00  0.00     0.144 C 
BRANCH  39  40
HETATM   40  C   UNL     1      18.242  50.612  44.402  1.00  0.00     0.389 C 
HETATM   41  F   UNL     1      19.148  50.689  45.395  1.00  0.00    -0.171 F 
HETATM   42  F   UNL     1      18.897  50.373  43.249  1.00  0.00    -0.171 F 
HETATM   43  F   UNL     1      17.406  49.592  44.646  1.00  0.00    -0.171 F 
ENDBRANCH  39  40
ENDBRANCH  38  39
ENDBRANCH  35  38
ENDBRANCH  32  35
ENDBRANCH  22  25
ENDBRANCH  19  21
ENDBRANCH  14  15
ENDBRANCH  13  14
ENDBRANCH  10  13
ENDBRANCH   1   9
TORSDOF 10
ENDMDL
MODEL 6
REMARK VINA RESULT:      -9.2      2.035      2.481
REMARK  10 active torsions:
REMARK  status: ('A' for Active; 'I' for Inactive)
REMARK    1  A    between atoms: C_2  and  C_5 
REMARK    2  A    between atoms: C_5  and  C_6 
REMARK    3  A    between atoms: C_6  and  N_7 
REMARK    4  A    between atoms: N_7  and  C_10 
REMARK    5  A    between atoms: C_16  and  N_17 
REMARK       I    between atoms: N_17  and  C_18 
REMARK    6  A    between atoms: C_18  and  C_20 
REMARK    7  A    between atoms: C_24  and  C_25 
REMARK    8  A    between atoms: C_25  and  O_26 
REMARK    9  A    between atoms: O_26  and  C_27 
REMARK       I    between atoms: C_27  and  N_29 
REMARK   10  A    between atoms: N_29  and  C_30 
ROOT
HETATM    1  C   UNL     1      28.831  43.961  53.268  1.00  0.00     0.036 A 
HETATM    2  C   UNL     1      29.829  42.985  53.294  1.00  0.00     0.031 A 
HETATM    3  C   UNL     1      30.664  42.854  54.411  1.00  0.00     0.025 A 
HETATM    4  C   UNL     1      30.502  43.696  55.514  1.00  0.00     0.044 A 
HETATM    5  C   UNL     1      29.502  44.669  55.496  1.00  0.00     0.025 A 
HETATM    6  C   UNL     1      28.674  44.802  54.376  1.00  0.00     0.031 A 
HETATM    7  C   UNL     1      31.364  43.560  56.652  1.00  0.00     0.099 C 
HETATM    8  N   UNL     1      32.076  43.445  57.561  1.00  0.00    -0.191 NA
ENDROOT
BRANCH   1   9
HETATM    9  N   UNL     1      27.968  44.164  52.178  1.00  0.00    -0.303 N 
HETATM   10  C   UNL     1      26.605  44.097  52.150  1.00  0.00     0.365 C 
HETATM   11  O   UNL     1      25.843  43.877  53.081  1.00  0.00    -0.238 OA
HETATM   12  H   UNL     1      28.380  44.422  51.291  1.00  0.00     0.171 HD
BRANCH  10  13
HETATM   13  O   UNL     1      26.200  44.322  50.871  1.00  0.00    -0.299 OA
BRANCH  13  14
HETATM   14  C   UNL     1      24.899  44.907  50.726  1.00  0.00     0.219 C 
BRANCH  14  15
HETATM   15  C   UNL     1      24.978  46.305  50.159  1.00  0.00    -0.033 A 
HETATM   16  C   UNL     1      26.209  46.955  50.018  1.00  0.00     0.009 A 
HETATM   17  C   UNL     1      26.276  48.238  49.469  1.00  0.00     0.002 A 
HETATM   18  C   UNL     1      25.113  48.884  49.042  1.00  0.00     0.017 A 
HETATM   19  C   UNL     1      23.878  48.236  49.163  1.00  0.00     0.033 A 
HETATM   20  C   UNL     1      23.813  46.959  49.735  1.00  0.00     0.026 A 
BRANCH  19  21
HETATM   21  C   UNL     1      22.607  48.862  48.732  1.00  0.00     0.257 C 
HETATM   22  N   UNL     1      21.530  48.873  49.666  1.00  0.00    -0.303 N 
HETATM   23  H   UNL     1      21.630  48.461  50.578  1.00  0.00     0.171 HD
HETATM   24  O   UNL     1      22.457  49.327  47.618  1.00  0.00    -0.267 OA
BRANCH  22  25
HETATM   25  C   UNL     1      20.355  49.443  49.417  1.00  0.00     0.152 A 
HETATM   26  N   UNL     1      19.324  48.725  48.922  1.00  0.00    -0.339 N 
HETATM   27  C   UNL     1      18.198  49.481  48.674  1.00  0.00     0.024 A 
HETATM   28  H   UNL     1      19.420  47.728  48.746  1.00  0.00     0.168 HD
HETATM   29  C   UNL     1      17.000  48.889  48.029  1.00  0.00     0.060 C 
HETATM   30  C   UNL     1      18.328  50.798  49.019  1.00  0.00     0.011 A 
HETATM   31  C   UNL     1      15.805  49.868  48.084  1.00  0.00     0.039 C 
HETATM   32  C   UNL     1      16.166  51.362  47.878  1.00  0.00     0.191 C 
HETATM   33  C   UNL     1      17.248  51.830  48.896  1.00  0.00     0.081 C 
HETATM   34  S   UNL     1      19.876  51.109  49.649  1.00  0.00    -0.056 SA
BRANCH  32  35
HETATM   35  N   UNL     1      16.669  51.637  46.468  1.00  0.00    -0.070 N 
HETATM   36  H   UNL     1      16.664  50.785  45.890  1.00  0.00     0.277 HD
HETATM   37  H   UNL     1      17.668  51.896  46.549  1.00  0.00     0.277 HD
BRANCH  35  38
HETATM   38  C   UNL     1      15.989  52.763  45.719  1.00  0.00     0.241 C 
BRANCH  38  39
HETATM   39  C   UNL     1      14.745  53.190  46.478  1.00  0.00     0.144 C 
BRANCH  39  40
HETATM   40  C   UNL     1      13.909  54.074  45.583  1.00  0.00     0.389 C 
HETATM   41  F   UNL     1      14.536  55.248  45.380  1.00  0.00    -0.171 F 
HETATM   42  F   UNL     1      12.725  54.323  46.176  1.00  0.00    -0.171 F 
HETATM   43  F   UNL     1      13.686  53.482  44.399  1.00  0.00    -0.171 F 
ENDBRANCH  39  40
ENDBRANCH  38  39
ENDBRANCH  35  38
ENDBRANCH  32  35
ENDBRANCH  22  25
ENDBRANCH  19  21
ENDBRANCH  14  15
ENDBRANCH  13  14
ENDBRANCH  10  13
ENDBRANCH   1   9
TORSDOF 10
ENDMDL
MODEL 7
REMARK VINA RESULT:      -9.0      2.149      2.531
REMARK  10 active torsions:
REMARK  status: ('A' for Active; 'I' for Inactive)
REMARK    1  A    between atoms: C_2  and  C_5 
REMARK    2  A    between atoms: C_5  and  C_6 
REMARK    3  A    between atoms: C_6  and  N_7 
REMARK    4  A    between atoms: N_7  and  C_10 
REMARK    5  A    between atoms: C_16  and  N_17 
REMARK       I    between atoms: N_17  and  C_18 
REMARK    6  A    between atoms: C_18  and  C_20 
REMARK    7  A    between atoms: C_24  and  C_25 
REMARK    8  A    between atoms: C_25  and  O_26 
REMARK    9  A    between atoms: O_26  and  C_27 
REMARK       I    between atoms: C_27  and  N_29 
REMARK   10  A    between atoms: N_29  and  C_30 
ROOT
HETATM    1  C   UNL     1      28.163  45.571  54.289  1.00  0.00     0.036 A 
HETATM    2  C   UNL     1      28.596  44.256  54.099  1.00  0.00     0.031 A 
HETATM    3  C   UNL     1      29.603  43.718  54.909  1.00  0.00     0.025 A 
HETATM    4  C   UNL     1      30.182  44.488  55.921  1.00  0.00     0.044 A 
HETATM    5  C   UNL     1      29.749  45.800  56.119  1.00  0.00     0.025 A 
HETATM    6  C   UNL     1      28.747  46.339  55.304  1.00  0.00     0.031 A 
HETATM    7  C   UNL     1      31.217  43.932  56.742  1.00  0.00     0.099 C 
HETATM    8  N   UNL     1      32.061  43.471  57.392  1.00  0.00    -0.191 NA
ENDROOT
BRANCH   1   9
HETATM    9  N   UNL     1      27.171  46.185  53.507  1.00  0.00    -0.303 N 
HETATM   10  C   UNL     1      26.140  46.981  53.914  1.00  0.00     0.365 C 
HETATM   11  O   UNL     1      25.881  47.355  55.049  1.00  0.00    -0.238 OA
HETATM   12  H   UNL     1      27.218  46.062  52.504  1.00  0.00     0.171 HD
BRANCH  10  13
HETATM   13  O   UNL     1      25.408  47.314  52.817  1.00  0.00    -0.299 OA
BRANCH  13  14
HETATM   14  C   UNL     1      26.095  47.230  51.562  1.00  0.00     0.219 C 
BRANCH  14  15
HETATM   15  C   UNL     1      25.255  46.542  50.512  1.00  0.00    -0.033 A 
HETATM   16  C   UNL     1      25.586  45.261  50.053  1.00  0.00     0.009 A 
HETATM   17  C   UNL     1      24.789  44.621  49.102  1.00  0.00     0.002 A 
HETATM   18  C   UNL     1      23.642  45.246  48.605  1.00  0.00     0.017 A 
HETATM   19  C   UNL     1      23.294  46.520  49.069  1.00  0.00     0.033 A 
HETATM   20  C   UNL     1      24.108  47.168  50.006  1.00  0.00     0.026 A 
BRANCH  19  21
HETATM   21  C   UNL     1      22.094  47.242  48.584  1.00  0.00     0.257 C 
HETATM   22  N   UNL     1      20.944  46.463  48.263  1.00  0.00    -0.303 N 
HETATM   23  H   UNL     1      20.955  45.461  48.353  1.00  0.00     0.171 HD
HETATM   24  O   UNL     1      22.081  48.448  48.431  1.00  0.00    -0.267 OA
BRANCH  22  25
HETATM   25  C   UNL     1      19.794  46.994  47.862  1.00  0.00     0.152 A 
HETATM   26  N   UNL     1      19.766  48.157  47.177  1.00  0.00    -0.339 N 
HETATM   27  C   UNL     1      18.491  48.592  46.883  1.00  0.00     0.024 A 
HETATM   28  H   UNL     1      20.627  48.643  46.937  1.00  0.00     0.168 HD
HETATM   29  C   UNL     1      18.255  49.904  46.230  1.00  0.00     0.060 C 
HETATM   30  C   UNL     1      17.505  47.740  47.302  1.00  0.00     0.011 A 
HETATM   31  C   UNL     1      16.778  50.044  45.797  1.00  0.00     0.039 C 
HETATM   32  C   UNL     1      15.741  49.445  46.782  1.00  0.00     0.191 C 
HETATM   33  C   UNL     1      16.038  47.945  47.076  1.00  0.00     0.081 C 
HETATM   34  S   UNL     1      18.169  46.384  48.084  1.00  0.00    -0.056 SA
BRANCH  32  35
HETATM   35  N   UNL     1      15.704  50.205  48.101  1.00  0.00    -0.070 N 
HETATM   36  H   UNL     1      16.380  49.824  48.777  1.00  0.00     0.277 HD
HETATM   37  H   UNL     1      14.776  50.028  48.525  1.00  0.00     0.277 HD
BRANCH  35  38
HETATM   38  C   UNL     1      15.862  51.708  48.015  1.00  0.00     0.241 C 
BRANCH  38  39
HETATM   39  C   UNL     1      16.429  52.229  49.322  1.00  0.00     0.144 C 
BRANCH  39  40
HETATM   40  C   UNL     1      17.928  52.040  49.311  1.00  0.00     0.389 C 
HETATM   41  F   UNL     1      18.228  50.729  49.380  1.00  0.00    -0.171 F 
HETATM   42  F   UNL     1      18.467  52.654  50.383  1.00  0.00    -0.171 F 
HETATM   43  F   UNL     1      18.468  52.558  48.198  1.00  0.00    -0.171 F 
ENDBRANCH  39  40
ENDBRANCH  38  39
ENDBRANCH  35  38
ENDBRANCH  32  35
ENDBRANCH  22  25
ENDBRANCH  19  21
ENDBRANCH  14  15
ENDBRANCH  13  14
ENDBRANCH  10  13
ENDBRANCH   1   9
TORSDOF 10
ENDMDL
MODEL 8
REMARK VINA RESULT:      -8.5      3.244      4.271
REMARK  10 active torsions:
REMARK  status: ('A' for Active; 'I' for Inactive)
REMARK    1  A    between atoms: C_2  and  C_5 
REMARK    2  A    between atoms: C_5  and  C_6 
REMARK    3  A    between atoms: C_6  and  N_7 
REMARK    4  A    between atoms: N_7  and  C_10 
REMARK    5  A    between atoms: C_16  and  N_17 
REMARK       I    between atoms: N_17  and  C_18 
REMARK    6  A    between atoms: C_18  and  C_20 
REMARK    7  A    between atoms: C_24  and  C_25 
REMARK    8  A    between atoms: C_25  and  O_26 
REMARK    9  A    between atoms: O_26  and  C_27 
REMARK       I    between atoms: C_27  and  N_29 
REMARK   10  A    between atoms: N_29  and  C_30 
ROOT
HETATM    1  C   UNL     1      25.616  43.143  49.591  1.00  0.00     0.036 A 
HETATM    2  C   UNL     1      24.542  42.430  49.053  1.00  0.00     0.031 A 
HETATM    3  C   UNL     1      24.737  41.149  48.522  1.00  0.00     0.025 A 
HETATM    4  C   UNL     1      26.007  40.567  48.530  1.00  0.00     0.044 A 
HETATM    5  C   UNL     1      27.082  41.272  49.073  1.00  0.00     0.025 A 
HETATM    6  C   UNL     1      26.887  42.555  49.597  1.00  0.00     0.031 A 
HETATM    7  C   UNL     1      26.200  39.258  47.979  1.00  0.00     0.099 C 
HETATM    8  N   UNL     1      26.341  38.202  47.520  1.00  0.00    -0.191 NA
ENDROOT
BRANCH   1   9
HETATM    9  N   UNL     1      25.502  44.436  50.126  1.00  0.00    -0.303 N 
HETATM   10  C   UNL     1      24.729  44.860  51.168  1.00  0.00     0.365 C 
HETATM   11  O   UNL     1      23.993  44.191  51.879  1.00  0.00    -0.238 OA
HETATM   12  H   UNL     1      26.078  45.165  49.725  1.00  0.00     0.171 HD
BRANCH  10  13
HETATM   13  O   UNL     1      24.908  46.202  51.305  1.00  0.00    -0.299 OA
BRANCH  13  14
HETATM   14  C   UNL     1      26.187  46.703  50.898  1.00  0.00     0.219 C 
BRANCH  14  15
HETATM   15  C   UNL     1      26.051  47.890  49.974  1.00  0.00    -0.033 A 
HETATM   16  C   UNL     1      27.183  48.539  49.466  1.00  0.00     0.009 A 
HETATM   17  C   UNL     1      27.049  49.619  48.591  1.00  0.00     0.002 A 
HETATM   18  C   UNL     1      25.781  50.058  48.201  1.00  0.00     0.017 A 
HETATM   19  C   UNL     1      24.643  49.406  48.690  1.00  0.00     0.033 A 
HETATM   20  C   UNL     1      24.781  48.338  49.585  1.00  0.00     0.026 A 
BRANCH  19  21
HETATM   21  C   UNL     1      23.269  49.819  48.319  1.00  0.00     0.257 C 
HETATM   22  N   UNL     1      22.198  49.343  49.132  1.00  0.00    -0.303 N 
HETATM   23  H   UNL     1      22.373  48.742  49.919  1.00  0.00     0.171 HD
HETATM   24  O   UNL     1      23.040  50.511  47.346  1.00  0.00    -0.267 OA
BRANCH  22  25
HETATM   25  C   UNL     1      20.928  49.679  48.932  1.00  0.00     0.152 A 
HETATM   26  N   UNL     1      20.515  50.158  47.740  1.00  0.00    -0.339 N 
HETATM   27  C   UNL     1      19.180  50.504  47.719  1.00  0.00     0.024 A 
HETATM   28  H   UNL     1      21.164  50.257  46.963  1.00  0.00     0.168 HD
HETATM   29  C   UNL     1      18.570  51.150  46.530  1.00  0.00     0.060 C 
HETATM   30  C   UNL     1      18.525  50.252  48.893  1.00  0.00     0.011 A 
HETATM   31  C   UNL     1      17.031  51.211  46.668  1.00  0.00     0.039 C 
HETATM   32  C   UNL     1      16.508  51.513  48.097  1.00  0.00     0.191 C 
HETATM   33  C   UNL     1      17.065  50.491  49.132  1.00  0.00     0.081 C 
HETATM   34  S   UNL     1      19.583  49.587  50.046  1.00  0.00    -0.056 SA
BRANCH  32  35
HETATM   35  N   UNL     1      16.872  52.919  48.552  1.00  0.00    -0.070 N 
HETATM   36  H   UNL     1      16.505  53.633  47.907  1.00  0.00     0.277 HD
HETATM   37  H   UNL     1      17.901  53.001  48.482  1.00  0.00     0.277 HD
BRANCH  35  38
HETATM   38  C   UNL     1      16.502  53.281  49.975  1.00  0.00     0.241 C 
BRANCH  38  39
HETATM   39  C   UNL     1      15.405  54.329  49.957  1.00  0.00     0.144 C 
BRANCH  39  40
HETATM   40  C   UNL     1      14.080  53.648  50.209  1.00  0.00     0.389 C 
HETATM   41  F   UNL     1      13.311  53.712  49.106  1.00  0.00    -0.171 F 
HETATM   42  F   UNL     1      13.434  54.278  51.212  1.00  0.00    -0.171 F 
HETATM   43  F   UNL     1      14.259  52.363  50.549  1.00  0.00    -0.171 F 
ENDBRANCH  39  40
ENDBRANCH  38  39
ENDBRANCH  35  38
ENDBRANCH  32  35
ENDBRANCH  22  25
ENDBRANCH  19  21
ENDBRANCH  14  15
ENDBRANCH  13  14
ENDBRANCH  10  13
ENDBRANCH   1   9
TORSDOF 10
ENDMDL
MODEL 9
REMARK VINA RESULT:      -8.4     13.246     15.110
REMARK  10 active torsions:
REMARK  status: ('A' for Active; 'I' for Inactive)
REMARK    1  A    between atoms: C_2  and  C_5 
REMARK    2  A    between atoms: C_5  and  C_6 
REMARK    3  A    between atoms: C_6  and  N_7 
REMARK    4  A    between atoms: N_7  and  C_10 
REMARK    5  A    between atoms: C_16  and  N_17 
REMARK       I    between atoms: N_17  and  C_18 
REMARK    6  A    between atoms: C_18  and  C_20 
REMARK    7  A    between atoms: C_24  and  C_25 
REMARK    8  A    between atoms: C_25  and  O_26 
REMARK    9  A    between atoms: O_26  and  C_27 
REMARK       I    between atoms: C_27  and  N_29 
REMARK   10  A    between atoms: N_29  and  C_30 
ROOT
HETATM    1  C   UNL     1      40.924  45.877  44.765  1.00  0.00     0.036 A 
HETATM    2  C   UNL     1      40.061  44.780  44.692  1.00  0.00     0.031 A 
HETATM    3  C   UNL     1      40.425  43.553  45.259  1.00  0.00     0.025 A 
HETATM    4  C   UNL     1      41.654  43.413  45.909  1.00  0.00     0.044 A 
HETATM    5  C   UNL     1      42.517  44.507  45.991  1.00  0.00     0.025 A 
HETATM    6  C   UNL     1      42.154  45.731  45.418  1.00  0.00     0.031 A 
HETATM    7  C   UNL     1      42.023  42.152  46.482  1.00  0.00     0.099 C 
HETATM    8  N   UNL     1      42.311  41.121  46.931  1.00  0.00    -0.191 NA
ENDROOT
BRANCH   1   9
HETATM    9  N   UNL     1      40.635  47.133  44.207  1.00  0.00    -0.303 N 
HETATM   10  C   UNL     1      39.708  48.049  44.611  1.00  0.00     0.365 C 
HETATM   11  O   UNL     1      38.951  47.982  45.569  1.00  0.00    -0.238 OA
HETATM   12  H   UNL     1      41.191  47.438  43.419  1.00  0.00     0.171 HD
BRANCH  10  13
HETATM   13  O   UNL     1      39.753  49.100  43.749  1.00  0.00    -0.299 OA
BRANCH  13  14
HETATM   14  C   UNL     1      38.750  50.106  43.941  1.00  0.00     0.219 C 
BRANCH  14  15
HETATM   15  C   UNL     1      38.128  50.530  42.631  1.00  0.00    -0.033 A 
HETATM   16  C   UNL     1      38.920  51.013  41.583  1.00  0.00     0.009 A 
HETATM   17  C   UNL     1      38.340  51.378  40.366  1.00  0.00     0.002 A 
HETATM   18  C   UNL     1      36.961  51.253  40.175  1.00  0.00     0.017 A 
HETATM   19  C   UNL     1      36.163  50.755  41.211  1.00  0.00     0.033 A 
HETATM   20  C   UNL     1      36.745  50.412  42.438  1.00  0.00     0.026 A 
BRANCH  19  21
HETATM   21  C   UNL     1      34.696  50.598  41.079  1.00  0.00     0.257 C 
HETATM   22  N   UNL     1      34.147  49.307  41.336  1.00  0.00    -0.303 N 
HETATM   23  H   UNL     1      34.738  48.534  41.588  1.00  0.00     0.171 HD
HETATM   24  O   UNL     1      33.974  51.514  40.735  1.00  0.00    -0.267 OA
BRANCH  22  25
HETATM   25  C   UNL     1      32.844  49.049  41.295  1.00  0.00     0.152 A 
HETATM   26  N   UNL     1      32.243  48.682  40.143  1.00  0.00    -0.339 N 
HETATM   27  C   UNL     1      30.882  48.503  40.265  1.00  0.00     0.024 A 
HETATM   28  H   UNL     1      32.780  48.579  39.284  1.00  0.00     0.168 HD
HETATM   29  C   UNL     1      30.034  48.204  39.084  1.00  0.00     0.060 C 
HETATM   30  C   UNL     1      30.412  48.686  41.537  1.00  0.00     0.011 A 
HETATM   31  C   UNL     1      28.604  47.813  39.520  1.00  0.00     0.039 C 
HETATM   32  C   UNL     1      28.040  48.609  40.726  1.00  0.00     0.191 C 
HETATM   33  C   UNL     1      28.984  48.513  41.960  1.00  0.00     0.081 C 
HETATM   34  S   UNL     1      31.676  49.100  42.596  1.00  0.00    -0.056 SA
BRANCH  32  35
HETATM   35  N   UNL     1      27.822  50.077  40.388  1.00  0.00    -0.070 N 
HETATM   36  H   UNL     1      26.881  50.243  40.006  1.00  0.00     0.277 HD
HETATM   37  H   UNL     1      28.468  50.307  39.612  1.00  0.00     0.277 HD
BRANCH  35  38
HETATM   38  C   UNL     1      28.103  51.070  41.496  1.00  0.00     0.241 C 
BRANCH  38  39
HETATM   39  C   UNL     1      28.046  52.478  40.934  1.00  0.00     0.144 C 
BRANCH  39  40
HETATM   40  C   UNL     1      29.322  52.750  40.173  1.00  0.00     0.389 C 
HETATM   41  F   UNL     1      29.696  54.033  40.343  1.00  0.00    -0.171 F 
HETATM   42  F   UNL     1      29.115  52.541  38.857  1.00  0.00    -0.171 F 
HETATM   43  F   UNL     1      30.309  51.944  40.590  1.00  0.00    -0.171 F 
ENDBRANCH  39  40
ENDBRANCH  38  39
ENDBRANCH  35  38
ENDBRANCH  32  35
ENDBRANCH  22  25
ENDBRANCH  19  21
ENDBRANCH  14  15
ENDBRANCH  13  14
ENDBRANCH  10  13
ENDBRANCH   1   9
TORSDOF 10
ENDMDL
MODEL 10
REMARK VINA RESULT:      -8.1      5.711     12.850
REMARK  10 active torsions:
REMARK  status: ('A' for Active; 'I' for Inactive)
REMARK    1  A    between atoms: C_2  and  C_5 
REMARK    2  A    between atoms: C_5  and  C_6 
REMARK    3  A    between atoms: C_6  and  N_7 
REMARK    4  A    between atoms: N_7  and  C_10 
REMARK    5  A    between atoms: C_16  and  N_17 
REMARK       I    between atoms: N_17  and  C_18 
REMARK    6  A    between atoms: C_18  and  C_20 
REMARK    7  A    between atoms: C_24  and  C_25 
REMARK    8  A    between atoms: C_25  and  O_26 
REMARK    9  A    between atoms: O_26  and  C_27 
REMARK       I    between atoms: C_27  and  N_29 
REMARK   10  A    between atoms: N_29  and  C_30 
ROOT
HETATM    1  C   UNL     1      17.963  50.724  48.950  1.00  0.00     0.036 A 
HETATM    2  C   UNL     1      18.098  51.869  49.738  1.00  0.00     0.031 A 
HETATM    3  C   UNL     1      16.986  52.673  50.017  1.00  0.00     0.025 A 
HETATM    4  C   UNL     1      15.727  52.334  49.515  1.00  0.00     0.044 A 
HETATM    5  C   UNL     1      15.585  51.187  48.732  1.00  0.00     0.025 A 
HETATM    6  C   UNL     1      16.699  50.389  48.449  1.00  0.00     0.031 A 
HETATM    7  C   UNL     1      14.594  53.165  49.799  1.00  0.00     0.099 C 
HETATM    8  N   UNL     1      13.688  53.853  50.029  1.00  0.00    -0.191 NA
ENDROOT
BRANCH   1   9
HETATM    9  N   UNL     1      19.034  49.879  48.614  1.00  0.00    -0.303 N 
HETATM   10  C   UNL     1      19.770  49.856  47.466  1.00  0.00     0.365 C 
HETATM   11  O   UNL     1      19.672  50.593  46.494  1.00  0.00    -0.238 OA
HETATM   12  H   UNL     1      19.340  49.208  49.306  1.00  0.00     0.171 HD
BRANCH  10  13
HETATM   13  O   UNL     1      20.673  48.844  47.565  1.00  0.00    -0.299 OA
BRANCH  13  14
HETATM   14  C   UNL     1      20.421  47.702  46.738  1.00  0.00     0.219 C 
BRANCH  14  15
HETATM   15  C   UNL     1      21.388  46.578  47.029  1.00  0.00    -0.033 A 
HETATM   16  C   UNL     1      21.440  45.444  46.210  1.00  0.00     0.009 A 
HETATM   17  C   UNL     1      22.355  44.422  46.471  1.00  0.00     0.002 A 
HETATM   18  C   UNL     1      23.241  44.526  47.546  1.00  0.00     0.017 A 
HETATM   19  C   UNL     1      23.208  45.663  48.361  1.00  0.00     0.033 A 
HETATM   20  C   UNL     1      22.274  46.675  48.111  1.00  0.00     0.026 A 
BRANCH  19  21
HETATM   21  C   UNL     1      24.117  45.837  49.519  1.00  0.00     0.257 C 
HETATM   22  N   UNL     1      23.843  45.070  50.690  1.00  0.00    -0.303 N 
HETATM   23  H   UNL     1      23.057  44.444  50.727  1.00  0.00     0.171 HD
HETATM   24  O   UNL     1      25.046  46.621  49.502  1.00  0.00    -0.267 OA
BRANCH  22  25
HETATM   25  C   UNL     1      24.608  45.103  51.776  1.00  0.00     0.152 A 
HETATM   26  N   UNL     1      25.198  46.248  52.177  1.00  0.00    -0.339 N 
HETATM   27  C   UNL     1      25.996  46.095  53.291  1.00  0.00     0.024 A 
HETATM   28  H   UNL     1      25.056  47.116  51.666  1.00  0.00     0.168 HD
HETATM   29  C   UNL     1      26.812  47.218  53.816  1.00  0.00     0.060 C 
HETATM   30  C   UNL     1      25.999  44.825  53.799  1.00  0.00     0.011 A 
HETATM   31  C   UNL     1      27.418  46.861  55.192  1.00  0.00     0.039 C 
HETATM   32  C   UNL     1      27.892  45.392  55.344  1.00  0.00     0.191 C 
HETATM   33  C   UNL     1      26.743  44.390  55.026  1.00  0.00     0.081 C 
HETATM   34  S   UNL     1      25.006  43.800  52.874  1.00  0.00    -0.056 SA
BRANCH  32  35
HETATM   35  N   UNL     1      29.079  45.080  54.443  1.00  0.00    -0.070 N 
HETATM   36  H   UNL     1      29.887  45.681  54.659  1.00  0.00     0.277 HD
HETATM   37  H   UNL     1      28.803  45.342  53.480  1.00  0.00     0.277 HD
BRANCH  35  38
HETATM   38  C   UNL     1      29.519  43.633  54.390  1.00  0.00     0.241 C 
BRANCH  38  39
HETATM   39  C   UNL     1      29.604  43.187  52.942  1.00  0.00     0.144 C 
BRANCH  39  40
HETATM   40  C   UNL     1      28.739  41.963  52.759  1.00  0.00     0.389 C 
HETATM   41  F   UNL     1      27.944  41.795  53.832  1.00  0.00    -0.171 F 
HETATM   42  F   UNL     1      29.522  40.872  52.638  1.00  0.00    -0.171 F 
HETATM   43  F   UNL     1      27.977  42.074  51.660  1.00  0.00    -0.171 F 
ENDBRANCH  39  40
ENDBRANCH  38  39
ENDBRANCH  35  38
ENDBRANCH  32  35
ENDBRANCH  22  25
ENDBRANCH  19  21
ENDBRANCH  14  15
ENDBRANCH  13  14
ENDBRANCH  10  13
ENDBRANCH   1   9
TORSDOF 10
ENDMDL
