MODEL 1
REMARK VINA RESULT:      -8.9      0.000      0.000
REMARK  5 active torsions:
REMARK  status: ('A' for Active; 'I' for Inactive)
REMARK    1  A    between atoms: C_2  and  N_3 
REMARK       I    between atoms: N_3  and  C_4 
REMARK    2  A    between atoms: C_4  and  C_5 
REMARK    3  A    between atoms: C_8  and  N_9 
REMARK       I    between atoms: N_9  and  C_10 
REMARK       I    between atoms: C_10  and  N_11 
REMARK    4  A    between atoms: N_11  and  C_12 
REMARK    5  A    between atoms: C_17  and  C_18 
ROOT
HETATM    1  N   UNL     1      24.956  45.581  50.676  1.00  0.00    -0.309 N 
HETATM    2  C   UNL     1      24.694  46.943  50.733  1.00  0.00     0.325 C 
HETATM    3  N   UNL     1      24.113  47.362  49.544  1.00  0.00    -0.308 N 
HETATM    4  O   UNL     1      24.979  47.669  51.675  1.00  0.00    -0.247 OA
HETATM    5  H   UNL     1      24.396  45.049  50.026  1.00  0.00     0.170 HD
HETATM    6  H   UNL     1      24.229  46.722  48.776  1.00  0.00     0.170 HD
ENDROOT
BRANCH   1   7
HETATM    7  C   UNL     1      25.824  44.846  51.508  1.00  0.00     0.036 A 
HETATM    8  C   UNL     1      25.542  44.540  52.842  1.00  0.00     0.030 A 
HETATM    9  C   UNL     1      26.488  43.888  53.641  1.00  0.00     0.019 A 
HETATM   10  C   UNL     1      27.738  43.548  53.116  1.00  0.00     0.032 A 
HETATM   11  C   UNL     1      28.011  43.816  51.771  1.00  0.00     0.019 A 
HETATM   12  C   UNL     1      27.061  44.464  50.974  1.00  0.00     0.030 A 
BRANCH  10  13
HETATM   13  C   UNL     1      28.802  42.919  53.948  1.00  0.00     0.251 C 
HETATM   14  N   UNL     1      29.471  43.757  54.818  1.00  0.00    -0.357 N 
HETATM   15  H   UNL     1      29.327  44.755  54.750  1.00  0.00     0.162 HD
HETATM   16  O   UNL     1      29.075  41.733  53.803  1.00  0.00    -0.268 OA
BRANCH  14  17
HETATM   17  C   UNL     1      30.614  43.302  55.581  1.00  0.00     0.118 C 
HETATM   18  C   UNL     1      31.061  44.349  56.586  1.00  0.00     0.026 C 
ENDBRANCH  14  17
ENDBRANCH  10  13
ENDBRANCH   1   7
BRANCH   3  19
HETATM   19  C   UNL     1      23.715  48.680  49.207  1.00  0.00     0.043 A 
HETATM   20  C   UNL     1      24.672  49.559  48.655  1.00  0.00    -0.035 A 
HETATM   21  C   UNL     1      26.099  49.149  48.406  1.00  0.00     0.050 C 
HETATM   22  C   UNL     1      24.297  50.877  48.352  1.00  0.00     0.010 A 
HETATM   23  C   UNL     1      22.993  51.318  48.576  1.00  0.00     0.016 A 
HETATM   24  C   UNL     1      22.026  50.452  49.096  1.00  0.00     0.019 A 
HETATM   25  C   UNL     1      22.402  49.134  49.402  1.00  0.00     0.046 A 
BRANCH  24  26
HETATM   26  C   UNL     1      20.667  50.940  49.311  1.00  0.00     0.179 A 
HETATM   27  O   UNL     1      20.229  51.950  48.491  1.00  0.00    -0.302 OA
HETATM   28  C   UNL     1      18.959  52.199  48.913  1.00  0.00     0.163 A 
HETATM   29  C   UNL     1      18.683  51.348  49.951  1.00  0.00     0.144 A 
HETATM   30  N   UNL     1      19.773  50.554  50.205  1.00  0.00    -0.234 NA
ENDBRANCH  24  26
ENDBRANCH   3  19
TORSDOF 5
ENDMDL
MODEL 2
REMARK VINA RESULT:      -8.7      1.447      1.588
REMARK  5 active torsions:
REMARK  status: ('A' for Active; 'I' for Inactive)
REMARK    1  A    between atoms: C_2  and  N_3 
REMARK       I    between atoms: N_3  and  C_4 
REMARK    2  A    between atoms: C_4  and  C_5 
REMARK    3  A    between atoms: C_8  and  N_9 
REMARK       I    between atoms: N_9  and  C_10 
REMARK       I    between atoms: C_10  and  N_11 
REMARK    4  A    between atoms: N_11  and  C_12 
REMARK    5  A    between atoms: C_17  and  C_18 
ROOT
HETATM    1  N   UNL     1      25.853  45.681  51.105  1.00  0.00    -0.309 N 
HETATM    2  C   UNL     1      25.177  46.892  51.031  1.00  0.00     0.325 C 
HETATM    3  N   UNL     1      24.779  47.131  49.722  1.00  0.00    -0.308 N 
HETATM    4  O   UNL     1      25.005  47.654  51.972  1.00  0.00    -0.247 OA
HETATM    5  H   UNL     1      25.646  45.013  50.377  1.00  0.00     0.170 HD
HETATM    6  H   UNL     1      25.256  46.573  49.034  1.00  0.00     0.170 HD
ENDROOT
BRANCH   1   7
HETATM    7  C   UNL     1      26.695  45.240  52.145  1.00  0.00     0.036 A 
HETATM    8  C   UNL     1      26.723  45.820  53.416  1.00  0.00     0.030 A 
HETATM    9  C   UNL     1      27.649  45.395  54.375  1.00  0.00     0.019 A 
HETATM   10  C   UNL     1      28.571  44.391  54.066  1.00  0.00     0.032 A 
HETATM   11  C   UNL     1      28.521  43.779  52.811  1.00  0.00     0.019 A 
HETATM   12  C   UNL     1      27.591  44.203  51.855  1.00  0.00     0.030 A 
BRANCH  10  13
HETATM   13  C   UNL     1      29.622  43.956  55.030  1.00  0.00     0.251 C 
HETATM   14  N   UNL     1      29.884  44.820  56.076  1.00  0.00    -0.357 N 
HETATM   15  H   UNL     1      29.482  45.747  56.062  1.00  0.00     0.162 HD
HETATM   16  O   UNL     1      30.233  42.910  54.843  1.00  0.00    -0.268 OA
BRANCH  14  17
HETATM   17  C   UNL     1      30.972  44.581  57.001  1.00  0.00     0.118 C 
HETATM   18  C   UNL     1      30.717  45.251  58.339  1.00  0.00     0.026 C 
ENDBRANCH  14  17
ENDBRANCH  10  13
ENDBRANCH   1   7
BRANCH   3  19
HETATM   19  C   UNL     1      24.080  48.263  49.236  1.00  0.00     0.043 A 
HETATM   20  C   UNL     1      24.819  49.338  48.696  1.00  0.00    -0.035 A 
HETATM   21  C   UNL     1      26.323  49.325  48.612  1.00  0.00     0.050 C 
HETATM   22  C   UNL     1      24.139  50.480  48.246  1.00  0.00     0.010 A 
HETATM   23  C   UNL     1      22.748  50.556  48.313  1.00  0.00     0.016 A 
HETATM   24  C   UNL     1      21.999  49.488  48.820  1.00  0.00     0.019 A 
HETATM   25  C   UNL     1      22.681  48.347  49.273  1.00  0.00     0.046 A 
BRANCH  24  26
HETATM   26  C   UNL     1      20.544  49.594  48.870  1.00  0.00     0.179 A 
HETATM   27  O   UNL     1      19.868  48.597  49.529  1.00  0.00    -0.302 OA
HETATM   28  C   UNL     1      18.557  48.948  49.415  1.00  0.00     0.163 A 
HETATM   29  C   UNL     1      18.492  50.119  48.705  1.00  0.00     0.144 A 
HETATM   30  N   UNL     1      19.756  50.523  48.355  1.00  0.00    -0.234 NA
ENDBRANCH  24  26
ENDBRANCH   3  19
TORSDOF 5
ENDMDL
MODEL 3
REMARK VINA RESULT:      -8.6      1.919     10.356
REMARK  5 active torsions:
REMARK  status: ('A' for Active; 'I' for Inactive)
REMARK    1  A    between atoms: C_2  and  N_3 
REMARK       I    between atoms: N_3  and  C_4 
REMARK    2  A    between atoms: C_4  and  C_5 
REMARK    3  A    between atoms: C_8  and  N_9 
REMARK       I    between atoms: N_9  and  C_10 
REMARK       I    between atoms: C_10  and  N_11 
REMARK    4  A    between atoms: N_11  and  C_12 
REMARK    5  A    between atoms: C_17  and  C_18 
ROOT
HETATM    1  N   UNL     1      24.719  45.016  50.729  1.00  0.00    -0.309 N 
HETATM    2  C   UNL     1      26.028  44.619  50.964  1.00  0.00     0.325 C 
HETATM    3  N   UNL     1      26.063  43.702  52.006  1.00  0.00    -0.308 N 
HETATM    4  O   UNL     1      27.006  45.053  50.371  1.00  0.00    -0.247 OA
HETATM    5  H   UNL     1      24.000  44.373  51.026  1.00  0.00     0.170 HD
HETATM    6  H   UNL     1      25.234  43.688  52.575  1.00  0.00     0.170 HD
ENDROOT
BRANCH   1   7
HETATM    7  C   UNL     1      24.290  46.153  50.014  1.00  0.00     0.036 A 
HETATM    8  C   UNL     1      24.832  47.428  50.193  1.00  0.00     0.030 A 
HETATM    9  C   UNL     1      24.298  48.532  49.519  1.00  0.00     0.019 A 
HETATM   10  C   UNL     1      23.200  48.374  48.668  1.00  0.00     0.032 A 
HETATM   11  C   UNL     1      22.680  47.094  48.454  1.00  0.00     0.019 A 
HETATM   12  C   UNL     1      23.219  45.992  49.126  1.00  0.00     0.030 A 
BRANCH  10  13
HETATM   13  C   UNL     1      22.553  49.530  47.986  1.00  0.00     0.251 C 
HETATM   14  N   UNL     1      21.235  49.775  48.321  1.00  0.00    -0.357 N 
HETATM   15  H   UNL     1      20.732  49.095  48.874  1.00  0.00     0.162 HD
HETATM   16  O   UNL     1      23.170  50.172  47.144  1.00  0.00    -0.268 OA
BRANCH  14  17
HETATM   17  C   UNL     1      20.452  50.779  47.632  1.00  0.00     0.118 C 
HETATM   18  C   UNL     1      19.886  51.801  48.602  1.00  0.00     0.026 C 
ENDBRANCH  14  17
ENDBRANCH  10  13
ENDBRANCH   1   7
BRANCH   3  19
HETATM   19  C   UNL     1      27.211  43.077  52.553  1.00  0.00     0.043 A 
HETATM   20  C   UNL     1      27.588  41.805  52.067  1.00  0.00    -0.035 A 
HETATM   21  C   UNL     1      26.821  41.092  50.986  1.00  0.00     0.050 C 
HETATM   22  C   UNL     1      28.701  41.161  52.629  1.00  0.00     0.010 A 
HETATM   23  C   UNL     1      29.441  41.767  53.644  1.00  0.00     0.016 A 
HETATM   24  C   UNL     1      29.097  43.037  54.116  1.00  0.00     0.019 A 
HETATM   25  C   UNL     1      27.981  43.681  53.557  1.00  0.00     0.046 A 
BRANCH  24  26
HETATM   26  C   UNL     1      29.896  43.649  55.175  1.00  0.00     0.179 A 
HETATM   27  O   UNL     1      29.596  44.945  55.513  1.00  0.00    -0.302 OA
HETATM   28  C   UNL     1      30.482  45.248  56.501  1.00  0.00     0.163 A 
HETATM   29  C   UNL     1      31.268  44.146  56.717  1.00  0.00     0.144 A 
HETATM   30  N   UNL     1      30.897  43.134  55.868  1.00  0.00    -0.234 NA
ENDBRANCH  24  26
ENDBRANCH   3  19
TORSDOF 5
ENDMDL
MODEL 4
REMARK VINA RESULT:      -8.0      2.366     10.071
REMARK  5 active torsions:
REMARK  status: ('A' for Active; 'I' for Inactive)
REMARK    1  A    between atoms: C_2  and  N_3 
REMARK       I    between atoms: N_3  and  C_4 
REMARK    2  A    between atoms: C_4  and  C_5 
REMARK    3  A    between atoms: C_8  and  N_9 
REMARK       I    between atoms: N_9  and  C_10 
REMARK       I    between atoms: C_10  and  N_11 
REMARK    4  A    between atoms: N_11  and  C_12 
REMARK    5  A    between atoms: C_17  and  C_18 
ROOT
HETATM    1  N   UNL     1      22.482  47.546  49.116  1.00  0.00    -0.309 N 
HETATM    2  C   UNL     1      23.642  47.465  49.876  1.00  0.00     0.325 C 
HETATM    3  N   UNL     1      23.966  46.134  50.101  1.00  0.00    -0.308 N 
HETATM    4  O   UNL     1      24.255  48.426  50.318  1.00  0.00    -0.247 OA
HETATM    5  H   UNL     1      22.267  46.740  48.548  1.00  0.00     0.170 HD
HETATM    6  H   UNL     1      23.211  45.489  49.939  1.00  0.00     0.170 HD
ENDROOT
BRANCH   1   7
HETATM    7  C   UNL     1      21.646  48.670  48.959  1.00  0.00     0.036 A 
HETATM    8  C   UNL     1      22.113  49.937  48.602  1.00  0.00     0.030 A 
HETATM    9  C   UNL     1      21.243  51.032  48.553  1.00  0.00     0.019 A 
HETATM   10  C   UNL     1      19.893  50.872  48.878  1.00  0.00     0.032 A 
HETATM   11  C   UNL     1      19.412  49.599  49.196  1.00  0.00     0.019 A 
HETATM   12  C   UNL     1      20.284  48.505  49.240  1.00  0.00     0.030 A 
BRANCH  10  13
HETATM   13  C   UNL     1      18.944  52.022  48.911  1.00  0.00     0.251 C 
HETATM   14  N   UNL     1      17.953  51.967  49.871  1.00  0.00    -0.357 N 
HETATM   15  H   UNL     1      17.818  51.111  50.392  1.00  0.00     0.162 HD
HETATM   16  O   UNL     1      19.039  52.920  48.082  1.00  0.00    -0.268 OA
BRANCH  14  17
HETATM   17  C   UNL     1      16.890  52.949  49.920  1.00  0.00     0.118 C 
HETATM   18  C   UNL     1      15.561  52.347  49.501  1.00  0.00     0.026 C 
ENDBRANCH  14  17
ENDBRANCH  10  13
ENDBRANCH   1   7
BRANCH   3  19
HETATM   19  C   UNL     1      25.066  45.638  50.844  1.00  0.00     0.043 A 
HETATM   20  C   UNL     1      25.754  44.502  50.364  1.00  0.00    -0.035 A 
HETATM   21  C   UNL     1      25.366  43.801  49.089  1.00  0.00     0.050 C 
HETATM   22  C   UNL     1      26.821  43.981  51.111  1.00  0.00     0.010 A 
HETATM   23  C   UNL     1      27.214  44.579  52.308  1.00  0.00     0.016 A 
HETATM   24  C   UNL     1      26.562  45.721  52.783  1.00  0.00     0.019 A 
HETATM   25  C   UNL     1      25.492  46.241  52.037  1.00  0.00     0.046 A 
BRANCH  24  26
HETATM   26  C   UNL     1      27.003  46.330  54.035  1.00  0.00     0.179 A 
HETATM   27  O   UNL     1      26.367  47.482  54.427  1.00  0.00    -0.302 OA
HETATM   28  C   UNL     1      26.973  47.817  55.599  1.00  0.00     0.163 A 
HETATM   29  C   UNL     1      27.932  46.875  55.866  1.00  0.00     0.144 A 
HETATM   30  N   UNL     1      27.952  45.935  54.866  1.00  0.00    -0.234 NA
ENDBRANCH  24  26
ENDBRANCH   3  19
TORSDOF 5
ENDMDL
MODEL 5
REMARK VINA RESULT:      -8.0      5.328      9.170
REMARK  5 active torsions:
REMARK  status: ('A' for Active; 'I' for Inactive)
REMARK    1  A    between atoms: C_2  and  N_3 
REMARK       I    between atoms: N_3  and  C_4 
REMARK    2  A    between atoms: C_4  and  C_5 
REMARK    3  A    between atoms: C_8  and  N_9 
REMARK       I    between atoms: N_9  and  C_10 
REMARK       I    between atoms: C_10  and  N_11 
REMARK    4  A    between atoms: N_11  and  C_12 
REMARK    5  A    between atoms: C_17  and  C_18 
ROOT
HETATM    1  N   UNL     1      26.210  42.320  51.433  1.00  0.00    -0.309 N 
HETATM    2  C   UNL     1      27.078  43.103  52.184  1.00  0.00     0.325 C 
HETATM    3  N   UNL     1      26.373  44.126  52.803  1.00  0.00    -0.308 N 
HETATM    4  O   UNL     1      28.288  42.939  52.246  1.00  0.00    -0.247 OA
HETATM    5  H   UNL     1      25.241  42.338  51.715  1.00  0.00     0.170 HD
HETATM    6  H   UNL     1      25.463  44.301  52.411  1.00  0.00     0.170 HD
ENDROOT
BRANCH   1   7
HETATM    7  C   UNL     1      26.553  41.416  50.408  1.00  0.00     0.036 A 
HETATM    8  C   UNL     1      26.402  40.031  50.516  1.00  0.00     0.030 A 
HETATM    9  C   UNL     1      26.848  39.182  49.497  1.00  0.00     0.019 A 
HETATM   10  C   UNL     1      27.468  39.711  48.361  1.00  0.00     0.032 A 
HETATM   11  C   UNL     1      27.584  41.098  48.229  1.00  0.00     0.019 A 
HETATM   12  C   UNL     1      27.133  41.944  49.247  1.00  0.00     0.030 A 
BRANCH  10  13
HETATM   13  C   UNL     1      28.023  38.842  47.285  1.00  0.00     0.251 C 
HETATM   14  N   UNL     1      27.921  39.329  45.996  1.00  0.00    -0.357 N 
HETATM   15  H   UNL     1      27.357  40.149  45.822  1.00  0.00     0.162 HD
HETATM   16  O   UNL     1      28.489  37.743  47.561  1.00  0.00    -0.268 OA
BRANCH  14  17
HETATM   17  C   UNL     1      28.297  38.526  44.851  1.00  0.00     0.118 C 
HETATM   18  C   UNL     1      28.789  39.392  43.706  1.00  0.00     0.026 C 
ENDBRANCH  14  17
ENDBRANCH  10  13
ENDBRANCH   1   7
BRANCH   3  19
HETATM   19  C   UNL     1      26.901  45.141  53.639  1.00  0.00     0.043 A 
HETATM   20  C   UNL     1      26.494  46.476  53.427  1.00  0.00    -0.035 A 
HETATM   21  C   UNL     1      25.516  46.863  52.349  1.00  0.00     0.050 C 
HETATM   22  C   UNL     1      27.039  47.494  54.226  1.00  0.00     0.010 A 
HETATM   23  C   UNL     1      27.962  47.197  55.229  1.00  0.00     0.016 A 
HETATM   24  C   UNL     1      28.353  45.876  55.471  1.00  0.00     0.019 A 
HETATM   25  C   UNL     1      27.811  44.859  54.669  1.00  0.00     0.046 A 
BRANCH  24  26
HETATM   26  C   UNL     1      29.314  45.597  56.534  1.00  0.00     0.179 A 
HETATM   27  O   UNL     1      30.271  44.646  56.277  1.00  0.00    -0.302 OA
HETATM   28  C   UNL     1      31.008  44.595  57.420  1.00  0.00     0.163 A 
HETATM   29  C   UNL     1      30.480  45.497  58.307  1.00  0.00     0.144 A 
HETATM   30  N   UNL     1      29.400  46.128  57.742  1.00  0.00    -0.234 NA
ENDBRANCH  24  26
ENDBRANCH   3  19
TORSDOF 5
ENDMDL
MODEL 6
REMARK VINA RESULT:      -7.9      4.608      8.610
REMARK  5 active torsions:
REMARK  status: ('A' for Active; 'I' for Inactive)
REMARK    1  A    between atoms: C_2  and  N_3 
REMARK       I    between atoms: N_3  and  C_4 
REMARK    2  A    between atoms: C_4  and  C_5 
REMARK    3  A    between atoms: C_8  and  N_9 
REMARK       I    between atoms: N_9  and  C_10 
REMARK       I    between atoms: C_10  and  N_11 
REMARK    4  A    between atoms: N_11  and  C_12 
REMARK    5  A    between atoms: C_17  and  C_18 
ROOT
HETATM    1  N   UNL     1      19.441  50.476  49.185  1.00  0.00    -0.309 N 
HETATM    2  C   UNL     1      18.688  51.635  49.051  1.00  0.00     0.325 C 
HETATM    3  N   UNL     1      17.336  51.332  49.135  1.00  0.00    -0.308 N 
HETATM    4  O   UNL     1      19.151  52.747  48.840  1.00  0.00    -0.247 OA
HETATM    5  H   UNL     1      18.995  49.713  49.673  1.00  0.00     0.170 HD
HETATM    6  H   UNL     1      17.118  50.358  49.002  1.00  0.00     0.170 HD
ENDROOT
BRANCH   1   7
HETATM    7  C   UNL     1      20.792  50.293  48.829  1.00  0.00     0.036 A 
HETATM    8  C   UNL     1      21.235  49.286  47.968  1.00  0.00     0.030 A 
HETATM    9  C   UNL     1      22.601  49.101  47.729  1.00  0.00     0.019 A 
HETATM   10  C   UNL     1      23.544  49.915  48.363  1.00  0.00     0.032 A 
HETATM   11  C   UNL     1      23.104  50.951  49.193  1.00  0.00     0.019 A 
HETATM   12  C   UNL     1      21.737  51.136  49.427  1.00  0.00     0.030 A 
BRANCH  10  13
HETATM   13  C   UNL     1      25.010  49.709  48.194  1.00  0.00     0.251 C 
HETATM   14  N   UNL     1      25.623  48.901  49.132  1.00  0.00    -0.357 N 
HETATM   15  H   UNL     1      25.106  48.617  49.952  1.00  0.00     0.162 HD
HETATM   16  O   UNL     1      25.612  50.283  47.294  1.00  0.00    -0.268 OA
BRANCH  14  17
HETATM   17  C   UNL     1      27.060  48.731  49.161  1.00  0.00     0.118 C 
HETATM   18  C   UNL     1      27.441  47.277  49.380  1.00  0.00     0.026 C 
ENDBRANCH  14  17
ENDBRANCH  10  13
ENDBRANCH   1   7
BRANCH   3  19
HETATM   19  C   UNL     1      16.251  52.237  49.030  1.00  0.00     0.043 A 
HETATM   20  C   UNL     1      15.598  52.374  47.785  1.00  0.00    -0.035 A 
HETATM   21  C   UNL     1      16.009  51.592  46.566  1.00  0.00     0.050 C 
HETATM   22  C   UNL     1      14.546  53.295  47.661  1.00  0.00     0.010 A 
HETATM   23  C   UNL     1      14.132  54.058  48.753  1.00  0.00     0.016 A 
HETATM   24  C   UNL     1      14.749  53.913  50.000  1.00  0.00     0.019 A 
HETATM   25  C   UNL     1      15.804  52.995  50.123  1.00  0.00     0.046 A 
BRANCH  24  26
HETATM   26  C   UNL     1      14.287  54.720  51.126  1.00  0.00     0.179 A 
HETATM   27  O   UNL     1      15.246  55.373  51.860  1.00  0.00    -0.302 OA
HETATM   28  C   UNL     1      14.542  56.029  52.823  1.00  0.00     0.163 A 
HETATM   29  C   UNL     1      13.212  55.753  52.638  1.00  0.00     0.144 A 
HETATM   30  N   UNL     1      13.055  54.916  51.563  1.00  0.00    -0.234 NA
ENDBRANCH  24  26
ENDBRANCH   3  19
TORSDOF 5
ENDMDL
MODEL 7
REMARK VINA RESULT:      -7.8      5.501      9.743
REMARK  5 active torsions:
REMARK  status: ('A' for Active; 'I' for Inactive)
REMARK    1  A    between atoms: C_2  and  N_3 
REMARK       I    between atoms: N_3  and  C_4 
REMARK    2  A    between atoms: C_4  and  C_5 
REMARK    3  A    between atoms: C_8  and  N_9 
REMARK       I    between atoms: N_9  and  C_10 
REMARK       I    between atoms: C_10  and  N_11 
REMARK    4  A    between atoms: N_11  and  C_12 
REMARK    5  A    between atoms: C_17  and  C_18 
ROOT
HETATM    1  N   UNL     1      25.455  42.611  51.659  1.00  0.00    -0.309 N 
HETATM    2  C   UNL     1      26.576  43.275  52.139  1.00  0.00     0.325 C 
HETATM    3  N   UNL     1      26.233  44.046  53.240  1.00  0.00    -0.308 N 
HETATM    4  O   UNL     1      27.688  43.222  51.631  1.00  0.00    -0.247 OA
HETATM    5  H   UNL     1      24.709  42.464  52.324  1.00  0.00     0.170 HD
HETATM    6  H   UNL     1      25.246  44.217  53.337  1.00  0.00     0.170 HD
ENDROOT
BRANCH   1   7
HETATM    7  C   UNL     1      25.296  42.015  50.392  1.00  0.00     0.036 A 
HETATM    8  C   UNL     1      25.860  40.786  50.040  1.00  0.00     0.030 A 
HETATM    9  C   UNL     1      25.743  40.294  48.735  1.00  0.00     0.019 A 
HETATM   10  C   UNL     1      25.071  41.038  47.760  1.00  0.00     0.032 A 
HETATM   11  C   UNL     1      24.470  42.248  48.117  1.00  0.00     0.019 A 
HETATM   12  C   UNL     1      24.585  42.735  49.424  1.00  0.00     0.030 A 
BRANCH  10  13
HETATM   13  C   UNL     1      24.983  40.589  46.342  1.00  0.00     0.251 C 
HETATM   14  N   UNL     1      25.627  41.381  45.411  1.00  0.00    -0.357 N 
HETATM   15  H   UNL     1      25.985  42.282  45.694  1.00  0.00     0.162 HD
HETATM   16  O   UNL     1      24.324  39.597  46.050  1.00  0.00    -0.268 OA
BRANCH  14  17
HETATM   17  C   UNL     1      25.504  41.132  43.990  1.00  0.00     0.118 C 
HETATM   18  C   UNL     1      26.799  40.597  43.408  1.00  0.00     0.026 C 
ENDBRANCH  14  17
ENDBRANCH  10  13
ENDBRANCH   1   7
BRANCH   3  19
HETATM   19  C   UNL     1      27.091  44.880  53.999  1.00  0.00     0.043 A 
HETATM   20  C   UNL     1      26.873  46.275  53.981  1.00  0.00    -0.035 A 
HETATM   21  C   UNL     1      25.759  46.910  53.191  1.00  0.00     0.050 C 
HETATM   22  C   UNL     1      27.739  47.113  54.700  1.00  0.00     0.010 A 
HETATM   23  C   UNL     1      28.798  46.583  55.437  1.00  0.00     0.016 A 
HETATM   24  C   UNL     1      29.011  45.202  55.487  1.00  0.00     0.019 A 
HETATM   25  C   UNL     1      28.146  44.363  54.766  1.00  0.00     0.046 A 
BRANCH  24  26
HETATM   26  C   UNL     1      30.122  44.676  56.275  1.00  0.00     0.179 A 
HETATM   27  O   UNL     1      30.339  45.244  57.506  1.00  0.00    -0.302 OA
HETATM   28  C   UNL     1      31.415  44.572  58.001  1.00  0.00     0.163 A 
HETATM   29  C   UNL     1      31.800  43.644  57.069  1.00  0.00     0.144 A 
HETATM   30  N   UNL     1      30.980  43.716  55.971  1.00  0.00    -0.234 NA
ENDBRANCH  24  26
ENDBRANCH   3  19
TORSDOF 5
ENDMDL
MODEL 8
REMARK VINA RESULT:      -7.7      3.047      3.786
REMARK  5 active torsions:
REMARK  status: ('A' for Active; 'I' for Inactive)
REMARK    1  A    between atoms: C_2  and  N_3 
REMARK       I    between atoms: N_3  and  C_4 
REMARK    2  A    between atoms: C_4  and  C_5 
REMARK    3  A    between atoms: C_8  and  N_9 
REMARK       I    between atoms: N_9  and  C_10 
REMARK       I    between atoms: C_10  and  N_11 
REMARK    4  A    between atoms: N_11  and  C_12 
REMARK    5  A    between atoms: C_17  and  C_18 
ROOT
HETATM    1  N   UNL     1      26.215  45.023  51.100  1.00  0.00    -0.309 N 
HETATM    2  C   UNL     1      24.865  44.869  50.814  1.00  0.00     0.325 C 
HETATM    3  N   UNL     1      24.629  45.160  49.477  1.00  0.00    -0.308 N 
HETATM    4  O   UNL     1      24.008  44.569  51.633  1.00  0.00    -0.247 OA
HETATM    5  H   UNL     1      26.846  44.941  50.316  1.00  0.00     0.170 HD
HETATM    6  H   UNL     1      25.367  45.677  49.027  1.00  0.00     0.170 HD
ENDROOT
BRANCH   1   7
HETATM    7  C   UNL     1      26.804  45.157  52.373  1.00  0.00     0.036 A 
HETATM    8  C   UNL     1      26.601  46.259  53.207  1.00  0.00     0.030 A 
HETATM    9  C   UNL     1      27.290  46.374  54.419  1.00  0.00     0.019 A 
HETATM   10  C   UNL     1      28.207  45.391  54.804  1.00  0.00     0.032 A 
HETATM   11  C   UNL     1      28.384  44.266  53.993  1.00  0.00     0.019 A 
HETATM   12  C   UNL     1      27.690  44.152  52.783  1.00  0.00     0.030 A 
BRANCH  10  13
HETATM   13  C   UNL     1      29.016  45.506  56.050  1.00  0.00     0.251 C 
HETATM   14  N   UNL     1      30.149  44.720  56.115  1.00  0.00    -0.357 N 
HETATM   15  H   UNL     1      30.297  44.009  55.412  1.00  0.00     0.162 HD
HETATM   16  O   UNL     1      28.637  46.230  56.965  1.00  0.00    -0.268 OA
BRANCH  14  17
HETATM   17  C   UNL     1      30.945  44.636  57.321  1.00  0.00     0.118 C 
HETATM   18  C   UNL     1      31.921  43.475  57.261  1.00  0.00     0.026 C 
ENDBRANCH  14  17
ENDBRANCH  10  13
ENDBRANCH   1   7
BRANCH   3  19
HETATM   19  C   UNL     1      23.382  45.134  48.805  1.00  0.00     0.043 A 
HETATM   20  C   UNL     1      23.007  43.962  48.113  1.00  0.00    -0.035 A 
HETATM   21  C   UNL     1      23.880  42.736  48.066  1.00  0.00     0.050 C 
HETATM   22  C   UNL     1      21.791  43.939  47.413  1.00  0.00     0.010 A 
HETATM   23  C   UNL     1      20.948  45.051  47.408  1.00  0.00     0.016 A 
HETATM   24  C   UNL     1      21.292  46.209  48.112  1.00  0.00     0.019 A 
HETATM   25  C   UNL     1      22.511  46.233  48.809  1.00  0.00     0.046 A 
BRANCH  24  26
HETATM   26  C   UNL     1      20.385  47.354  48.095  1.00  0.00     0.179 A 
HETATM   27  O   UNL     1      20.164  47.957  46.882  1.00  0.00    -0.302 OA
HETATM   28  C   UNL     1      19.301  48.971  47.164  1.00  0.00     0.163 A 
HETATM   29  C   UNL     1      19.039  48.943  48.509  1.00  0.00     0.144 A 
HETATM   30  N   UNL     1      19.735  47.918  49.099  1.00  0.00    -0.234 NA
ENDBRANCH  24  26
ENDBRANCH   3  19
TORSDOF 5
ENDMDL
MODEL 9
REMARK VINA RESULT:      -7.7      2.630     10.411
REMARK  5 active torsions:
REMARK  status: ('A' for Active; 'I' for Inactive)
REMARK    1  A    between atoms: C_2  and  N_3 
REMARK       I    between atoms: N_3  and  C_4 
REMARK    2  A    between atoms: C_4  and  C_5 
REMARK    3  A    between atoms: C_8  and  N_9 
REMARK       I    between atoms: N_9  and  C_10 
REMARK       I    between atoms: C_10  and  N_11 
REMARK    4  A    between atoms: N_11  and  C_12 
REMARK    5  A    between atoms: C_17  and  C_18 
ROOT
HETATM    1  N   UNL     1      25.086  45.194  49.702  1.00  0.00    -0.309 N 
HETATM    2  C   UNL     1      25.453  44.648  50.925  1.00  0.00     0.325 C 
HETATM    3  N   UNL     1      26.687  44.022  50.810  1.00  0.00    -0.308 N 
HETATM    4  O   UNL     1      24.766  44.675  51.936  1.00  0.00    -0.247 OA
HETATM    5  H   UNL     1      25.840  45.400  49.064  1.00  0.00     0.170 HD
HETATM    6  H   UNL     1      26.967  43.825  49.864  1.00  0.00     0.170 HD
ENDROOT
BRANCH   1   7
HETATM    7  C   UNL     1      23.796  45.604  49.307  1.00  0.00     0.036 A 
HETATM    8  C   UNL     1      22.767  44.715  48.988  1.00  0.00     0.030 A 
HETATM    9  C   UNL     1      21.538  45.186  48.512  1.00  0.00     0.019 A 
HETATM   10  C   UNL     1      21.331  46.557  48.334  1.00  0.00     0.032 A 
HETATM   11  C   UNL     1      22.344  47.453  48.690  1.00  0.00     0.019 A 
HETATM   12  C   UNL     1      23.569  46.979  49.170  1.00  0.00     0.030 A 
BRANCH  10  13
HETATM   13  C   UNL     1      20.066  47.101  47.763  1.00  0.00     0.251 C 
HETATM   14  N   UNL     1      20.050  48.456  47.500  1.00  0.00    -0.357 N 
HETATM   15  H   UNL     1      20.808  49.033  47.836  1.00  0.00     0.162 HD
HETATM   16  O   UNL     1      19.100  46.364  47.599  1.00  0.00    -0.268 OA
BRANCH  14  17
HETATM   17  C   UNL     1      18.842  49.131  47.073  1.00  0.00     0.118 C 
HETATM   18  C   UNL     1      19.151  50.480  46.451  1.00  0.00     0.026 C 
ENDBRANCH  14  17
ENDBRANCH  10  13
ENDBRANCH   1   7
BRANCH   3  19
HETATM   19  C   UNL     1      27.393  43.335  51.829  1.00  0.00     0.043 A 
HETATM   20  C   UNL     1      27.363  41.923  51.843  1.00  0.00    -0.035 A 
HETATM   21  C   UNL     1      26.614  41.119  50.813  1.00  0.00     0.050 C 
HETATM   22  C   UNL     1      28.029  41.234  52.868  1.00  0.00     0.010 A 
HETATM   23  C   UNL     1      28.726  41.926  53.858  1.00  0.00     0.016 A 
HETATM   24  C   UNL     1      28.788  43.323  53.843  1.00  0.00     0.019 A 
HETATM   25  C   UNL     1      28.120  44.012  52.818  1.00  0.00     0.046 A 
BRANCH  24  26
HETATM   26  C   UNL     1      29.534  44.019  54.888  1.00  0.00     0.179 A 
HETATM   27  O   UNL     1      30.605  43.359  55.436  1.00  0.00    -0.302 OA
HETATM   28  C   UNL     1      31.096  44.226  56.363  1.00  0.00     0.163 A 
HETATM   29  C   UNL     1      30.317  45.355  56.341  1.00  0.00     0.144 A 
HETATM   30  N   UNL     1      29.322  45.217  55.407  1.00  0.00    -0.234 NA
ENDBRANCH  24  26
ENDBRANCH   3  19
TORSDOF 5
ENDMDL
MODEL 10
REMARK VINA RESULT:      -7.7      5.267      9.791
REMARK  5 active torsions:
REMARK  status: ('A' for Active; 'I' for Inactive)
REMARK    1  A    between atoms: C_2  and  N_3 
REMARK       I    between atoms: N_3  and  C_4 
REMARK    2  A    between atoms: C_4  and  C_5 
REMARK    3  A    between atoms: C_8  and  N_9 
REMARK       I    between atoms: N_9  and  C_10 
REMARK       I    between atoms: C_10  and  N_11 
REMARK    4  A    between atoms: N_11  and  C_12 
REMARK    5  A    between atoms: C_17  and  C_18 
ROOT
HETATM    1  N   UNL     1      25.630  44.288  50.704  1.00  0.00    -0.309 N 
HETATM    2  C   UNL     1      25.795  44.412  52.077  1.00  0.00     0.325 C 
HETATM    3  N   UNL     1      26.889  45.221  52.350  1.00  0.00    -0.308 N 
HETATM    4  O   UNL     1      25.105  43.850  52.916  1.00  0.00    -0.247 OA
HETATM    5  H   UNL     1      26.021  45.030  50.142  1.00  0.00     0.170 HD
HETATM    6  H   UNL     1      27.517  45.347  51.574  1.00  0.00     0.170 HD
ENDROOT
BRANCH   1   7
HETATM    7  C   UNL     1      24.876  43.312  50.023  1.00  0.00     0.036 A 
HETATM    8  C   UNL     1      25.395  42.082  49.610  1.00  0.00     0.030 A 
HETATM    9  C   UNL     1      24.619  41.196  48.855  1.00  0.00     0.019 A 
HETATM   10  C   UNL     1      23.314  41.539  48.490  1.00  0.00     0.032 A 
HETATM   11  C   UNL     1      22.775  42.750  48.934  1.00  0.00     0.019 A 
HETATM   12  C   UNL     1      23.553  43.632  49.693  1.00  0.00     0.030 A 
BRANCH  10  13
HETATM   13  C   UNL     1      22.475  40.660  47.627  1.00  0.00     0.251 C 
HETATM   14  N   UNL     1      23.040  39.456  47.252  1.00  0.00    -0.357 N 
HETATM   15  H   UNL     1      24.019  39.292  47.440  1.00  0.00     0.162 HD
HETATM   16  O   UNL     1      21.373  41.040  47.248  1.00  0.00    -0.268 OA
BRANCH  14  17
HETATM   17  C   UNL     1      22.388  38.575  46.307  1.00  0.00     0.118 C 
HETATM   18  C   UNL     1      22.220  37.178  46.879  1.00  0.00     0.026 C 
ENDBRANCH  14  17
ENDBRANCH  10  13
ENDBRANCH   1   7
BRANCH   3  19
HETATM   19  C   UNL     1      27.391  45.575  53.627  1.00  0.00     0.043 A 
HETATM   20  C   UNL     1      26.825  46.682  54.297  1.00  0.00    -0.035 A 
HETATM   21  C   UNL     1      25.704  47.497  53.708  1.00  0.00     0.050 C 
HETATM   22  C   UNL     1      27.339  47.063  55.546  1.00  0.00     0.010 A 
HETATM   23  C   UNL     1      28.388  46.355  56.133  1.00  0.00     0.016 A 
HETATM   24  C   UNL     1      28.940  45.240  55.496  1.00  0.00     0.019 A 
HETATM   25  C   UNL     1      28.427  44.860  54.245  1.00  0.00     0.046 A 
BRANCH  24  26
HETATM   26  C   UNL     1      30.031  44.514  56.140  1.00  0.00     0.179 A 
HETATM   27  O   UNL     1      30.465  44.986  57.353  1.00  0.00    -0.302 OA
HETATM   28  C   UNL     1      31.466  44.134  57.706  1.00  0.00     0.163 A 
HETATM   29  C   UNL     1      31.598  43.199  56.713  1.00  0.00     0.144 A 
HETATM   30  N   UNL     1      30.688  43.447  55.716  1.00  0.00    -0.234 NA
ENDBRANCH  24  26
ENDBRANCH   3  19
TORSDOF 5
ENDMDL
